MODEL 1
REMARK VINA RESULT:      -8.9      0.000      0.000
REMARK  5 active torsions:
REMARK  status: ('A' for Active; 'I' for Inactive)
REMARK    1  A    between atoms: C_3  and  N_4 
REMARK       I    between atoms: N_4  and  C_5 
REMARK    2  A    between atoms: C_5  and  C_6 
REMARK    3  A    between atoms: C_6  and  C_7 
REMARK    4  A    between atoms: C_9  and  N_10 
REMARK       I    between atoms: N_10  and  C_11 
REMARK       I    between atoms: C_11  and  N_12 
REMARK    5  A    between atoms: N_12  and  C_13 
ROOT
HETATM    1  C   UNL     1     -41.388  57.246 -51.835  1.00  0.00     0.052 A 
HETATM    2  N   UNL     1     -41.960  56.760 -53.006  1.00  0.00    -0.228 NA
HETATM    3  C   UNL     1     -41.997  57.712 -53.911  1.00  0.00     0.174 A 
HETATM    4  S   UNL     1     -41.308  59.200 -53.456  1.00  0.00    -0.062 SA
HETATM    5  C   UNL     1     -40.972  58.562 -51.901  1.00  0.00     0.081 A 
ENDROOT
BRANCH   1   6
HETATM    6  C   UNL     1     -41.346  56.342 -50.645  1.00  0.00     0.163 C 
BRANCH   6   7
HETATM    7  C   UNL     1     -41.507  54.872 -51.024  1.00  0.00     0.227 C 
HETATM    8  N   UNL     1     -40.415  54.341 -51.685  1.00  0.00    -0.326 N 
HETATM    9  H   UNL     1     -39.574  54.913 -51.614  1.00  0.00     0.169 HD
HETATM   10  O   UNL     1     -42.500  54.252 -50.652  1.00  0.00    -0.273 OA
BRANCH   8  11
HETATM   11  C   UNL     1     -40.245  53.099 -52.333  1.00  0.00     0.042 A 
HETATM   12  C   UNL     1     -40.334  52.846 -53.714  1.00  0.00    -0.035 A 
HETATM   13  C   UNL     1     -40.587  53.886 -54.768  1.00  0.00     0.050 C 
HETATM   14  C   UNL     1     -40.134  51.526 -54.179  1.00  0.00     0.011 A 
HETATM   15  C   UNL     1     -39.800  50.489 -53.310  1.00  0.00     0.024 A 
HETATM   16  C   UNL     1     -39.662  50.758 -51.958  1.00  0.00     0.036 A 
HETATM   17  C   UNL     1     -39.878  52.046 -51.473  1.00  0.00     0.053 A 
HETATM   18 CL   UNL     1     -39.223  49.497 -50.872  1.00  0.00    -0.084 Cl
ENDBRANCH   8  11
ENDBRANCH   6   7
ENDBRANCH   1   6
BRANCH   3  19
HETATM   19  N   UNL     1     -42.509  57.480 -55.160  1.00  0.00    -0.287 N 
HETATM   20  C   UNL     1     -43.805  57.179 -55.458  1.00  0.00     0.326 C 
HETATM   21  N   UNL     1     -44.078  56.973 -56.788  1.00  0.00    -0.309 N 
HETATM   22  O   UNL     1     -44.708  56.974 -54.652  1.00  0.00    -0.247 OA
HETATM   23  H   UNL     1     -44.946  56.466 -56.914  1.00  0.00     0.170 HD
HETATM   24  H   UNL     1     -41.815  57.205 -55.836  1.00  0.00     0.172 HD
BRANCH  21  25
HETATM   25  C   UNL     1     -43.402  57.380 -57.952  1.00  0.00     0.036 A 
HETATM   26  C   UNL     1     -43.262  58.759 -58.162  1.00  0.00     0.032 A 
HETATM   27  C   UNL     1     -42.596  59.238 -59.292  1.00  0.00     0.044 A 
HETATM   28  C   UNL     1     -42.044  58.339 -60.194  1.00  0.00     0.116 A 
HETATM   29  F   UNL     1     -41.396  58.797 -61.272  1.00  0.00    -0.206 F 
HETATM   30  C   UNL     1     -42.142  56.970 -59.983  1.00  0.00     0.044 A 
HETATM   31  C   UNL     1     -42.819  56.488 -58.859  1.00  0.00     0.032 A 
ENDBRANCH  21  25
ENDBRANCH   3  19
TORSDOF 5
ENDMDL
MODEL 2
REMARK VINA RESULT:      -8.7      1.962      2.160
REMARK  5 active torsions:
REMARK  status: ('A' for Active; 'I' for Inactive)
REMARK    1  A    between atoms: C_3  and  N_4 
REMARK       I    between atoms: N_4  and  C_5 
REMARK    2  A    between atoms: C_5  and  C_6 
REMARK    3  A    between atoms: C_6  and  C_7 
REMARK    4  A    between atoms: C_9  and  N_10 
REMARK       I    between atoms: N_10  and  C_11 
REMARK       I    between atoms: C_11  and  N_12 
REMARK    5  A    between atoms: N_12  and  C_13 
ROOT
HETATM    1  C   UNL     1     -43.120  57.162 -51.925  1.00  0.00     0.052 A 
HETATM    2  N   UNL     1     -42.868  56.992 -53.283  1.00  0.00    -0.228 NA
HETATM    3  C   UNL     1     -43.665  57.766 -53.984  1.00  0.00     0.174 A 
HETATM    4  S   UNL     1     -44.702  58.775 -53.087  1.00  0.00    -0.062 SA
HETATM    5  C   UNL     1     -44.093  58.099 -51.634  1.00  0.00     0.081 A 
ENDROOT
BRANCH   1   6
HETATM    6  C   UNL     1     -42.383  56.291 -50.959  1.00  0.00     0.163 C 
BRANCH   6   7
HETATM    7  C   UNL     1     -42.285  54.844 -51.435  1.00  0.00     0.227 C 
HETATM    8  N   UNL     1     -41.021  54.479 -51.857  1.00  0.00    -0.326 N 
HETATM    9  H   UNL     1     -40.288  55.126 -51.570  1.00  0.00     0.169 HD
HETATM   10  O   UNL     1     -43.256  54.101 -51.329  1.00  0.00    -0.273 OA
BRANCH   8  11
HETATM   11  C   UNL     1     -40.569  53.311 -52.509  1.00  0.00     0.042 A 
HETATM   12  C   UNL     1     -40.440  53.113 -53.896  1.00  0.00    -0.035 A 
HETATM   13  C   UNL     1     -40.724  54.149 -54.946  1.00  0.00     0.050 C 
HETATM   14  C   UNL     1     -39.970  51.865 -54.365  1.00  0.00     0.011 A 
HETATM   15  C   UNL     1     -39.583  50.854 -53.487  1.00  0.00     0.024 A 
HETATM   16  C   UNL     1     -39.664  51.077 -52.122  1.00  0.00     0.036 A 
HETATM   17  C   UNL     1     -40.147  52.290 -51.636  1.00  0.00     0.053 A 
HETATM   18 CL   UNL     1     -39.166  49.851 -51.022  1.00  0.00    -0.084 Cl
ENDBRANCH   8  11
ENDBRANCH   6   7
ENDBRANCH   1   6
BRANCH   3  19
HETATM   19  N   UNL     1     -43.605  57.788 -55.352  1.00  0.00    -0.287 N 
HETATM   20  C   UNL     1     -42.680  58.443 -56.110  1.00  0.00     0.326 C 
HETATM   21  N   UNL     1     -42.835  58.329 -57.469  1.00  0.00    -0.309 N 
HETATM   22  O   UNL     1     -41.802  59.197 -55.696  1.00  0.00    -0.247 OA
HETATM   23  H   UNL     1     -42.333  59.059 -57.961  1.00  0.00     0.170 HD
HETATM   24  H   UNL     1     -44.482  57.573 -55.797  1.00  0.00     0.172 HD
BRANCH  21  25
HETATM   25  C   UNL     1     -43.507  57.375 -58.254  1.00  0.00     0.036 A 
HETATM   26  C   UNL     1     -44.760  57.736 -58.767  1.00  0.00     0.032 A 
HETATM   27  C   UNL     1     -45.482  56.844 -59.562  1.00  0.00     0.044 A 
HETATM   28  C   UNL     1     -44.938  55.604 -59.868  1.00  0.00     0.116 A 
HETATM   29  F   UNL     1     -45.626  54.752 -60.637  1.00  0.00    -0.206 F 
HETATM   30  C   UNL     1     -43.683  55.243 -59.396  1.00  0.00     0.044 A 
HETATM   31  C   UNL     1     -42.963  56.130 -58.591  1.00  0.00     0.032 A 
ENDBRANCH  21  25
ENDBRANCH   3  19
TORSDOF 5
ENDMDL
MODEL 3
REMARK VINA RESULT:      -8.4      2.483      3.201
REMARK  5 active torsions:
REMARK  status: ('A' for Active; 'I' for Inactive)
REMARK    1  A    between atoms: C_3  and  N_4 
REMARK       I    between atoms: N_4  and  C_5 
REMARK    2  A    between atoms: C_5  and  C_6 
REMARK    3  A    between atoms: C_6  and  C_7 
REMARK    4  A    between atoms: C_9  and  N_10 
REMARK       I    between atoms: N_10  and  C_11 
REMARK       I    between atoms: C_11  and  N_12 
REMARK    5  A    between atoms: N_12  and  C_13 
ROOT
HETATM    1  C   UNL     1     -44.114  57.728 -52.480  1.00  0.00     0.052 A 
HETATM    2  N   UNL     1     -43.994  56.928 -53.612  1.00  0.00    -0.228 NA
HETATM    3  C   UNL     1     -43.649  57.666 -54.642  1.00  0.00     0.174 A 
HETATM    4  S   UNL     1     -43.389  59.318 -54.324  1.00  0.00    -0.062 SA
HETATM    5  C   UNL     1     -43.820  59.062 -52.685  1.00  0.00     0.081 A 
ENDROOT
BRANCH   1   6
HETATM    6  C   UNL     1     -44.600  57.091 -51.217  1.00  0.00     0.163 C 
BRANCH   6   7
HETATM    7  C   UNL     1     -43.857  55.797 -50.893  1.00  0.00     0.227 C 
HETATM    8  N   UNL     1     -42.534  55.797 -51.291  1.00  0.00    -0.326 N 
HETATM    9  H   UNL     1     -42.172  56.722 -51.516  1.00  0.00     0.169 HD
HETATM   10  O   UNL     1     -44.420  54.919 -50.245  1.00  0.00    -0.273 OA
BRANCH   8  11
HETATM   11  C   UNL     1     -41.582  54.755 -51.322  1.00  0.00     0.042 A 
HETATM   12  C   UNL     1     -40.848  54.245 -50.235  1.00  0.00    -0.035 A 
HETATM   13  C   UNL     1     -40.988  54.700 -48.811  1.00  0.00     0.050 C 
HETATM   14  C   UNL     1     -39.931  53.195 -50.466  1.00  0.00     0.011 A 
HETATM   15  C   UNL     1     -39.779  52.622 -51.727  1.00  0.00     0.024 A 
HETATM   16  C   UNL     1     -40.543  53.095 -52.781  1.00  0.00     0.036 A 
HETATM   17  C   UNL     1     -41.437  54.146 -52.584  1.00  0.00     0.053 A 
HETATM   18 CL   UNL     1     -40.390  52.383 -54.340  1.00  0.00    -0.084 Cl
ENDBRANCH   8  11
ENDBRANCH   6   7
ENDBRANCH   1   6
BRANCH   3  19
HETATM   19  N   UNL     1     -43.458  57.108 -55.878  1.00  0.00    -0.287 N 
HETATM   20  C   UNL     1     -42.450  56.262 -56.235  1.00  0.00     0.326 C 
HETATM   21  N   UNL     1     -42.459  55.843 -57.543  1.00  0.00    -0.309 N 
HETATM   22  O   UNL     1     -41.494  55.933 -55.537  1.00  0.00    -0.247 OA
HETATM   23  H   UNL     1     -41.553  55.486 -57.824  1.00  0.00     0.170 HD
HETATM   24  H   UNL     1     -43.907  57.615 -56.624  1.00  0.00     0.172 HD
BRANCH  21  25
HETATM   25  C   UNL     1     -43.491  55.785 -58.496  1.00  0.00     0.036 A 
HETATM   26  C   UNL     1     -43.973  57.004 -58.991  1.00  0.00     0.032 A 
HETATM   27  C   UNL     1     -44.992  57.025 -59.947  1.00  0.00     0.044 A 
HETATM   28  C   UNL     1     -45.506  55.828 -60.427  1.00  0.00     0.116 A 
HETATM   29  F   UNL     1     -46.476  55.848 -61.349  1.00  0.00    -0.206 F 
HETATM   30  C   UNL     1     -45.015  54.611 -59.972  1.00  0.00     0.044 A 
HETATM   31  C   UNL     1     -44.003  54.587 -59.008  1.00  0.00     0.032 A 
ENDBRANCH  21  25
ENDBRANCH   3  19
TORSDOF 5
ENDMDL
MODEL 4
REMARK VINA RESULT:      -8.3      3.860      7.662
REMARK  5 active torsions:
REMARK  status: ('A' for Active; 'I' for Inactive)
REMARK    1  A    between atoms: C_3  and  N_4 
REMARK       I    between atoms: N_4  and  C_5 
REMARK    2  A    between atoms: C_5  and  C_6 
REMARK    3  A    between atoms: C_6  and  C_7 
REMARK    4  A    between atoms: C_9  and  N_10 
REMARK       I    between atoms: N_10  and  C_11 
REMARK       I    between atoms: C_11  and  N_12 
REMARK    5  A    between atoms: N_12  and  C_13 
ROOT
HETATM    1  C   UNL     1     -42.833  57.940 -52.615  1.00  0.00     0.052 A 
HETATM    2  N   UNL     1     -41.868  56.952 -52.784  1.00  0.00    -0.228 NA
HETATM    3  C   UNL     1     -42.096  55.962 -51.951  1.00  0.00     0.174 A 
HETATM    4  S   UNL     1     -43.482  56.112 -50.976  1.00  0.00    -0.062 SA
HETATM    5  C   UNL     1     -43.795  57.649 -51.668  1.00  0.00     0.081 A 
ENDROOT
BRANCH   1   6
HETATM    6  C   UNL     1     -42.691  59.203 -53.404  1.00  0.00     0.163 C 
BRANCH   6   7
HETATM    7  C   UNL     1     -42.508  58.941 -54.897  1.00  0.00     0.227 C 
HETATM    8  N   UNL     1     -43.357  57.977 -55.404  1.00  0.00    -0.326 N 
HETATM    9  H   UNL     1     -44.139  57.752 -54.789  1.00  0.00     0.169 HD
HETATM   10  O   UNL     1     -41.729  59.635 -55.545  1.00  0.00    -0.273 OA
BRANCH   8  11
HETATM   11  C   UNL     1     -43.385  57.345 -56.666  1.00  0.00     0.042 A 
HETATM   12  C   UNL     1     -42.946  56.044 -56.972  1.00  0.00    -0.035 A 
HETATM   13  C   UNL     1     -42.401  55.061 -55.975  1.00  0.00     0.050 C 
HETATM   14  C   UNL     1     -43.052  55.585 -58.304  1.00  0.00     0.011 A 
HETATM   15  C   UNL     1     -43.628  56.368 -59.303  1.00  0.00     0.024 A 
HETATM   16  C   UNL     1     -44.105  57.629 -58.983  1.00  0.00     0.036 A 
HETATM   17  C   UNL     1     -43.990  58.113 -57.681  1.00  0.00     0.053 A 
HETATM   18 CL   UNL     1     -44.844  58.601 -60.195  1.00  0.00    -0.084 Cl
ENDBRANCH   8  11
ENDBRANCH   6   7
ENDBRANCH   1   6
BRANCH   3  19
HETATM   19  N   UNL     1     -41.286  54.858 -51.928  1.00  0.00    -0.287 N 
HETATM   20  C   UNL     1     -40.663  54.335 -50.834  1.00  0.00     0.326 C 
HETATM   21  N   UNL     1     -39.887  53.226 -51.064  1.00  0.00    -0.309 N 
HETATM   22  O   UNL     1     -40.648  54.820 -49.705  1.00  0.00    -0.247 OA
HETATM   23  H   UNL     1     -39.226  53.075 -50.310  1.00  0.00     0.170 HD
HETATM   24  H   UNL     1     -40.888  54.631 -52.826  1.00  0.00     0.172 HD
BRANCH  21  25
HETATM   25  C   UNL     1     -39.896  52.282 -52.104  1.00  0.00     0.036 A 
HETATM   26  C   UNL     1     -39.557  50.962 -51.774  1.00  0.00     0.032 A 
HETATM   27  C   UNL     1     -39.553  49.967 -52.753  1.00  0.00     0.044 A 
HETATM   28  C   UNL     1     -39.915  50.285 -54.055  1.00  0.00     0.116 A 
HETATM   29  F   UNL     1     -39.920  49.330 -54.993  1.00  0.00    -0.206 F 
HETATM   30  C   UNL     1     -40.286  51.580 -54.393  1.00  0.00     0.044 A 
HETATM   31  C   UNL     1     -40.281  52.581 -53.417  1.00  0.00     0.032 A 
ENDBRANCH  21  25
ENDBRANCH   3  19
TORSDOF 5
ENDMDL
MODEL 5
REMARK VINA RESULT:      -7.9      4.153      7.817
REMARK  5 active torsions:
REMARK  status: ('A' for Active; 'I' for Inactive)
REMARK    1  A    between atoms: C_3  and  N_4 
REMARK       I    between atoms: N_4  and  C_5 
REMARK    2  A    between atoms: C_5  and  C_6 
REMARK    3  A    between atoms: C_6  and  C_7 
REMARK    4  A    between atoms: C_9  and  N_10 
REMARK       I    between atoms: N_10  and  C_11 
REMARK       I    between atoms: C_11  and  N_12 
REMARK    5  A    between atoms: N_12  and  C_13 
ROOT
HETATM    1  C   UNL     1     -42.839  59.712 -55.626  1.00  0.00     0.052 A 
HETATM    2  N   UNL     1     -43.061  58.361 -55.380  1.00  0.00    -0.228 NA
HETATM    3  C   UNL     1     -42.494  58.017 -54.246  1.00  0.00     0.174 A 
HETATM    4  S   UNL     1     -41.728  59.269 -53.385  1.00  0.00    -0.062 SA
HETATM    5  C   UNL     1     -42.127  60.367 -54.640  1.00  0.00     0.081 A 
ENDROOT
BRANCH   1   6
HETATM    6  C   UNL     1     -43.319  60.279 -56.924  1.00  0.00     0.163 C 
BRANCH   6   7
HETATM    7  C   UNL     1     -43.295  59.252 -58.054  1.00  0.00     0.227 C 
HETATM    8  N   UNL     1     -44.353  58.364 -58.026  1.00  0.00    -0.326 N 
HETATM    9  H   UNL     1     -45.120  58.656 -57.421  1.00  0.00     0.169 HD
HETATM   10  O   UNL     1     -42.439  59.332 -58.931  1.00  0.00    -0.273 OA
BRANCH   8  11
HETATM   11  C   UNL     1     -44.593  57.193 -58.776  1.00  0.00     0.042 A 
HETATM   12  C   UNL     1     -43.896  55.973 -58.689  1.00  0.00    -0.035 A 
HETATM   13  C   UNL     1     -42.780  55.684 -57.727  1.00  0.00     0.050 C 
HETATM   14  C   UNL     1     -44.283  54.906 -59.532  1.00  0.00     0.011 A 
HETATM   15  C   UNL     1     -45.366  55.019 -60.402  1.00  0.00     0.024 A 
HETATM   16  C   UNL     1     -46.079  56.206 -60.444  1.00  0.00     0.036 A 
HETATM   17  C   UNL     1     -45.702  57.280 -59.640  1.00  0.00     0.053 A 
HETATM   18 CL   UNL     1     -47.436  56.356 -61.492  1.00  0.00    -0.084 Cl
ENDBRANCH   8  11
ENDBRANCH   6   7
ENDBRANCH   1   6
BRANCH   3  19
HETATM   19  N   UNL     1     -42.579  56.734 -53.775  1.00  0.00    -0.287 N 
HETATM   20  C   UNL     1     -43.668  55.917 -53.846  1.00  0.00     0.326 C 
HETATM   21  N   UNL     1     -43.516  54.672 -53.288  1.00  0.00    -0.309 N 
HETATM   22  O   UNL     1     -44.783  56.225 -54.259  1.00  0.00    -0.247 OA
HETATM   23  H   UNL     1     -44.413  54.241 -53.095  1.00  0.00     0.170 HD
HETATM   24  H   UNL     1     -41.901  56.521 -53.061  1.00  0.00     0.172 HD
BRANCH  21  25
HETATM   25  C   UNL     1     -42.369  53.913 -53.001  1.00  0.00     0.036 A 
HETATM   26  C   UNL     1     -41.734  53.279 -54.079  1.00  0.00     0.032 A 
HETATM   27  C   UNL     1     -40.584  52.515 -53.872  1.00  0.00     0.044 A 
HETATM   28  C   UNL     1     -40.052  52.409 -52.594  1.00  0.00     0.116 A 
HETATM   29  F   UNL     1     -38.944  51.684 -52.397  1.00  0.00    -0.206 F 
HETATM   30  C   UNL     1     -40.648  53.058 -51.521  1.00  0.00     0.044 A 
HETATM   31  C   UNL     1     -41.806  53.815 -51.723  1.00  0.00     0.032 A 
ENDBRANCH  21  25
ENDBRANCH   3  19
TORSDOF 5
ENDMDL
MODEL 6
REMARK VINA RESULT:      -7.8      3.273      4.560
REMARK  5 active torsions:
REMARK  status: ('A' for Active; 'I' for Inactive)
REMARK    1  A    between atoms: C_3  and  N_4 
REMARK       I    between atoms: N_4  and  C_5 
REMARK    2  A    between atoms: C_5  and  C_6 
REMARK    3  A    between atoms: C_6  and  C_7 
REMARK    4  A    between atoms: C_9  and  N_10 
REMARK       I    between atoms: N_10  and  C_11 
REMARK       I    between atoms: C_11  and  N_12 
REMARK    5  A    between atoms: N_12  and  C_13 
ROOT
HETATM    1  C   UNL     1     -43.072  56.384 -56.719  1.00  0.00     0.052 A 
HETATM    2  N   UNL     1     -42.900  57.711 -57.101  1.00  0.00    -0.228 NA
HETATM    3  C   UNL     1     -42.749  57.783 -58.404  1.00  0.00     0.174 A 
HETATM    4  S   UNL     1     -42.861  56.310 -59.250  1.00  0.00    -0.062 SA
HETATM    5  C   UNL     1     -43.077  55.481 -57.765  1.00  0.00     0.081 A 
ENDROOT
BRANCH   1   6
HETATM    6  C   UNL     1     -43.160  56.078 -55.259  1.00  0.00     0.163 C 
BRANCH   6   7
HETATM    7  C   UNL     1     -41.884  55.439 -54.718  1.00  0.00     0.227 C 
HETATM    8  N   UNL     1     -42.062  54.160 -54.228  1.00  0.00    -0.326 N 
HETATM    9  H   UNL     1     -42.941  53.730 -54.511  1.00  0.00     0.169 HD
HETATM   10  O   UNL     1     -40.812  56.028 -54.833  1.00  0.00    -0.273 OA
BRANCH   8  11
HETATM   11  C   UNL     1     -41.186  53.319 -53.508  1.00  0.00     0.042 A 
HETATM   12  C   UNL     1     -40.761  53.480 -52.176  1.00  0.00    -0.035 A 
HETATM   13  C   UNL     1     -41.212  54.577 -51.253  1.00  0.00     0.050 C 
HETATM   14  C   UNL     1     -39.873  52.529 -51.624  1.00  0.00     0.011 A 
HETATM   15  C   UNL     1     -39.456  51.414 -52.349  1.00  0.00     0.024 A 
HETATM   16  C   UNL     1     -39.920  51.235 -53.641  1.00  0.00     0.036 A 
HETATM   17  C   UNL     1     -40.778  52.172 -54.215  1.00  0.00     0.053 A 
HETATM   18 CL   UNL     1     -39.438  49.850 -54.543  1.00  0.00    -0.084 Cl
ENDBRANCH   8  11
ENDBRANCH   6   7
ENDBRANCH   1   6
BRANCH   3  19
HETATM   19  N   UNL     1     -42.572  58.988 -59.029  1.00  0.00    -0.287 N 
HETATM   20  C   UNL     1     -43.556  59.807 -59.498  1.00  0.00     0.326 C 
HETATM   21  N   UNL     1     -43.130  60.963 -60.105  1.00  0.00    -0.309 N 
HETATM   22  O   UNL     1     -44.759  59.559 -59.524  1.00  0.00    -0.247 OA
HETATM   23  H   UNL     1     -43.855  61.363 -60.689  1.00  0.00     0.170 HD
HETATM   24  H   UNL     1     -41.658  59.100 -59.438  1.00  0.00     0.172 HD
BRANCH  21  25
HETATM   25  C   UNL     1     -41.922  61.675 -60.009  1.00  0.00     0.036 A 
HETATM   26  C   UNL     1     -41.451  61.967 -58.722  1.00  0.00     0.032 A 
HETATM   27  C   UNL     1     -40.253  62.664 -58.547  1.00  0.00     0.044 A 
HETATM   28  C   UNL     1     -39.513  63.042 -59.659  1.00  0.00     0.116 A 
HETATM   29  F   UNL     1     -38.360  63.702 -59.493  1.00  0.00    -0.206 F 
HETATM   30  C   UNL     1     -39.947  62.730 -60.941  1.00  0.00     0.044 A 
HETATM   31  C   UNL     1     -41.151  62.043 -61.118  1.00  0.00     0.032 A 
ENDBRANCH  21  25
ENDBRANCH   3  19
TORSDOF 5
ENDMDL
MODEL 7
REMARK VINA RESULT:      -7.8      3.300      7.541
REMARK  5 active torsions:
REMARK  status: ('A' for Active; 'I' for Inactive)
REMARK    1  A    between atoms: C_3  and  N_4 
REMARK       I    between atoms: N_4  and  C_5 
REMARK    2  A    between atoms: C_5  and  C_6 
REMARK    3  A    between atoms: C_6  and  C_7 
REMARK    4  A    between atoms: C_9  and  N_10 
REMARK       I    between atoms: N_10  and  C_11 
REMARK       I    between atoms: C_11  and  N_12 
REMARK    5  A    between atoms: N_12  and  C_13 
ROOT
HETATM    1  C   UNL     1     -43.435  58.200 -53.209  1.00  0.00     0.052 A 
HETATM    2  N   UNL     1     -43.067  56.869 -53.040  1.00  0.00    -0.228 NA
HETATM    3  C   UNL     1     -41.837  56.803 -52.582  1.00  0.00     0.174 A 
HETATM    4  S   UNL     1     -41.077  58.293 -52.269  1.00  0.00    -0.062 SA
HETATM    5  C   UNL     1     -42.469  59.115 -52.837  1.00  0.00     0.081 A 
ENDROOT
BRANCH   1   6
HETATM    6  C   UNL     1     -44.769  58.488 -53.820  1.00  0.00     0.163 C 
BRANCH   6   7
HETATM    7  C   UNL     1     -44.695  58.636 -55.338  1.00  0.00     0.227 C 
HETATM    8  N   UNL     1     -43.835  57.743 -55.947  1.00  0.00    -0.326 N 
HETATM    9  H   UNL     1     -43.560  56.964 -55.350  1.00  0.00     0.169 HD
HETATM   10  O   UNL     1     -45.439  59.430 -55.909  1.00  0.00    -0.273 OA
BRANCH   8  11
HETATM   11  C   UNL     1     -43.373  57.671 -57.279  1.00  0.00     0.042 A 
HETATM   12  C   UNL     1     -42.512  58.576 -57.927  1.00  0.00    -0.035 A 
HETATM   13  C   UNL     1     -41.885  59.781 -57.285  1.00  0.00     0.050 C 
HETATM   14  C   UNL     1     -42.162  58.336 -59.275  1.00  0.00     0.011 A 
HETATM   15  C   UNL     1     -42.604  57.202 -59.954  1.00  0.00     0.024 A 
HETATM   16  C   UNL     1     -43.408  56.289 -59.292  1.00  0.00     0.036 A 
HETATM   17  C   UNL     1     -43.787  56.516 -57.970  1.00  0.00     0.053 A 
HETATM   18 CL   UNL     1     -43.942  54.869 -60.103  1.00  0.00    -0.084 Cl
ENDBRANCH   8  11
ENDBRANCH   6   7
ENDBRANCH   1   6
BRANCH   3  19
HETATM   19  N   UNL     1     -41.244  55.596 -52.323  1.00  0.00    -0.287 N 
HETATM   20  C   UNL     1     -41.080  55.023 -51.096  1.00  0.00     0.326 C 
HETATM   21  N   UNL     1     -40.439  53.809 -51.087  1.00  0.00    -0.309 N 
HETATM   22  O   UNL     1     -41.351  55.534 -50.013  1.00  0.00    -0.247 OA
HETATM   23  H   UNL     1     -40.078  53.588 -50.166  1.00  0.00     0.170 HD
HETATM   24  H   UNL     1     -40.620  55.288 -53.052  1.00  0.00     0.172 HD
BRANCH  21  25
HETATM   25  C   UNL     1     -40.256  52.844 -52.092  1.00  0.00     0.036 A 
HETATM   26  C   UNL     1     -39.678  51.625 -51.712  1.00  0.00     0.032 A 
HETATM   27  C   UNL     1     -39.473  50.615 -52.655  1.00  0.00     0.044 A 
HETATM   28  C   UNL     1     -39.872  50.814 -53.970  1.00  0.00     0.116 A 
HETATM   29  F   UNL     1     -39.684  49.843 -54.872  1.00  0.00    -0.206 F 
HETATM   30  C   UNL     1     -40.477  52.002 -54.356  1.00  0.00     0.044 A 
HETATM   31  C   UNL     1     -40.673  53.019 -53.417  1.00  0.00     0.032 A 
ENDBRANCH  21  25
ENDBRANCH   3  19
TORSDOF 5
ENDMDL
MODEL 8
REMARK VINA RESULT:      -7.6      4.268      8.045
REMARK  5 active torsions:
REMARK  status: ('A' for Active; 'I' for Inactive)
REMARK    1  A    between atoms: C_3  and  N_4 
REMARK       I    between atoms: N_4  and  C_5 
REMARK    2  A    between atoms: C_5  and  C_6 
REMARK    3  A    between atoms: C_6  and  C_7 
REMARK    4  A    between atoms: C_9  and  N_10 
REMARK       I    between atoms: N_10  and  C_11 
REMARK       I    between atoms: C_11  and  N_12 
REMARK    5  A    between atoms: N_12  and  C_13 
ROOT
HETATM    1  C   UNL     1     -43.555  57.418 -52.995  1.00  0.00     0.052 A 
HETATM    2  N   UNL     1     -42.852  56.421 -53.664  1.00  0.00    -0.228 NA
HETATM    3  C   UNL     1     -42.327  55.587 -52.795  1.00  0.00     0.174 A 
HETATM    4  S   UNL     1     -42.681  55.895 -51.159  1.00  0.00    -0.062 SA
HETATM    5  C   UNL     1     -43.567  57.288 -51.619  1.00  0.00     0.081 A 
ENDROOT
BRANCH   1   6
HETATM    6  C   UNL     1     -44.145  58.527 -53.805  1.00  0.00     0.163 C 
BRANCH   6   7
HETATM    7  C   UNL     1     -44.266  58.168 -55.284  1.00  0.00     0.227 C 
HETATM    8  N   UNL     1     -43.054  58.081 -55.940  1.00  0.00    -0.326 N 
HETATM    9  H   UNL     1     -42.251  58.023 -55.314  1.00  0.00     0.169 HD
HETATM   10  O   UNL     1     -45.367  57.896 -55.756  1.00  0.00    -0.273 OA
BRANCH   8  11
HETATM   11  C   UNL     1     -42.756  57.942 -57.313  1.00  0.00     0.042 A 
HETATM   12  C   UNL     1     -42.752  56.750 -58.062  1.00  0.00    -0.035 A 
HETATM   13  C   UNL     1     -43.117  55.394 -57.528  1.00  0.00     0.050 C 
HETATM   14  C   UNL     1     -42.423  56.810 -59.435  1.00  0.00     0.011 A 
HETATM   15  C   UNL     1     -42.156  58.022 -60.070  1.00  0.00     0.024 A 
HETATM   16  C   UNL     1     -42.214  59.196 -59.337  1.00  0.00     0.036 A 
HETATM   17  C   UNL     1     -42.513  59.160 -57.976  1.00  0.00     0.053 A 
HETATM   18 CL   UNL     1     -41.915  60.705 -60.108  1.00  0.00    -0.084 Cl
ENDBRANCH   8  11
ENDBRANCH   6   7
ENDBRANCH   1   6
BRANCH   3  19
HETATM   19  N   UNL     1     -41.591  54.508 -53.207  1.00  0.00    -0.287 N 
HETATM   20  C   UNL     1     -40.630  54.507 -54.173  1.00  0.00     0.326 C 
HETATM   21  N   UNL     1     -40.037  53.294 -54.423  1.00  0.00    -0.309 N 
HETATM   22  O   UNL     1     -40.328  55.451 -54.900  1.00  0.00    -0.247 OA
HETATM   23  H   UNL     1     -39.577  53.286 -55.326  1.00  0.00     0.170 HD
HETATM   24  H   UNL     1     -42.025  53.622 -53.000  1.00  0.00     0.172 HD
BRANCH  21  25
HETATM   25  C   UNL     1     -39.929  52.131 -53.641  1.00  0.00     0.036 A 
HETATM   26  C   UNL     1     -40.001  50.901 -54.308  1.00  0.00     0.032 A 
HETATM   27  C   UNL     1     -39.892  49.704 -53.598  1.00  0.00     0.044 A 
HETATM   28  C   UNL     1     -39.682  49.737 -52.226  1.00  0.00     0.116 A 
HETATM   29  F   UNL     1     -39.569  48.589 -51.547  1.00  0.00    -0.206 F 
HETATM   30  C   UNL     1     -39.574  50.947 -51.554  1.00  0.00     0.044 A 
HETATM   31  C   UNL     1     -39.694  52.147 -52.261  1.00  0.00     0.032 A 
ENDBRANCH  21  25
ENDBRANCH   3  19
TORSDOF 5
ENDMDL
MODEL 9
REMARK VINA RESULT:      -7.6      1.476      2.102
REMARK  5 active torsions:
REMARK  status: ('A' for Active; 'I' for Inactive)
REMARK    1  A    between atoms: C_3  and  N_4 
REMARK       I    between atoms: N_4  and  C_5 
REMARK    2  A    between atoms: C_5  and  C_6 
REMARK    3  A    between atoms: C_6  and  C_7 
REMARK    4  A    between atoms: C_9  and  N_10 
REMARK       I    between atoms: N_10  and  C_11 
REMARK       I    between atoms: C_11  and  N_12 
REMARK    5  A    between atoms: N_12  and  C_13 
ROOT
HETATM    1  C   UNL     1     -41.193  56.576 -51.197  1.00  0.00     0.052 A 
HETATM    2  N   UNL     1     -41.923  56.190 -52.317  1.00  0.00    -0.228 NA
HETATM    3  C   UNL     1     -41.895  57.147 -53.217  1.00  0.00     0.174 A 
HETATM    4  S   UNL     1     -40.966  58.517 -52.820  1.00  0.00    -0.062 SA
HETATM    5  C   UNL     1     -40.600  57.820 -51.297  1.00  0.00     0.081 A 
ENDROOT
BRANCH   1   6
HETATM    6  C   UNL     1     -41.186  55.661 -50.014  1.00  0.00     0.163 C 
BRANCH   6   7
HETATM    7  C   UNL     1     -40.278  54.451 -50.218  1.00  0.00     0.227 C 
HETATM    8  N   UNL     1     -40.808  53.489 -51.057  1.00  0.00    -0.326 N 
HETATM    9  H   UNL     1     -41.600  53.816 -51.609  1.00  0.00     0.169 HD
HETATM   10  O   UNL     1     -39.151  54.446 -49.732  1.00  0.00    -0.273 OA
BRANCH   8  11
HETATM   11  C   UNL     1     -40.366  52.183 -51.357  1.00  0.00     0.042 A 
HETATM   12  C   UNL     1     -40.213  51.113 -50.455  1.00  0.00    -0.035 A 
HETATM   13  C   UNL     1     -40.547  51.163 -48.991  1.00  0.00     0.050 C 
HETATM   14  C   UNL     1     -39.751  49.870 -50.945  1.00  0.00     0.011 A 
HETATM   15  C   UNL     1     -39.497  49.669 -52.301  1.00  0.00     0.024 A 
HETATM   16  C   UNL     1     -39.700  50.712 -53.189  1.00  0.00     0.036 A 
HETATM   17  C   UNL     1     -40.132  51.954 -52.726  1.00  0.00     0.053 A 
HETATM   18 CL   UNL     1     -39.417  50.476 -54.870  1.00  0.00    -0.084 Cl
ENDBRANCH   8  11
ENDBRANCH   6   7
ENDBRANCH   1   6
BRANCH   3  19
HETATM   19  N   UNL     1     -42.535  57.005 -54.419  1.00  0.00    -0.287 N 
HETATM   20  C   UNL     1     -43.881  57.063 -54.630  1.00  0.00     0.326 C 
HETATM   21  N   UNL     1     -44.290  56.875 -55.927  1.00  0.00    -0.309 N 
HETATM   22  O   UNL     1     -44.749  57.159 -53.766  1.00  0.00    -0.247 OA
HETATM   23  H   UNL     1     -45.270  56.624 -55.974  1.00  0.00     0.170 HD
HETATM   24  H   UNL     1     -41.991  56.514 -55.110  1.00  0.00     0.172 HD
BRANCH  21  25
HETATM   25  C   UNL     1     -43.609  57.019 -57.148  1.00  0.00     0.036 A 
HETATM   26  C   UNL     1     -43.242  58.317 -57.528  1.00  0.00     0.032 A 
HETATM   27  C   UNL     1     -42.555  58.536 -58.724  1.00  0.00     0.044 A 
HETATM   28  C   UNL     1     -42.211  57.455 -59.525  1.00  0.00     0.116 A 
HETATM   29  F   UNL     1     -41.545  57.664 -60.667  1.00  0.00    -0.206 F 
HETATM   30  C   UNL     1     -42.536  56.159 -59.146  1.00  0.00     0.044 A 
HETATM   31  C   UNL     1     -43.233  55.938 -57.955  1.00  0.00     0.032 A 
ENDBRANCH  21  25
ENDBRANCH   3  19
TORSDOF 5
ENDMDL
MODEL 10
REMARK VINA RESULT:      -7.6      1.795      2.390
REMARK  5 active torsions:
REMARK  status: ('A' for Active; 'I' for Inactive)
REMARK    1  A    between atoms: C_3  and  N_4 
REMARK       I    between atoms: N_4  and  C_5 
REMARK    2  A    between atoms: C_5  and  C_6 
REMARK    3  A    between atoms: C_6  and  C_7 
REMARK    4  A    between atoms: C_9  and  N_10 
REMARK       I    between atoms: N_10  and  C_11 
REMARK       I    between atoms: C_11  and  N_12 
REMARK    5  A    between atoms: N_12  and  C_13 
ROOT
HETATM    1  C   UNL     1     -42.207  56.692 -52.557  1.00  0.00     0.052 A 
HETATM    2  N   UNL     1     -41.894  56.445 -53.890  1.00  0.00    -0.228 NA
HETATM    3  C   UNL     1     -42.832  56.939 -54.665  1.00  0.00     0.174 A 
HETATM    4  S   UNL     1     -44.093  57.767 -53.877  1.00  0.00    -0.062 SA
HETATM    5  C   UNL     1     -43.376  57.404 -52.363  1.00  0.00     0.081 A 
ENDROOT
BRANCH   1   6
HETATM    6  C   UNL     1     -41.311  56.119 -51.506  1.00  0.00     0.163 C 
BRANCH   6   7
HETATM    7  C   UNL     1     -41.493  54.612 -51.342  1.00  0.00     0.227 C 
HETATM    8  N   UNL     1     -40.332  53.886 -51.522  1.00  0.00    -0.326 N 
HETATM    9  H   UNL     1     -39.484  54.452 -51.494  1.00  0.00     0.169 HD
HETATM   10  O   UNL     1     -42.579  54.165 -50.983  1.00  0.00    -0.273 OA
BRANCH   8  11
HETATM   11  C   UNL     1     -40.121  52.493 -51.618  1.00  0.00     0.042 A 
HETATM   12  C   UNL     1     -40.184  51.553 -50.573  1.00  0.00    -0.035 A 
HETATM   13  C   UNL     1     -40.540  51.869 -49.148  1.00  0.00     0.050 C 
HETATM   14  C   UNL     1     -39.939  50.193 -50.865  1.00  0.00     0.011 A 
HETATM   15  C   UNL     1     -39.690  49.758 -52.166  1.00  0.00     0.024 A 
HETATM   16  C   UNL     1     -39.681  50.683 -53.198  1.00  0.00     0.036 A 
HETATM   17  C   UNL     1     -39.897  52.034 -52.930  1.00  0.00     0.053 A 
HETATM   18 CL   UNL     1     -39.403  50.164 -54.815  1.00  0.00    -0.084 Cl
ENDBRANCH   8  11
ENDBRANCH   6   7
ENDBRANCH   1   6
BRANCH   3  19
HETATM   19  N   UNL     1     -42.750  56.833 -56.028  1.00  0.00    -0.287 N 
HETATM   20  C   UNL     1     -42.665  55.676 -56.745  1.00  0.00     0.326 C 
HETATM   21  N   UNL     1     -42.577  55.824 -58.107  1.00  0.00    -0.309 N 
HETATM   22  O   UNL     1     -42.554  54.542 -56.286  1.00  0.00    -0.247 OA
HETATM   23  H   UNL     1     -42.214  54.987 -58.548  1.00  0.00     0.170 HD
HETATM   24  H   UNL     1     -42.411  57.668 -56.478  1.00  0.00     0.172 HD
BRANCH  21  25
HETATM   25  C   UNL     1     -42.941  56.885 -58.954  1.00  0.00     0.036 A 
HETATM   26  C   UNL     1     -41.909  57.535 -59.645  1.00  0.00     0.032 A 
HETATM   27  C   UNL     1     -42.195  58.593 -60.512  1.00  0.00     0.044 A 
HETATM   28  C   UNL     1     -43.514  58.979 -60.709  1.00  0.00     0.116 A 
HETATM   29  F   UNL     1     -43.789  59.986 -61.547  1.00  0.00    -0.206 F 
HETATM   30  C   UNL     1     -44.551  58.323 -60.060  1.00  0.00     0.044 A 
HETATM   31  C   UNL     1     -44.267  57.272 -59.183  1.00  0.00     0.032 A 
ENDBRANCH  21  25
ENDBRANCH   3  19
TORSDOF 5
ENDMDL
