MODEL 1
REMARK VINA RESULT:      -7.6      0.000      0.000
REMARK  6 active torsions:
REMARK  status: ('A' for Active; 'I' for Inactive)
REMARK    1  A    between atoms: C_2  and  O_3 
REMARK    2  A    between atoms: O_3  and  C_4 
REMARK    3  A    between atoms: C_4  and  C_5 
REMARK    4  A    between atoms: C_6  and  O_7 
REMARK    5  A    between atoms: C_12  and  O_13 
REMARK    6  A    between atoms: C_17  and  C_18 
ROOT
HETATM    1  C   UNL     1     -41.926  54.997 -51.123  1.00  0.00     0.133 C 
HETATM    2  C   UNL     1     -43.448  55.124 -51.462  1.00  0.00     0.073 C 
HETATM    3  C   UNL     1     -44.301  55.467 -50.230  1.00  0.00     0.047 C 
HETATM    4  C   UNL     1     -43.761  56.141 -52.595  1.00  0.00     0.097 C 
HETATM    5  C   UNL     1     -42.738  56.051 -53.665  1.00  0.00     0.042 A 
HETATM    6  C   UNL     1     -41.481  55.492 -53.576  1.00  0.00     0.030 A 
HETATM    7  C   UNL     1     -40.941  55.709 -54.853  1.00  0.00     0.190 A 
HETATM    8  N   UNL     1     -41.761  56.349 -55.678  1.00  0.00    -0.149 NA
HETATM    9  N   UNL     1     -42.867  56.533 -54.936  1.00  0.00    -0.279 N 
HETATM   10  H   UNL     1     -43.660  57.000 -55.362  1.00  0.00     0.189 HD
HETATM   11  C   UNL     1     -40.944  54.879 -52.327  1.00  0.00     0.074 C 
ENDROOT
BRANCH  11  12
HETATM   12  C   UNL     1     -40.551  53.444 -52.661  1.00  0.00    -0.048 A 
HETATM   13  C   UNL     1     -39.746  52.734 -51.750  1.00  0.00     0.009 A 
HETATM   14  C   UNL     1     -39.360  51.415 -52.010  1.00  0.00     0.024 A 
HETATM   15  C   UNL     1     -39.783  50.787 -53.177  1.00  0.00     0.034 A 
HETATM   16 CL   UNL     1     -39.308  49.165 -53.495  1.00  0.00    -0.084 Cl
HETATM   17  C   UNL     1     -40.587  51.465 -54.087  1.00  0.00     0.024 A 
HETATM   18  C   UNL     1     -40.970  52.785 -53.830  1.00  0.00     0.009 A 
ENDBRANCH  11  12
BRANCH   1  19
HETATM   19  C   UNL     1     -41.475  56.139 -50.233  1.00  0.00     0.267 C 
HETATM   20  O   UNL     1     -41.392  57.294 -50.627  1.00  0.00    -0.265 OA
BRANCH  19  21
HETATM   21  O   UNL     1     -41.155  55.719 -48.982  1.00  0.00    -0.321 OA
BRANCH  21  22
HETATM   22  C   UNL     1     -41.165  54.300 -48.766  1.00  0.00     0.174 C 
HETATM   23  C   UNL     1     -40.115  53.914 -47.740  1.00  0.00     0.034 C 
ENDBRANCH  21  22
ENDBRANCH  19  21
ENDBRANCH   1  19
BRANCH   2  24
HETATM   24  O   UNL     1     -43.927  53.835 -51.903  1.00  0.00    -0.389 OA
HETATM   25  H   UNL     1     -43.293  53.473 -52.547  1.00  0.00     0.210 HD
ENDBRANCH   2  24
BRANCH   7  26
HETATM   26  O   UNL     1     -39.751  55.363 -55.346  1.00  0.00    -0.343 OA
HETATM   27  H   UNL     1     -39.369  56.116 -55.819  1.00  0.00     0.219 HD
ENDBRANCH   7  26
TORSDOF 6
ENDMDL
MODEL 2
REMARK VINA RESULT:      -7.6      2.448      4.031
REMARK  6 active torsions:
REMARK  status: ('A' for Active; 'I' for Inactive)
REMARK    1  A    between atoms: C_2  and  O_3 
REMARK    2  A    between atoms: O_3  and  C_4 
REMARK    3  A    between atoms: C_4  and  C_5 
REMARK    4  A    between atoms: C_6  and  O_7 
REMARK    5  A    between atoms: C_12  and  O_13 
REMARK    6  A    between atoms: C_17  and  C_18 
ROOT
HETATM    1  C   UNL     1     -40.746  57.437 -52.514  1.00  0.00     0.133 C 
HETATM    2  C   UNL     1     -41.648  57.627 -51.249  1.00  0.00     0.073 C 
HETATM    3  C   UNL     1     -41.041  58.607 -50.232  1.00  0.00     0.047 C 
HETATM    4  C   UNL     1     -43.104  58.066 -51.570  1.00  0.00     0.097 C 
HETATM    5  C   UNL     1     -43.603  57.356 -52.774  1.00  0.00     0.042 A 
HETATM    6  C   UNL     1     -42.854  56.714 -53.736  1.00  0.00     0.030 A 
HETATM    7  C   UNL     1     -43.822  56.255 -54.643  1.00  0.00     0.190 A 
HETATM    8  N   UNL     1     -45.065  56.574 -54.305  1.00  0.00    -0.149 NA
HETATM    9  N   UNL     1     -44.911  57.234 -53.144  1.00  0.00    -0.279 N 
HETATM   10  H   UNL     1     -45.741  57.575 -52.671  1.00  0.00     0.189 HD
HETATM   11  C   UNL     1     -41.365  56.649 -53.707  1.00  0.00     0.074 C 
ENDROOT
BRANCH  11  12
HETATM   12  C   UNL     1     -40.976  55.174 -53.737  1.00  0.00    -0.048 A 
HETATM   13  C   UNL     1     -40.424  54.644 -54.918  1.00  0.00     0.009 A 
HETATM   14  C   UNL     1     -40.049  53.299 -54.995  1.00  0.00     0.024 A 
HETATM   15  C   UNL     1     -40.213  52.471 -53.889  1.00  0.00     0.034 A 
HETATM   16 CL   UNL     1     -39.752  50.817 -53.984  1.00  0.00    -0.084 Cl
HETATM   17  C   UNL     1     -40.747  52.975 -52.708  1.00  0.00     0.024 A 
HETATM   18  C   UNL     1     -41.125  54.318 -52.632  1.00  0.00     0.009 A 
ENDBRANCH  11  12
BRANCH   1  19
HETATM   19  C   UNL     1     -40.240  58.773 -53.020  1.00  0.00     0.267 C 
HETATM   20  O   UNL     1     -39.305  59.369 -52.502  1.00  0.00    -0.265 OA
BRANCH  19  21
HETATM   21  O   UNL     1     -40.958  59.226 -54.080  1.00  0.00    -0.321 OA
BRANCH  21  22
HETATM   22  C   UNL     1     -41.863  60.309 -53.817  1.00  0.00     0.174 C 
HETATM   23  C   UNL     1     -42.945  60.364 -54.881  1.00  0.00     0.034 C 
ENDBRANCH  21  22
ENDBRANCH  19  21
ENDBRANCH   1  19
BRANCH   2  24
HETATM   24  O   UNL     1     -41.728  56.365 -50.552  1.00  0.00    -0.389 OA
HETATM   25  H   UNL     1     -42.627  56.267 -50.192  1.00  0.00     0.210 HD
ENDBRANCH   2  24
BRANCH   7  26
HETATM   26  O   UNL     1     -43.672  55.550 -55.766  1.00  0.00    -0.343 OA
HETATM   27  H   UNL     1     -42.842  55.804 -56.196  1.00  0.00     0.219 HD
ENDBRANCH   7  26
TORSDOF 6
ENDMDL
MODEL 3
REMARK VINA RESULT:      -7.5      1.718      2.284
REMARK  6 active torsions:
REMARK  status: ('A' for Active; 'I' for Inactive)
REMARK    1  A    between atoms: C_2  and  O_3 
REMARK    2  A    between atoms: O_3  and  C_4 
REMARK    3  A    between atoms: C_4  and  C_5 
REMARK    4  A    between atoms: C_6  and  O_7 
REMARK    5  A    between atoms: C_12  and  O_13 
REMARK    6  A    between atoms: C_17  and  C_18 
ROOT
HETATM    1  C   UNL     1     -41.983  56.237 -51.821  1.00  0.00     0.133 C 
HETATM    2  C   UNL     1     -43.539  56.163 -51.961  1.00  0.00     0.073 C 
HETATM    3  C   UNL     1     -44.266  57.118 -50.999  1.00  0.00     0.047 C 
HETATM    4  C   UNL     1     -44.057  56.408 -53.407  1.00  0.00     0.097 C 
HETATM    5  C   UNL     1     -43.162  55.754 -54.392  1.00  0.00     0.042 A 
HETATM    6  C   UNL     1     -41.866  55.330 -54.192  1.00  0.00     0.030 A 
HETATM    7  C   UNL     1     -41.497  54.822 -55.447  1.00  0.00     0.190 A 
HETATM    8  N   UNL     1     -42.452  54.917 -56.364  1.00  0.00    -0.149 NA
HETATM    9  N   UNL     1     -43.474  55.474 -55.691  1.00  0.00    -0.279 N 
HETATM   10  H   UNL     1     -44.344  55.638 -56.187  1.00  0.00     0.189 HD
HETATM   11  C   UNL     1     -41.143  55.487 -52.898  1.00  0.00     0.074 C 
ENDROOT
BRANCH  11  12
HETATM   12  C   UNL     1     -40.688  54.098 -52.463  1.00  0.00    -0.048 A 
HETATM   13  C   UNL     1     -40.628  53.806 -51.087  1.00  0.00     0.009 A 
HETATM   14  C   UNL     1     -40.219  52.547 -50.637  1.00  0.00     0.024 A 
HETATM   15  C   UNL     1     -39.874  51.561 -51.557  1.00  0.00     0.034 A 
HETATM   16 CL   UNL     1     -39.371  50.013 -51.004  1.00  0.00    -0.084 Cl
HETATM   17  C   UNL     1     -39.936  51.823 -52.922  1.00  0.00     0.024 A 
HETATM   18  C   UNL     1     -40.341  53.084 -53.372  1.00  0.00     0.009 A 
ENDBRANCH  11  12
BRANCH   1  19
HETATM   19  C   UNL     1     -41.516  57.678 -51.752  1.00  0.00     0.267 C 
HETATM   20  O   UNL     1     -41.584  58.444 -52.704  1.00  0.00    -0.265 OA
BRANCH  19  21
HETATM   21  O   UNL     1     -40.999  57.993 -50.537  1.00  0.00    -0.321 OA
BRANCH  21  22
HETATM   22  C   UNL     1     -40.615  59.363 -50.346  1.00  0.00     0.174 C 
HETATM   23  C   UNL     1     -39.118  59.523 -50.539  1.00  0.00     0.034 C 
ENDBRANCH  21  22
ENDBRANCH  19  21
ENDBRANCH   1  19
BRANCH   2  24
HETATM   24  O   UNL     1     -43.971  54.841 -51.573  1.00  0.00    -0.389 OA
HETATM   25  H   UNL     1     -44.629  54.927 -50.862  1.00  0.00     0.210 HD
ENDBRANCH   2  24
BRANCH   7  26
HETATM   26  O   UNL     1     -40.350  54.263 -55.837  1.00  0.00    -0.343 OA
HETATM   27  H   UNL     1     -40.316  53.348 -55.523  1.00  0.00     0.219 HD
ENDBRANCH   7  26
TORSDOF 6
ENDMDL
MODEL 4
REMARK VINA RESULT:      -7.2      3.347      4.051
REMARK  6 active torsions:
REMARK  status: ('A' for Active; 'I' for Inactive)
REMARK    1  A    between atoms: C_2  and  O_3 
REMARK    2  A    between atoms: O_3  and  C_4 
REMARK    3  A    between atoms: C_4  and  C_5 
REMARK    4  A    between atoms: C_6  and  O_7 
REMARK    5  A    between atoms: C_12  and  O_13 
REMARK    6  A    between atoms: C_17  and  C_18 
ROOT
HETATM    1  C   UNL     1     -42.385  57.943 -54.116  1.00  0.00     0.133 C 
HETATM    2  C   UNL     1     -43.906  58.130 -53.804  1.00  0.00     0.073 C 
HETATM    3  C   UNL     1     -44.158  59.152 -52.683  1.00  0.00     0.047 C 
HETATM    4  C   UNL     1     -44.765  58.514 -55.042  1.00  0.00     0.097 C 
HETATM    5  C   UNL     1     -44.310  57.761 -56.237  1.00  0.00     0.042 A 
HETATM    6  C   UNL     1     -43.101  57.123 -56.413  1.00  0.00     0.030 A 
HETATM    7  C   UNL     1     -43.194  56.612 -57.717  1.00  0.00     0.190 A 
HETATM    8  N   UNL     1     -44.341  56.898 -58.322  1.00  0.00    -0.149 NA
HETATM    9  N   UNL     1     -45.020  57.587 -57.390  1.00  0.00    -0.279 N 
HETATM   10  H   UNL     1     -45.955  57.911 -57.616  1.00  0.00     0.189 HD
HETATM   11  C   UNL     1     -42.024  57.108 -55.382  1.00  0.00     0.074 C 
ENDROOT
BRANCH  11  12
HETATM   12  C   UNL     1     -41.704  55.647 -55.083  1.00  0.00    -0.048 A 
HETATM   13  C   UNL     1     -40.357  55.269 -54.926  1.00  0.00     0.009 A 
HETATM   14  C   UNL     1     -40.012  53.943 -54.649  1.00  0.00     0.024 A 
HETATM   15  C   UNL     1     -41.008  52.981 -54.517  1.00  0.00     0.034 A 
HETATM   16 CL   UNL     1     -40.583  51.350 -54.176  1.00  0.00    -0.084 Cl
HETATM   17  C   UNL     1     -42.347  53.333 -54.658  1.00  0.00     0.024 A 
HETATM   18  C   UNL     1     -42.692  54.659 -54.938  1.00  0.00     0.009 A 
ENDBRANCH  11  12
BRANCH   1  19
HETATM   19  C   UNL     1     -41.682  59.284 -54.198  1.00  0.00     0.267 C 
HETATM   20  O   UNL     1     -41.725  59.997 -55.191  1.00  0.00    -0.265 OA
BRANCH  19  21
HETATM   21  O   UNL     1     -40.994  59.572 -53.064  1.00  0.00    -0.321 OA
BRANCH  21  22
HETATM   22  C   UNL     1     -40.513  58.449 -52.310  1.00  0.00     0.174 C 
HETATM   23  C   UNL     1     -40.671  58.705 -50.822  1.00  0.00     0.034 C 
ENDBRANCH  21  22
ENDBRANCH  19  21
ENDBRANCH   1  19
BRANCH   2  24
HETATM   24  O   UNL     1     -44.425  56.882 -53.296  1.00  0.00    -0.389 OA
HETATM   25  H   UNL     1     -44.826  57.045 -52.424  1.00  0.00     0.210 HD
ENDBRANCH   2  24
BRANCH   7  26
HETATM   26  O   UNL     1     -42.316  55.889 -58.414  1.00  0.00    -0.343 OA
HETATM   27  H   UNL     1     -41.551  55.687 -57.856  1.00  0.00     0.219 HD
ENDBRANCH   7  26
TORSDOF 6
ENDMDL
MODEL 5
REMARK VINA RESULT:      -7.0      3.611      5.522
REMARK  6 active torsions:
REMARK  status: ('A' for Active; 'I' for Inactive)
REMARK    1  A    between atoms: C_2  and  O_3 
REMARK    2  A    between atoms: O_3  and  C_4 
REMARK    3  A    between atoms: C_4  and  C_5 
REMARK    4  A    between atoms: C_6  and  O_7 
REMARK    5  A    between atoms: C_12  and  O_13 
REMARK    6  A    between atoms: C_17  and  C_18 
ROOT
HETATM    1  C   UNL     1     -42.260  55.092 -52.900  1.00  0.00     0.133 C 
HETATM    2  C   UNL     1     -43.126  55.234 -51.605  1.00  0.00     0.073 C 
HETATM    3  C   UNL     1     -43.629  53.880 -51.078  1.00  0.00     0.047 C 
HETATM    4  C   UNL     1     -42.417  55.996 -50.450  1.00  0.00     0.097 C 
HETATM    5  C   UNL     1     -41.640  57.140 -50.988  1.00  0.00     0.042 A 
HETATM    6  C   UNL     1     -41.229  57.334 -52.289  1.00  0.00     0.030 A 
HETATM    7  C   UNL     1     -40.518  58.541 -52.224  1.00  0.00     0.190 A 
HETATM    8  N   UNL     1     -40.468  59.069 -51.007  1.00  0.00    -0.149 NA
HETATM    9  N   UNL     1     -41.180  58.203 -50.265  1.00  0.00    -0.279 N 
HETATM   10  H   UNL     1     -41.300  58.401 -49.277  1.00  0.00     0.189 HD
HETATM   11  C   UNL     1     -41.511  56.368 -53.389  1.00  0.00     0.074 C 
ENDROOT
BRANCH  11  12
HETATM   12  C   UNL     1     -42.250  57.133 -54.483  1.00  0.00    -0.048 A 
HETATM   13  C   UNL     1     -42.044  56.761 -55.825  1.00  0.00     0.009 A 
HETATM   14  C   UNL     1     -42.699  57.429 -56.864  1.00  0.00     0.024 A 
HETATM   15  C   UNL     1     -43.576  58.469 -56.573  1.00  0.00     0.034 A 
HETATM   16 CL   UNL     1     -44.382  59.290 -57.851  1.00  0.00    -0.084 Cl
HETATM   17  C   UNL     1     -43.803  58.847 -55.254  1.00  0.00     0.024 A 
HETATM   18  C   UNL     1     -43.145  58.182 -54.216  1.00  0.00     0.009 A 
ENDBRANCH  11  12
BRANCH   1  19
HETATM   19  C   UNL     1     -41.259  53.962 -52.758  1.00  0.00     0.267 C 
HETATM   20  O   UNL     1     -40.363  53.969 -51.925  1.00  0.00    -0.265 OA
BRANCH  19  21
HETATM   21  O   UNL     1     -41.465  52.977 -53.670  1.00  0.00    -0.321 OA
BRANCH  21  22
HETATM   22  C   UNL     1     -40.300  52.498 -54.360  1.00  0.00     0.174 C 
HETATM   23  C   UNL     1     -40.217  50.985 -54.270  1.00  0.00     0.034 C 
ENDBRANCH  21  22
ENDBRANCH  19  21
ENDBRANCH   1  19
BRANCH   2  24
HETATM   24  O   UNL     1     -44.320  55.976 -51.934  1.00  0.00    -0.389 OA
HETATM   25  H   UNL     1     -45.041  55.343 -52.103  1.00  0.00     0.210 HD
ENDBRANCH   2  24
BRANCH   7  26
HETATM   26  O   UNL     1     -39.906  59.224 -53.194  1.00  0.00    -0.343 OA
HETATM   27  H   UNL     1     -40.567  59.701 -53.717  1.00  0.00     0.219 HD
ENDBRANCH   7  26
TORSDOF 6
ENDMDL
MODEL 6
REMARK VINA RESULT:      -6.9      2.664      5.174
REMARK  6 active torsions:
REMARK  status: ('A' for Active; 'I' for Inactive)
REMARK    1  A    between atoms: C_2  and  O_3 
REMARK    2  A    between atoms: O_3  and  C_4 
REMARK    3  A    between atoms: C_4  and  C_5 
REMARK    4  A    between atoms: C_6  and  O_7 
REMARK    5  A    between atoms: C_12  and  O_13 
REMARK    6  A    between atoms: C_17  and  C_18 
ROOT
HETATM    1  C   UNL     1     -42.628  56.740 -54.620  1.00  0.00     0.133 C 
HETATM    2  C   UNL     1     -42.067  57.993 -53.870  1.00  0.00     0.073 C 
HETATM    3  C   UNL     1     -41.822  59.185 -54.809  1.00  0.00     0.047 C 
HETATM    4  C   UNL     1     -42.945  58.461 -52.674  1.00  0.00     0.097 C 
HETATM    5  C   UNL     1     -43.471  57.288 -51.933  1.00  0.00     0.042 A 
HETATM    6  C   UNL     1     -43.559  55.987 -52.378  1.00  0.00     0.030 A 
HETATM    7  C   UNL     1     -44.153  55.317 -51.298  1.00  0.00     0.190 A 
HETATM    8  N   UNL     1     -44.427  56.105 -50.265  1.00  0.00    -0.149 NA
HETATM    9  N   UNL     1     -43.983  57.308 -50.667  1.00  0.00    -0.279 N 
HETATM   10  H   UNL     1     -44.071  58.092 -50.028  1.00  0.00     0.189 HD
HETATM   11  C   UNL     1     -43.126  55.556 -53.739  1.00  0.00     0.074 C 
ENDROOT
BRANCH  11  12
HETATM   12  C   UNL     1     -42.093  54.450 -53.554  1.00  0.00    -0.048 A 
HETATM   13  C   UNL     1     -42.008  53.435 -54.526  1.00  0.00     0.009 A 
HETATM   14  C   UNL     1     -41.076  52.400 -54.404  1.00  0.00     0.024 A 
HETATM   15  C   UNL     1     -40.211  52.372 -53.315  1.00  0.00     0.034 A 
HETATM   16 CL   UNL     1     -39.064  51.099 -53.166  1.00  0.00    -0.084 Cl
HETATM   17  C   UNL     1     -40.269  53.370 -52.348  1.00  0.00     0.024 A 
HETATM   18  C   UNL     1     -41.203  54.403 -52.468  1.00  0.00     0.009 A 
ENDBRANCH  11  12
BRANCH   1  19
HETATM   19  C   UNL     1     -43.734  57.137 -55.578  1.00  0.00     0.267 C 
HETATM   20  O   UNL     1     -44.864  57.424 -55.206  1.00  0.00    -0.265 OA
BRANCH  19  21
HETATM   21  O   UNL     1     -43.327  57.107 -56.873  1.00  0.00    -0.321 OA
BRANCH  21  22
HETATM   22  C   UNL     1     -42.940  55.823 -57.387  1.00  0.00     0.174 C 
HETATM   23  C   UNL     1     -43.524  55.611 -58.772  1.00  0.00     0.034 C 
ENDBRANCH  21  22
ENDBRANCH  19  21
ENDBRANCH   1  19
BRANCH   2  24
HETATM   24  O   UNL     1     -40.766  57.662 -53.337  1.00  0.00    -0.389 OA
HETATM   25  H   UNL     1     -40.090  57.915 -53.991  1.00  0.00     0.210 HD
ENDBRANCH   2  24
BRANCH   7  26
HETATM   26  O   UNL     1     -44.465  54.027 -51.162  1.00  0.00    -0.343 OA
HETATM   27  H   UNL     1     -44.963  53.734 -51.939  1.00  0.00     0.219 HD
ENDBRANCH   7  26
TORSDOF 6
ENDMDL
MODEL 7
REMARK VINA RESULT:      -6.7     14.244     15.665
REMARK  6 active torsions:
REMARK  status: ('A' for Active; 'I' for Inactive)
REMARK    1  A    between atoms: C_2  and  O_3 
REMARK    2  A    between atoms: O_3  and  C_4 
REMARK    3  A    between atoms: C_4  and  C_5 
REMARK    4  A    between atoms: C_6  and  O_7 
REMARK    5  A    between atoms: C_12  and  O_13 
REMARK    6  A    between atoms: C_17  and  C_18 
ROOT
HETATM    1  C   UNL     1     -35.057  40.517 -53.137  1.00  0.00     0.133 C 
HETATM    2  C   UNL     1     -36.475  39.869 -53.002  1.00  0.00     0.073 C 
HETATM    3  C   UNL     1     -36.839  39.539 -51.545  1.00  0.00     0.047 C 
HETATM    4  C   UNL     1     -37.619  40.712 -53.633  1.00  0.00     0.097 C 
HETATM    5  C   UNL     1     -37.167  41.321 -54.908  1.00  0.00     0.042 A 
HETATM    6  C   UNL     1     -35.869  41.501 -55.335  1.00  0.00     0.030 A 
HETATM    7  C   UNL     1     -36.024  42.141 -56.574  1.00  0.00     0.190 A 
HETATM    8  N   UNL     1     -37.290  42.359 -56.908  1.00  0.00    -0.149 NA
HETATM    9  N   UNL     1     -37.977  41.830 -55.881  1.00  0.00    -0.279 N 
HETATM   10  H   UNL     1     -38.991  41.863 -55.913  1.00  0.00     0.189 HD
HETATM   11  C   UNL     1     -34.679  41.099 -54.532  1.00  0.00     0.074 C 
ENDROOT
BRANCH  11  12
HETATM   12  C   UNL     1     -33.854  40.147 -55.391  1.00  0.00    -0.048 A 
HETATM   13  C   UNL     1     -32.468  40.370 -55.507  1.00  0.00     0.009 A 
HETATM   14  C   UNL     1     -31.668  39.524 -56.282  1.00  0.00     0.024 A 
HETATM   15  C   UNL     1     -32.240  38.441 -56.940  1.00  0.00     0.034 A 
HETATM   16 CL   UNL     1     -31.256  37.401 -57.892  1.00  0.00    -0.084 Cl
HETATM   17  C   UNL     1     -33.605  38.194 -56.831  1.00  0.00     0.024 A 
HETATM   18  C   UNL     1     -34.406  39.042 -56.061  1.00  0.00     0.009 A 
ENDBRANCH  11  12
BRANCH   1  19
HETATM   19  C   UNL     1     -34.855  41.592 -52.086  1.00  0.00     0.267 C 
HETATM   20  O   UNL     1     -35.301  42.725 -52.202  1.00  0.00    -0.265 OA
BRANCH  19  21
HETATM   21  O   UNL     1     -34.109  41.153 -51.040  1.00  0.00    -0.321 OA
BRANCH  21  22
HETATM   22  C   UNL     1     -33.171  40.105 -51.325  1.00  0.00     0.174 C 
HETATM   23  C   UNL     1     -31.855  40.690 -51.804  1.00  0.00     0.034 C 
ENDBRANCH  21  22
ENDBRANCH  19  21
ENDBRANCH   1  19
BRANCH   2  24
HETATM   24  O   UNL     1     -36.461  38.595 -53.682  1.00  0.00    -0.389 OA
HETATM   25  H   UNL     1     -36.042  37.937 -53.099  1.00  0.00     0.210 HD
ENDBRANCH   2  24
BRANCH   7  26
HETATM   26  O   UNL     1     -35.100  42.544 -57.448  1.00  0.00    -0.343 OA
HETATM   27  H   UNL     1     -34.406  41.872 -57.514  1.00  0.00     0.219 HD
ENDBRANCH   7  26
TORSDOF 6
ENDMDL
MODEL 8
REMARK VINA RESULT:      -6.5      4.614      6.499
REMARK  6 active torsions:
REMARK  status: ('A' for Active; 'I' for Inactive)
REMARK    1  A    between atoms: C_2  and  O_3 
REMARK    2  A    between atoms: O_3  and  C_4 
REMARK    3  A    between atoms: C_4  and  C_5 
REMARK    4  A    between atoms: C_6  and  O_7 
REMARK    5  A    between atoms: C_12  and  O_13 
REMARK    6  A    between atoms: C_17  and  C_18 
ROOT
HETATM    1  C   UNL     1     -42.951  55.855 -55.632  1.00  0.00     0.133 C 
HETATM    2  C   UNL     1     -43.561  56.674 -54.446  1.00  0.00     0.073 C 
HETATM    3  C   UNL     1     -43.630  55.864 -53.141  1.00  0.00     0.047 C 
HETATM    4  C   UNL     1     -42.836  58.022 -54.169  1.00  0.00     0.097 C 
HETATM    5  C   UNL     1     -42.460  58.677 -55.446  1.00  0.00     0.042 A 
HETATM    6  C   UNL     1     -42.362  58.090 -56.689  1.00  0.00     0.030 A 
HETATM    7  C   UNL     1     -41.946  59.148 -57.511  1.00  0.00     0.190 A 
HETATM    8  N   UNL     1     -41.786  60.297 -56.865  1.00  0.00    -0.149 NA
HETATM    9  N   UNL     1     -42.125  59.991 -55.601  1.00  0.00    -0.279 N 
HETATM   10  H   UNL     1     -42.095  60.727 -54.903  1.00  0.00     0.189 HD
HETATM   11  C   UNL     1     -42.622  56.643 -56.935  1.00  0.00     0.074 C 
ENDROOT
BRANCH  11  12
HETATM   12  C   UNL     1     -43.712  56.554 -57.998  1.00  0.00    -0.048 A 
HETATM   13  C   UNL     1     -43.672  55.491 -58.920  1.00  0.00     0.009 A 
HETATM   14  C   UNL     1     -44.649  55.364 -59.912  1.00  0.00     0.024 A 
HETATM   15  C   UNL     1     -45.683  56.291 -59.988  1.00  0.00     0.034 A 
HETATM   16 CL   UNL     1     -46.885  56.135 -61.208  1.00  0.00    -0.084 Cl
HETATM   17  C   UNL     1     -45.749  57.344 -59.081  1.00  0.00     0.024 A 
HETATM   18  C   UNL     1     -44.770  57.474 -58.092  1.00  0.00     0.009 A 
ENDBRANCH  11  12
BRANCH   1  19
HETATM   19  C   UNL     1     -41.710  55.106 -55.186  1.00  0.00     0.267 C 
HETATM   20  O   UNL     1     -40.653  55.665 -54.929  1.00  0.00    -0.265 OA
BRANCH  19  21
HETATM   21  O   UNL     1     -41.912  53.764 -55.138  1.00  0.00    -0.321 OA
BRANCH  21  22
HETATM   22  C   UNL     1     -41.456  53.096 -53.951  1.00  0.00     0.174 C 
HETATM   23  C   UNL     1     -40.314  52.152 -54.282  1.00  0.00     0.034 C 
ENDBRANCH  21  22
ENDBRANCH  19  21
ENDBRANCH   1  19
BRANCH   2  24
HETATM   24  O   UNL     1     -44.934  56.987 -54.766  1.00  0.00    -0.389 OA
HETATM   25  H   UNL     1     -45.073  56.834 -55.718  1.00  0.00     0.210 HD
ENDBRANCH   2  24
BRANCH   7  26
HETATM   26  O   UNL     1     -41.705  59.165 -58.823  1.00  0.00    -0.343 OA
HETATM   27  H   UNL     1     -42.497  59.468 -59.292  1.00  0.00     0.219 HD
ENDBRANCH   7  26
TORSDOF 6
ENDMDL
MODEL 9
REMARK VINA RESULT:      -6.5      3.057      5.584
REMARK  6 active torsions:
REMARK  status: ('A' for Active; 'I' for Inactive)
REMARK    1  A    between atoms: C_2  and  O_3 
REMARK    2  A    between atoms: O_3  and  C_4 
REMARK    3  A    between atoms: C_4  and  C_5 
REMARK    4  A    between atoms: C_6  and  O_7 
REMARK    5  A    between atoms: C_12  and  O_13 
REMARK    6  A    between atoms: C_17  and  C_18 
ROOT
HETATM    1  C   UNL     1     -42.926  57.357 -54.663  1.00  0.00     0.133 C 
HETATM    2  C   UNL     1     -42.339  58.748 -54.253  1.00  0.00     0.073 C 
HETATM    3  C   UNL     1     -42.046  59.647 -55.465  1.00  0.00     0.047 C 
HETATM    4  C   UNL     1     -43.220  59.533 -53.240  1.00  0.00     0.097 C 
HETATM    5  C   UNL     1     -43.792  58.609 -52.230  1.00  0.00     0.042 A 
HETATM    6  C   UNL     1     -43.911  57.239 -52.323  1.00  0.00     0.030 A 
HETATM    7  C   UNL     1     -44.539  56.889 -51.118  1.00  0.00     0.190 A 
HETATM    8  N   UNL     1     -44.805  57.926 -50.332  1.00  0.00    -0.149 NA
HETATM    9  N   UNL     1     -44.320  58.971 -51.024  1.00  0.00    -0.279 N 
HETATM   10  H   UNL     1     -44.394  59.896 -50.614  1.00  0.00     0.189 HD
HETATM   11  C   UNL     1     -43.472  56.457 -53.514  1.00  0.00     0.074 C 
ENDROOT
BRANCH  11  12
HETATM   12  C   UNL     1     -42.474  55.412 -53.026  1.00  0.00    -0.048 A 
HETATM   13  C   UNL     1     -42.351  54.208 -53.744  1.00  0.00     0.009 A 
HETATM   14  C   UNL     1     -41.449  53.219 -53.339  1.00  0.00     0.024 A 
HETATM   15  C   UNL     1     -40.653  53.426 -52.217  1.00  0.00     0.034 A 
HETATM   16 CL   UNL     1     -39.544  52.210 -51.719  1.00  0.00    -0.084 Cl
HETATM   17  C   UNL     1     -40.750  54.613 -51.497  1.00  0.00     0.024 A 
HETATM   18  C   UNL     1     -41.654  55.600 -51.900  1.00  0.00     0.009 A 
ENDBRANCH  11  12
BRANCH   1  19
HETATM   19  C   UNL     1     -44.007  57.517 -55.714  1.00  0.00     0.267 C 
HETATM   20  O   UNL     1     -45.172  57.767 -55.437  1.00  0.00    -0.265 OA
BRANCH  19  21
HETATM   21  O   UNL     1     -43.532  57.325 -56.972  1.00  0.00    -0.321 OA
BRANCH  21  22
HETATM   22  C   UNL     1     -43.049  56.007 -57.274  1.00  0.00     0.174 C 
HETATM   23  C   UNL     1     -43.067  55.769 -58.773  1.00  0.00     0.034 C 
ENDBRANCH  21  22
ENDBRANCH  19  21
ENDBRANCH   1  19
BRANCH   2  24
HETATM   24  O   UNL     1     -41.057  58.535 -53.625  1.00  0.00    -0.389 OA
HETATM   25  H   UNL     1     -40.388  58.411 -54.322  1.00  0.00     0.210 HD
ENDBRANCH   2  24
BRANCH   7  26
HETATM   26  O   UNL     1     -44.891  55.687 -50.657  1.00  0.00    -0.343 OA
HETATM   27  H   UNL     1     -45.387  55.214 -51.341  1.00  0.00     0.219 HD
ENDBRANCH   7  26
TORSDOF 6
ENDMDL
MODEL 10
REMARK VINA RESULT:      -6.5     14.031     15.869
REMARK  6 active torsions:
REMARK  status: ('A' for Active; 'I' for Inactive)
REMARK    1  A    between atoms: C_2  and  O_3 
REMARK    2  A    between atoms: O_3  and  C_4 
REMARK    3  A    between atoms: C_4  and  C_5 
REMARK    4  A    between atoms: C_6  and  O_7 
REMARK    5  A    between atoms: C_12  and  O_13 
REMARK    6  A    between atoms: C_17  and  C_18 
ROOT
HETATM    1  C   UNL     1     -36.844  40.891 -53.770  1.00  0.00     0.133 C 
HETATM    2  C   UNL     1     -35.380  41.044 -53.240  1.00  0.00     0.073 C 
HETATM    3  C   UNL     1     -35.306  41.849 -51.932  1.00  0.00     0.047 C 
HETATM    4  C   UNL     1     -34.631  39.695 -53.049  1.00  0.00     0.097 C 
HETATM    5  C   UNL     1     -34.957  38.764 -54.158  1.00  0.00     0.042 A 
HETATM    6  C   UNL     1     -36.027  38.837 -55.024  1.00  0.00     0.030 A 
HETATM    7  C   UNL     1     -35.862  37.703 -55.834  1.00  0.00     0.190 A 
HETATM    8  N   UNL     1     -34.800  36.971 -55.519  1.00  0.00    -0.149 NA
HETATM    9  N   UNL     1     -34.247  37.650 -54.499  1.00  0.00    -0.279 N 
HETATM   10  H   UNL     1     -33.394  37.287 -54.086  1.00  0.00     0.189 HD
HETATM   11  C   UNL     1     -37.063  39.906 -54.958  1.00  0.00     0.074 C 
ENDROOT
BRANCH  11  12
HETATM   12  C   UNL     1     -37.097  40.588 -56.322  1.00  0.00    -0.048 A 
HETATM   13  C   UNL     1     -38.186  40.334 -57.177  1.00  0.00     0.009 A 
HETATM   14  C   UNL     1     -38.265  40.936 -58.437  1.00  0.00     0.024 A 
HETATM   15  C   UNL     1     -37.262  41.806 -58.852  1.00  0.00     0.034 A 
HETATM   16 CL   UNL     1     -37.359  42.546 -60.401  1.00  0.00    -0.084 Cl
HETATM   17  C   UNL     1     -36.181  42.079 -58.020  1.00  0.00     0.024 A 
HETATM   18  C   UNL     1     -36.100  41.475 -56.762  1.00  0.00     0.009 A 
ENDBRANCH  11  12
BRANCH   1  19
HETATM   19  C   UNL     1     -37.788  40.517 -52.644  1.00  0.00     0.267 C 
HETATM   20  O   UNL     1     -37.729  39.445 -52.056  1.00  0.00    -0.265 OA
BRANCH  19  21
HETATM   21  O   UNL     1     -38.703  41.489 -52.397  1.00  0.00    -0.321 OA
BRANCH  21  22
HETATM   22  C   UNL     1     -40.079  41.133 -52.600  1.00  0.00     0.174 C 
HETATM   23  C   UNL     1     -40.527  41.533 -53.994  1.00  0.00     0.034 C 
ENDBRANCH  21  22
ENDBRANCH  19  21
ENDBRANCH   1  19
BRANCH   2  24
HETATM   24  O   UNL     1     -34.626  41.817 -54.198  1.00  0.00    -0.389 OA
HETATM   25  H   UNL     1     -35.172  41.940 -54.995  1.00  0.00     0.210 HD
ENDBRANCH   2  24
BRANCH   7  26
HETATM   26  O   UNL     1     -36.599  37.272 -56.859  1.00  0.00    -0.343 OA
HETATM   27  H   UNL     1     -36.894  38.031 -57.383  1.00  0.00     0.219 HD
ENDBRANCH   7  26
TORSDOF 6
ENDMDL
