MODEL 1
REMARK VINA RESULT:      -9.1      0.000      0.000
REMARK  8 active torsions:
REMARK  status: ('A' for Active; 'I' for Inactive)
REMARK    1  A    between atoms: O_2  and  C_3 
REMARK    2  A    between atoms: C_3  and  C_4 
REMARK    3  A    between atoms: C_7  and  C_8 
REMARK    4  A    between atoms: C_8  and  N_9 
REMARK    5  A    between atoms: C_18  and  C_19 
REMARK    6  A    between atoms: C_19  and  N_20 
REMARK    7  A    between atoms: C_24  and  O_25 
REMARK    8  A    between atoms: C_24  and  C_26 
ROOT
HETATM    1  N   UNL     1     -40.861  58.026 -52.003  1.00  0.00    -0.061 N 
HETATM    2  H   UNL     1     -39.980  57.516 -51.869  1.00  0.00     0.280 HD
HETATM    3  C   UNL     1     -40.541  59.057 -53.064  1.00  0.00     0.276 C 
HETATM    4  C   UNL     1     -41.713  59.836 -53.588  1.00  0.00     0.002 A 
HETATM    5  C   UNL     1     -42.474  60.632 -52.731  1.00  0.00     0.076 A 
HETATM    6  O   UNL     1     -42.137  60.773 -51.415  1.00  0.00    -0.349 OA
HETATM    7  C   UNL     1     -42.378  59.581 -50.658  1.00  0.00     0.203 C 
HETATM    8  C   UNL     1     -41.154  58.657 -50.649  1.00  0.00     0.262 C 
HETATM    9  C   UNL     1     -42.032  59.833 -54.959  1.00  0.00     0.020 A 
HETATM   10  C   UNL     1     -43.102  60.598 -55.467  1.00  0.00    -0.032 A 
HETATM   11  C   UNL     1     -43.863  61.362 -54.573  1.00  0.00     0.011 A 
HETATM   12  C   UNL     1     -43.534  61.396 -53.215  1.00  0.00     0.038 A 
ENDROOT
BRANCH  10  13
HETATM   13  C   UNL     1     -43.407  60.590 -56.948  1.00  0.00     0.273 C 
BRANCH  13  14
HETATM   14  N   UNL     1     -42.645  59.564 -57.772  1.00  0.00    -0.067 N 
HETATM   15  H   UNL     1     -41.645  59.743 -57.609  1.00  0.00     0.280 HD
HETATM   16  C   UNL     1     -42.915  58.136 -57.355  1.00  0.00     0.238 C 
HETATM   17  C   UNL     1     -42.082  57.193 -58.204  1.00  0.00     0.071 C 
HETATM   18  C   UNL     1     -42.430  57.315 -59.701  1.00  0.00     0.089 C 
HETATM   19  C   UNL     1     -42.144  58.778 -60.096  1.00  0.00     0.071 C 
HETATM   20  C   UNL     1     -42.905  59.787 -59.248  1.00  0.00     0.238 C 
BRANCH  18  21
HETATM   21  O   UNL     1     -41.475  56.519 -60.402  1.00  0.00    -0.385 OA
HETATM   22  H   UNL     1     -41.612  55.573 -60.203  1.00  0.00     0.211 HD
ENDBRANCH  18  21
BRANCH  18  23
HETATM   23  C   UNL     1     -43.823  56.786 -60.022  1.00  0.00    -0.006 A 
HETATM   24  C   UNL     1     -44.916  57.611 -60.273  1.00  0.00     0.126 A 
HETATM   25  N   UNL     1     -46.177  57.176 -60.483  1.00  0.00    -0.272 NA
HETATM   26  C   UNL     1     -46.373  55.843 -60.537  1.00  0.00     0.116 A 
HETATM   27  C   UNL     1     -45.355  54.926 -60.370  1.00  0.00     0.020 A 
HETATM   28  C   UNL     1     -44.071  55.405 -60.116  1.00  0.00     0.013 A 
ENDBRANCH  18  23
ENDBRANCH  13  14
ENDBRANCH  10  13
BRANCH   1  29
HETATM   29  C   UNL     1     -41.869  56.961 -52.386  1.00  0.00     0.273 C 
BRANCH  29  30
HETATM   30  C   UNL     1     -41.311  55.568 -52.539  1.00  0.00    -0.033 A 
HETATM   31  C   UNL     1     -41.003  55.034 -53.798  1.00  0.00     0.010 A 
HETATM   32  C   UNL     1     -40.511  53.729 -53.910  1.00  0.00     0.018 A 
HETATM   33  C   UNL     1     -40.300  52.944 -52.769  1.00  0.00     0.039 A 
HETATM   34  C   UNL     1     -40.572  53.486 -51.508  1.00  0.00     0.018 A 
HETATM   35  C   UNL     1     -41.070  54.786 -51.395  1.00  0.00     0.010 A 
BRANCH  33  36
HETATM   36  C   UNL     1     -39.797  51.554 -52.951  1.00  0.00     0.292 C 
HETATM   37  O   UNL     1     -39.414  50.862 -52.024  1.00  0.00    -0.259 OA
BRANCH  36  38
HETATM   38  O   UNL     1     -39.796  51.215 -54.264  1.00  0.00    -0.323 OA
HETATM   39  C   UNL     1     -39.799  49.803 -54.496  1.00  0.00     0.213 C 
ENDBRANCH  36  38
ENDBRANCH  33  36
ENDBRANCH  29  30
ENDBRANCH   1  29
TORSDOF 8
ENDMDL
MODEL 2
REMARK VINA RESULT:      -8.8      1.868      2.403
REMARK  8 active torsions:
REMARK  status: ('A' for Active; 'I' for Inactive)
REMARK    1  A    between atoms: O_2  and  C_3 
REMARK    2  A    between atoms: C_3  and  C_4 
REMARK    3  A    between atoms: C_7  and  C_8 
REMARK    4  A    between atoms: C_8  and  N_9 
REMARK    5  A    between atoms: C_18  and  C_19 
REMARK    6  A    between atoms: C_19  and  N_20 
REMARK    7  A    between atoms: C_24  and  O_25 
REMARK    8  A    between atoms: C_24  and  C_26 
ROOT
HETATM    1  N   UNL     1     -40.664  58.030 -51.184  1.00  0.00    -0.061 N 
HETATM    2  H   UNL     1     -39.718  57.635 -51.238  1.00  0.00     0.280 HD
HETATM    3  C   UNL     1     -40.966  58.479 -52.597  1.00  0.00     0.276 C 
HETATM    4  C   UNL     1     -42.374  58.939 -52.847  1.00  0.00     0.002 A 
HETATM    5  C   UNL     1     -42.894  60.033 -52.154  1.00  0.00     0.076 A 
HETATM    6  O   UNL     1     -42.121  60.748 -51.283  1.00  0.00    -0.349 OA
HETATM    7  C   UNL     1     -41.831  60.020 -50.085  1.00  0.00     0.203 C 
HETATM    8  C   UNL     1     -40.543  59.200 -50.216  1.00  0.00     0.262 C 
HETATM    9  C   UNL     1     -43.176  58.323 -53.826  1.00  0.00     0.020 A 
HETATM   10  C   UNL     1     -44.482  58.778 -54.100  1.00  0.00    -0.032 A 
HETATM   11  C   UNL     1     -44.982  59.860 -53.364  1.00  0.00     0.011 A 
HETATM   12  C   UNL     1     -44.181  60.498 -52.412  1.00  0.00     0.038 A 
ENDROOT
BRANCH  10  13
HETATM   13  C   UNL     1     -45.312  58.108 -55.172  1.00  0.00     0.273 C 
BRANCH  13  14
HETATM   14  N   UNL     1     -45.400  58.852 -56.495  1.00  0.00    -0.067 N 
HETATM   15  H   UNL     1     -45.463  59.852 -56.266  1.00  0.00     0.280 HD
HETATM   16  C   UNL     1     -44.180  58.672 -57.369  1.00  0.00     0.238 C 
HETATM   17  C   UNL     1     -44.345  59.480 -58.644  1.00  0.00     0.071 C 
HETATM   18  C   UNL     1     -45.571  59.020 -59.457  1.00  0.00     0.089 C 
HETATM   19  C   UNL     1     -46.798  59.215 -58.541  1.00  0.00     0.071 C 
HETATM   20  C   UNL     1     -46.680  58.476 -57.216  1.00  0.00     0.238 C 
BRANCH  18  21
HETATM   21  O   UNL     1     -45.719  59.955 -60.525  1.00  0.00    -0.385 OA
HETATM   22  H   UNL     1     -46.360  59.619 -61.182  1.00  0.00     0.211 HD
ENDBRANCH  18  21
BRANCH  18  23
HETATM   23  C   UNL     1     -45.388  57.631 -60.056  1.00  0.00    -0.006 A 
HETATM   24  C   UNL     1     -44.141  57.065 -60.311  1.00  0.00     0.126 A 
HETATM   25  N   UNL     1     -43.945  55.872 -60.912  1.00  0.00    -0.272 NA
HETATM   26  C   UNL     1     -45.038  55.140 -61.210  1.00  0.00     0.116 A 
HETATM   27  C   UNL     1     -46.323  55.566 -60.944  1.00  0.00     0.020 A 
HETATM   28  C   UNL     1     -46.495  56.819 -60.359  1.00  0.00     0.013 A 
ENDBRANCH  18  23
ENDBRANCH  13  14
ENDBRANCH  10  13
BRANCH   1  29
HETATM   29  C   UNL     1     -41.521  56.904 -50.640  1.00  0.00     0.273 C 
BRANCH  29  30
HETATM   30  C   UNL     1     -41.064  55.512 -51.000  1.00  0.00    -0.033 A 
HETATM   31  C   UNL     1     -40.262  54.756 -50.133  1.00  0.00     0.010 A 
HETATM   32  C   UNL     1     -39.832  53.478 -50.506  1.00  0.00     0.018 A 
HETATM   33  C   UNL     1     -40.210  52.926 -51.736  1.00  0.00     0.039 A 
HETATM   34  C   UNL     1     -41.041  53.663 -52.588  1.00  0.00     0.018 A 
HETATM   35  C   UNL     1     -41.465  54.942 -52.220  1.00  0.00     0.010 A 
BRANCH  33  36
HETATM   36  C   UNL     1     -39.704  51.570 -52.089  1.00  0.00     0.292 C 
HETATM   37  O   UNL     1     -39.555  50.684 -51.265  1.00  0.00    -0.259 OA
BRANCH  36  38
HETATM   38  O   UNL     1     -39.410  51.500 -53.410  1.00  0.00    -0.323 OA
HETATM   39  C   UNL     1     -39.664  50.217 -53.991  1.00  0.00     0.213 C 
ENDBRANCH  36  38
ENDBRANCH  33  36
ENDBRANCH  29  30
ENDBRANCH   1  29
TORSDOF 8
ENDMDL
MODEL 3
REMARK VINA RESULT:      -8.7      2.362      7.905
REMARK  8 active torsions:
REMARK  status: ('A' for Active; 'I' for Inactive)
REMARK    1  A    between atoms: O_2  and  C_3 
REMARK    2  A    between atoms: C_3  and  C_4 
REMARK    3  A    between atoms: C_7  and  C_8 
REMARK    4  A    between atoms: C_8  and  N_9 
REMARK    5  A    between atoms: C_18  and  C_19 
REMARK    6  A    between atoms: C_19  and  N_20 
REMARK    7  A    between atoms: C_24  and  O_25 
REMARK    8  A    between atoms: C_24  and  C_26 
ROOT
HETATM    1  N   UNL     1     -43.221  60.853 -57.932  1.00  0.00    -0.061 N 
HETATM    2  H   UNL     1     -42.770  61.676 -57.517  1.00  0.00     0.280 HD
HETATM    3  C   UNL     1     -42.187  59.755 -57.811  1.00  0.00     0.276 C 
HETATM    4  C   UNL     1     -42.654  58.376 -58.185  1.00  0.00     0.002 A 
HETATM    5  C   UNL     1     -43.107  58.109 -59.477  1.00  0.00     0.076 A 
HETATM    6  O   UNL     1     -43.077  59.071 -60.447  1.00  0.00    -0.349 OA
HETATM    7  C   UNL     1     -44.050  60.099 -60.229  1.00  0.00     0.203 C 
HETATM    8  C   UNL     1     -43.486  61.244 -59.380  1.00  0.00     0.262 C 
HETATM    9  C   UNL     1     -42.587  57.313 -57.265  1.00  0.00     0.020 A 
HETATM   10  C   UNL     1     -42.979  56.007 -57.621  1.00  0.00    -0.032 A 
HETATM   11  C   UNL     1     -43.457  55.781 -58.919  1.00  0.00     0.011 A 
HETATM   12  C   UNL     1     -43.497  56.825 -59.848  1.00  0.00     0.038 A 
ENDROOT
BRANCH  10  13
HETATM   13  C   UNL     1     -42.877  54.881 -56.618  1.00  0.00     0.273 C 
BRANCH  13  14
HETATM   14  N   UNL     1     -42.657  55.304 -55.174  1.00  0.00    -0.067 N 
HETATM   15  H   UNL     1     -43.132  56.210 -55.059  1.00  0.00     0.280 HD
HETATM   16  C   UNL     1     -43.267  54.353 -54.168  1.00  0.00     0.238 C 
HETATM   17  C   UNL     1     -43.031  54.880 -52.765  1.00  0.00     0.071 C 
HETATM   18  C   UNL     1     -41.528  54.997 -52.443  1.00  0.00     0.089 C 
HETATM   19  C   UNL     1     -40.935  55.971 -53.482  1.00  0.00     0.071 C 
HETATM   20  C   UNL     1     -41.181  55.536 -54.920  1.00  0.00     0.238 C 
BRANCH  18  21
HETATM   21  O   UNL     1     -41.436  55.657 -51.181  1.00  0.00    -0.385 OA
HETATM   22  H   UNL     1     -42.288  55.601 -50.707  1.00  0.00     0.211 HD
ENDBRANCH  18  21
BRANCH  18  23
HETATM   23  C   UNL     1     -40.848  53.638 -52.324  1.00  0.00    -0.006 A 
HETATM   24  C   UNL     1     -40.615  53.002 -51.107  1.00  0.00     0.126 A 
HETATM   25  N   UNL     1     -39.947  51.837 -50.962  1.00  0.00    -0.272 NA
HETATM   26  C   UNL     1     -39.553  51.204 -52.085  1.00  0.00     0.116 A 
HETATM   27  C   UNL     1     -39.786  51.703 -53.351  1.00  0.00     0.020 A 
HETATM   28  C   UNL     1     -40.443  52.926 -53.467  1.00  0.00     0.013 A 
ENDBRANCH  18  23
ENDBRANCH  13  14
ENDBRANCH  10  13
BRANCH   1  29
HETATM   29  C   UNL     1     -44.494  60.666 -57.131  1.00  0.00     0.273 C 
BRANCH  29  30
HETATM   30  C   UNL     1     -44.309  60.105 -55.744  1.00  0.00    -0.033 A 
HETATM   31  C   UNL     1     -43.525  60.761 -54.785  1.00  0.00     0.010 A 
HETATM   32  C   UNL     1     -43.351  60.203 -53.514  1.00  0.00     0.018 A 
HETATM   33  C   UNL     1     -43.970  58.994 -53.173  1.00  0.00     0.039 A 
HETATM   34  C   UNL     1     -44.784  58.354 -54.115  1.00  0.00     0.018 A 
HETATM   35  C   UNL     1     -44.953  58.908 -55.387  1.00  0.00     0.010 A 
BRANCH  33  36
HETATM   36  C   UNL     1     -43.730  58.435 -51.813  1.00  0.00     0.292 C 
HETATM   37  O   UNL     1     -42.616  58.302 -51.339  1.00  0.00    -0.259 OA
BRANCH  36  38
HETATM   38  O   UNL     1     -44.901  58.077 -51.231  1.00  0.00    -0.323 OA
HETATM   39  C   UNL     1     -45.578  59.158 -50.581  1.00  0.00     0.213 C 
ENDBRANCH  36  38
ENDBRANCH  33  36
ENDBRANCH  29  30
ENDBRANCH   1  29
TORSDOF 8
ENDMDL
MODEL 4
REMARK VINA RESULT:      -8.6      2.332      7.072
REMARK  8 active torsions:
REMARK  status: ('A' for Active; 'I' for Inactive)
REMARK    1  A    between atoms: O_2  and  C_3 
REMARK    2  A    between atoms: C_3  and  C_4 
REMARK    3  A    between atoms: C_7  and  C_8 
REMARK    4  A    between atoms: C_8  and  N_9 
REMARK    5  A    between atoms: C_18  and  C_19 
REMARK    6  A    between atoms: C_19  and  N_20 
REMARK    7  A    between atoms: C_24  and  O_25 
REMARK    8  A    between atoms: C_24  and  C_26 
ROOT
HETATM    1  N   UNL     1     -44.824  61.821 -55.577  1.00  0.00    -0.061 N 
HETATM    2  H   UNL     1     -45.359  62.008 -56.432  1.00  0.00     0.280 HD
HETATM    3  C   UNL     1     -45.585  60.706 -54.893  1.00  0.00     0.276 C 
HETATM    4  C   UNL     1     -44.918  60.106 -53.688  1.00  0.00     0.002 A 
HETATM    5  C   UNL     1     -44.632  60.893 -52.572  1.00  0.00     0.076 A 
HETATM    6  O   UNL     1     -45.007  62.206 -52.520  1.00  0.00    -0.349 OA
HETATM    7  C   UNL     1     -44.237  63.030 -53.403  1.00  0.00     0.203 C 
HETATM    8  C   UNL     1     -44.876  63.126 -54.793  1.00  0.00     0.262 C 
HETATM    9  C   UNL     1     -44.624  58.731 -53.631  1.00  0.00     0.020 A 
HETATM   10  C   UNL     1     -44.040  58.150 -52.487  1.00  0.00    -0.032 A 
HETATM   11  C   UNL     1     -43.739  58.976 -51.395  1.00  0.00     0.011 A 
HETATM   12  C   UNL     1     -44.057  60.337 -51.431  1.00  0.00     0.038 A 
ENDROOT
BRANCH  10  13
HETATM   13  C   UNL     1     -43.755  56.666 -52.447  1.00  0.00     0.273 C 
BRANCH  13  14
HETATM   14  N   UNL     1     -42.850  56.140 -53.550  1.00  0.00    -0.067 N 
HETATM   15  H   UNL     1     -42.983  56.762 -54.359  1.00  0.00     0.280 HD
HETATM   16  C   UNL     1     -41.381  56.183 -53.195  1.00  0.00     0.238 C 
HETATM   17  C   UNL     1     -40.560  55.679 -54.368  1.00  0.00     0.071 C 
HETATM   18  C   UNL     1     -40.910  54.221 -54.725  1.00  0.00     0.089 C 
HETATM   19  C   UNL     1     -42.411  54.209 -55.083  1.00  0.00     0.071 C 
HETATM   20  C   UNL     1     -43.296  54.754 -53.971  1.00  0.00     0.238 C 
BRANCH  18  21
HETATM   21  O   UNL     1     -40.210  53.923 -55.933  1.00  0.00    -0.385 OA
HETATM   22  H   UNL     1     -39.322  54.328 -55.918  1.00  0.00     0.211 HD
ENDBRANCH  18  21
BRANCH  18  23
HETATM   23  C   UNL     1     -40.461  53.233 -53.654  1.00  0.00    -0.006 A 
HETATM   24  C   UNL     1     -40.416  53.542 -52.297  1.00  0.00     0.126 A 
HETATM   25  N   UNL     1     -39.950  52.717 -51.335  1.00  0.00    -0.272 NA
HETATM   26  C   UNL     1     -39.581  51.475 -51.707  1.00  0.00     0.116 A 
HETATM   27  C   UNL     1     -39.644  51.031 -53.012  1.00  0.00     0.020 A 
HETATM   28  C   UNL     1     -40.092  51.918 -53.989  1.00  0.00     0.013 A 
ENDBRANCH  18  23
ENDBRANCH  13  14
ENDBRANCH  10  13
BRANCH   1  29
HETATM   29  C   UNL     1     -43.428  61.482 -56.061  1.00  0.00     0.273 C 
BRANCH  29  30
HETATM   30  C   UNL     1     -43.325  60.246 -56.919  1.00  0.00    -0.033 A 
HETATM   31  C   UNL     1     -44.061  60.111 -58.104  1.00  0.00     0.010 A 
HETATM   32  C   UNL     1     -43.964  58.942 -58.866  1.00  0.00     0.018 A 
HETATM   33  C   UNL     1     -43.117  57.899 -58.471  1.00  0.00     0.039 A 
HETATM   34  C   UNL     1     -42.352  58.045 -57.309  1.00  0.00     0.018 A 
HETATM   35  C   UNL     1     -42.453  59.209 -56.543  1.00  0.00     0.010 A 
BRANCH  33  36
HETATM   36  C   UNL     1     -43.071  56.669 -59.310  1.00  0.00     0.292 C 
HETATM   37  O   UNL     1     -42.223  56.482 -60.165  1.00  0.00    -0.259 OA
BRANCH  36  38
HETATM   38  O   UNL     1     -44.106  55.847 -59.008  1.00  0.00    -0.323 OA
HETATM   39  C   UNL     1     -44.268  54.761 -59.926  1.00  0.00     0.213 C 
ENDBRANCH  36  38
ENDBRANCH  33  36
ENDBRANCH  29  30
ENDBRANCH   1  29
TORSDOF 8
ENDMDL
MODEL 5
REMARK VINA RESULT:      -8.6      3.134      9.751
REMARK  8 active torsions:
REMARK  status: ('A' for Active; 'I' for Inactive)
REMARK    1  A    between atoms: O_2  and  C_3 
REMARK    2  A    between atoms: C_3  and  C_4 
REMARK    3  A    between atoms: C_7  and  C_8 
REMARK    4  A    between atoms: C_8  and  N_9 
REMARK    5  A    between atoms: C_18  and  C_19 
REMARK    6  A    between atoms: C_19  and  N_20 
REMARK    7  A    between atoms: C_24  and  O_25 
REMARK    8  A    between atoms: C_24  and  C_26 
ROOT
HETATM    1  N   UNL     1     -44.012  58.186 -58.335  1.00  0.00    -0.061 N 
HETATM    2  H   UNL     1     -43.879  59.076 -58.828  1.00  0.00     0.280 HD
HETATM    3  C   UNL     1     -43.154  58.310 -57.095  1.00  0.00     0.276 C 
HETATM    4  C   UNL     1     -43.300  57.204 -56.089  1.00  0.00     0.002 A 
HETATM    5  C   UNL     1     -42.995  55.888 -56.435  1.00  0.00     0.076 A 
HETATM    6  O   UNL     1     -42.498  55.581 -57.671  1.00  0.00    -0.349 OA
HETATM    7  C   UNL     1     -43.479  55.713 -58.704  1.00  0.00     0.203 C 
HETATM    8  C   UNL     1     -43.491  57.127 -59.299  1.00  0.00     0.262 C 
HETATM    9  C   UNL     1     -43.685  57.476 -54.763  1.00  0.00     0.020 A 
HETATM   10  C   UNL     1     -43.781  56.451 -53.800  1.00  0.00    -0.032 A 
HETATM   11  C   UNL     1     -43.495  55.136 -54.191  1.00  0.00     0.011 A 
HETATM   12  C   UNL     1     -43.081  54.861 -55.497  1.00  0.00     0.038 A 
ENDROOT
BRANCH  10  13
HETATM   13  C   UNL     1     -44.177  56.776 -52.377  1.00  0.00     0.273 C 
BRANCH  13  14
HETATM   14  N   UNL     1     -43.200  56.327 -51.303  1.00  0.00    -0.067 N 
HETATM   15  H   UNL     1     -43.401  56.893 -50.468  1.00  0.00     0.280 HD
HETATM   16  C   UNL     1     -43.366  54.877 -50.906  1.00  0.00     0.238 C 
HETATM   17  C   UNL     1     -42.378  54.535 -49.805  1.00  0.00     0.071 C 
HETATM   18  C   UNL     1     -40.920  54.727 -50.267  1.00  0.00     0.089 C 
HETATM   19  C   UNL     1     -40.781  56.211 -50.664  1.00  0.00     0.071 C 
HETATM   20  C   UNL     1     -41.780  56.643 -51.728  1.00  0.00     0.238 C 
BRANCH  18  21
HETATM   21  O   UNL     1     -40.104  54.546 -49.110  1.00  0.00    -0.385 OA
HETATM   22  H   UNL     1     -40.642  54.634 -48.300  1.00  0.00     0.211 HD
ENDBRANCH  18  21
BRANCH  18  23
HETATM   23  C   UNL     1     -40.499  53.703 -51.315  1.00  0.00    -0.006 A 
HETATM   24  C   UNL     1     -40.532  53.953 -52.685  1.00  0.00     0.126 A 
HETATM   25  N   UNL     1     -40.241  53.043 -53.640  1.00  0.00    -0.272 NA
HETATM   26  C   UNL     1     -39.807  51.833 -53.234  1.00  0.00     0.116 A 
HETATM   27  C   UNL     1     -39.669  51.492 -51.904  1.00  0.00     0.020 A 
HETATM   28  C   UNL     1     -40.015  52.438 -50.941  1.00  0.00     0.013 A 
ENDBRANCH  18  23
ENDBRANCH  13  14
ENDBRANCH  10  13
BRANCH   1  29
HETATM   29  C   UNL     1     -45.507  58.090 -58.110  1.00  0.00     0.273 C 
BRANCH  29  30
HETATM   30  C   UNL     1     -46.339  57.913 -59.355  1.00  0.00    -0.033 A 
HETATM   31  C   UNL     1     -46.691  59.002 -60.165  1.00  0.00     0.010 A 
HETATM   32  C   UNL     1     -47.486  58.809 -61.300  1.00  0.00     0.018 A 
HETATM   33  C   UNL     1     -47.925  57.528 -61.657  1.00  0.00     0.039 A 
HETATM   34  C   UNL     1     -47.545  56.434 -60.872  1.00  0.00     0.018 A 
HETATM   35  C   UNL     1     -46.758  56.625 -59.734  1.00  0.00     0.010 A 
BRANCH  33  36
HETATM   36  C   UNL     1     -48.787  57.387 -62.863  1.00  0.00     0.292 C 
HETATM   37  O   UNL     1     -48.976  56.320 -63.421  1.00  0.00    -0.259 OA
BRANCH  36  38
HETATM   38  O   UNL     1     -49.274  58.593 -63.245  1.00  0.00    -0.323 OA
HETATM   39  C   UNL     1     -50.698  58.697 -63.153  1.00  0.00     0.213 C 
ENDBRANCH  36  38
ENDBRANCH  33  36
ENDBRANCH  29  30
ENDBRANCH   1  29
TORSDOF 8
ENDMDL
MODEL 6
REMARK VINA RESULT:      -8.6      2.711      6.679
REMARK  8 active torsions:
REMARK  status: ('A' for Active; 'I' for Inactive)
REMARK    1  A    between atoms: O_2  and  C_3 
REMARK    2  A    between atoms: C_3  and  C_4 
REMARK    3  A    between atoms: C_7  and  C_8 
REMARK    4  A    between atoms: C_8  and  N_9 
REMARK    5  A    between atoms: C_18  and  C_19 
REMARK    6  A    between atoms: C_19  and  N_20 
REMARK    7  A    between atoms: C_24  and  O_25 
REMARK    8  A    between atoms: C_24  and  C_26 
ROOT
HETATM    1  N   UNL     1     -41.957  54.469 -50.420  1.00  0.00    -0.061 N 
HETATM    2  H   UNL     1     -42.658  54.505 -49.671  1.00  0.00     0.280 HD
HETATM    3  C   UNL     1     -42.711  53.933 -51.617  1.00  0.00     0.276 C 
HETATM    4  C   UNL     1     -41.961  53.944 -52.919  1.00  0.00     0.002 A 
HETATM    5  C   UNL     1     -40.780  53.216 -53.061  1.00  0.00     0.076 A 
HETATM    6  O   UNL     1     -40.311  52.428 -52.048  1.00  0.00    -0.349 OA
HETATM    7  C   UNL     1     -39.806  53.193 -50.948  1.00  0.00     0.203 C 
HETATM    8  C   UNL     1     -40.899  53.495 -49.916  1.00  0.00     0.262 C 
HETATM    9  C   UNL     1     -42.462  54.634 -54.039  1.00  0.00     0.020 A 
HETATM   10  C   UNL     1     -41.788  54.613 -55.277  1.00  0.00    -0.032 A 
HETATM   11  C   UNL     1     -40.589  53.896 -55.375  1.00  0.00     0.011 A 
HETATM   12  C   UNL     1     -40.101  53.181 -54.277  1.00  0.00     0.038 A 
ENDROOT
BRANCH  10  13
HETATM   13  C   UNL     1     -42.361  55.347 -56.468  1.00  0.00     0.273 C 
BRANCH  13  14
HETATM   14  N   UNL     1     -43.173  56.592 -56.145  1.00  0.00    -0.067 N 
HETATM   15  H   UNL     1     -43.845  56.322 -55.415  1.00  0.00     0.280 HD
HETATM   16  C   UNL     1     -42.341  57.725 -55.586  1.00  0.00     0.238 C 
HETATM   17  C   UNL     1     -43.242  58.902 -55.260  1.00  0.00     0.071 C 
HETATM   18  C   UNL     1     -43.967  59.431 -56.513  1.00  0.00     0.089 C 
HETATM   19  C   UNL     1     -44.806  58.257 -57.059  1.00  0.00     0.071 C 
HETATM   20  C   UNL     1     -43.975  57.017 -57.359  1.00  0.00     0.238 C 
BRANCH  18  21
HETATM   21  O   UNL     1     -44.902  60.409 -56.055  1.00  0.00    -0.385 OA
HETATM   22  H   UNL     1     -45.795  60.019 -55.993  1.00  0.00     0.211 HD
ENDBRANCH  18  21
BRANCH  18  23
HETATM   23  C   UNL     1     -43.017  60.102 -57.499  1.00  0.00    -0.006 A 
HETATM   24  C   UNL     1     -41.805  60.676 -57.124  1.00  0.00     0.126 A 
HETATM   25  N   UNL     1     -40.979  61.344 -57.958  1.00  0.00    -0.272 NA
HETATM   26  C   UNL     1     -41.314  61.384 -59.263  1.00  0.00     0.116 A 
HETATM   27  C   UNL     1     -42.457  60.794 -59.764  1.00  0.00     0.020 A 
HETATM   28  C   UNL     1     -43.309  60.145 -58.873  1.00  0.00     0.013 A 
ENDBRANCH  18  23
ENDBRANCH  13  14
ENDBRANCH  10  13
BRANCH   1  29
HETATM   29  C   UNL     1     -41.441  55.889 -50.534  1.00  0.00     0.273 C 
BRANCH  29  30
HETATM   30  C   UNL     1     -42.473  56.924 -50.906  1.00  0.00    -0.033 A 
HETATM   31  C   UNL     1     -43.838  56.610 -50.970  1.00  0.00     0.010 A 
HETATM   32  C   UNL     1     -44.769  57.585 -51.344  1.00  0.00     0.018 A 
HETATM   33  C   UNL     1     -44.358  58.891 -51.638  1.00  0.00     0.039 A 
HETATM   34  C   UNL     1     -43.001  59.218 -51.539  1.00  0.00     0.018 A 
HETATM   35  C   UNL     1     -42.069  58.244 -51.173  1.00  0.00     0.010 A 
BRANCH  33  36
HETATM   36  C   UNL     1     -45.391  59.881 -52.052  1.00  0.00     0.292 C 
HETATM   37  O   UNL     1     -45.827  59.948 -53.188  1.00  0.00    -0.259 OA
BRANCH  36  38
HETATM   38  O   UNL     1     -45.722  60.687 -51.013  1.00  0.00    -0.323 OA
HETATM   39  C   UNL     1     -45.539  62.081 -51.282  1.00  0.00     0.213 C 
ENDBRANCH  36  38
ENDBRANCH  33  36
ENDBRANCH  29  30
ENDBRANCH   1  29
TORSDOF 8
ENDMDL
MODEL 7
REMARK VINA RESULT:      -8.5      2.443      6.190
REMARK  8 active torsions:
REMARK  status: ('A' for Active; 'I' for Inactive)
REMARK    1  A    between atoms: O_2  and  C_3 
REMARK    2  A    between atoms: C_3  and  C_4 
REMARK    3  A    between atoms: C_7  and  C_8 
REMARK    4  A    between atoms: C_8  and  N_9 
REMARK    5  A    between atoms: C_18  and  C_19 
REMARK    6  A    between atoms: C_19  and  N_20 
REMARK    7  A    between atoms: C_24  and  O_25 
REMARK    8  A    between atoms: C_24  and  C_26 
ROOT
HETATM    1  N   UNL     1     -41.953  54.875 -50.189  1.00  0.00    -0.061 N 
HETATM    2  H   UNL     1     -42.613  54.990 -49.412  1.00  0.00     0.280 HD
HETATM    3  C   UNL     1     -42.746  54.145 -51.252  1.00  0.00     0.276 C 
HETATM    4  C   UNL     1     -42.068  54.000 -52.585  1.00  0.00     0.002 A 
HETATM    5  C   UNL     1     -40.864  53.305 -52.694  1.00  0.00     0.076 A 
HETATM    6  O   UNL     1     -40.305  52.687 -51.611  1.00  0.00    -0.349 OA
HETATM    7  C   UNL     1     -39.777  53.620 -50.662  1.00  0.00     0.203 C 
HETATM    8  C   UNL     1     -40.826  54.024 -49.619  1.00  0.00     0.262 C 
HETATM    9  C   UNL     1     -42.660  54.503 -53.759  1.00  0.00     0.020 A 
HETATM   10  C   UNL     1     -42.055  54.332 -55.020  1.00  0.00    -0.032 A 
HETATM   11  C   UNL     1     -40.830  53.654 -55.088  1.00  0.00     0.011 A 
HETATM   12  C   UNL     1     -40.251  53.123 -53.932  1.00  0.00     0.038 A 
ENDROOT
BRANCH  10  13
HETATM   13  C   UNL     1     -42.725  54.866 -56.265  1.00  0.00     0.273 C 
BRANCH  13  14
HETATM   14  N   UNL     1     -42.449  56.327 -56.585  1.00  0.00    -0.067 N 
HETATM   15  H   UNL     1     -41.481  56.514 -56.293  1.00  0.00     0.280 HD
HETATM   16  C   UNL     1     -42.537  56.648 -58.060  1.00  0.00     0.238 C 
HETATM   17  C   UNL     1     -42.209  58.113 -58.281  1.00  0.00     0.071 C 
HETATM   18  C   UNL     1     -43.198  59.038 -57.545  1.00  0.00     0.089 C 
HETATM   19  C   UNL     1     -43.086  58.689 -56.046  1.00  0.00     0.071 C 
HETATM   20  C   UNL     1     -43.349  57.219 -55.752  1.00  0.00     0.238 C 
BRANCH  18  21
HETATM   21  O   UNL     1     -42.689  60.364 -57.684  1.00  0.00    -0.385 OA
HETATM   22  H   UNL     1     -41.778  60.342 -58.034  1.00  0.00     0.211 HD
ENDBRANCH  18  21
BRANCH  18  23
HETATM   23  C   UNL     1     -44.597  58.995 -58.147  1.00  0.00    -0.006 A 
HETATM   24  C   UNL     1     -44.844  59.069 -59.516  1.00  0.00     0.126 A 
HETATM   25  N   UNL     1     -46.073  59.112 -60.075  1.00  0.00    -0.272 NA
HETATM   26  C   UNL     1     -47.134  58.991 -59.253  1.00  0.00     0.116 A 
HETATM   27  C   UNL     1     -47.013  58.845 -57.886  1.00  0.00     0.020 A 
HETATM   28  C   UNL     1     -45.734  58.843 -57.334  1.00  0.00     0.013 A 
ENDBRANCH  18  23
ENDBRANCH  13  14
ENDBRANCH  10  13
BRANCH   1  29
HETATM   29  C   UNL     1     -41.511  56.283 -50.532  1.00  0.00     0.273 C 
BRANCH  29  30
HETATM   30  C   UNL     1     -42.594  57.191 -51.057  1.00  0.00    -0.033 A 
HETATM   31  C   UNL     1     -43.952  56.916 -50.841  1.00  0.00     0.010 A 
HETATM   32  C   UNL     1     -44.935  57.764 -51.363  1.00  0.00     0.018 A 
HETATM   33  C   UNL     1     -44.581  58.908 -52.090  1.00  0.00     0.039 A 
HETATM   34  C   UNL     1     -43.226  59.205 -52.276  1.00  0.00     0.018 A 
HETATM   35  C   UNL     1     -42.244  58.356 -51.761  1.00  0.00     0.010 A 
BRANCH  33  36
HETATM   36  C   UNL     1     -45.671  59.760 -52.641  1.00  0.00     0.292 C 
HETATM   37  O   UNL     1     -46.565  60.218 -51.952  1.00  0.00    -0.259 OA
BRANCH  36  38
HETATM   38  O   UNL     1     -45.533  59.903 -53.982  1.00  0.00    -0.323 OA
HETATM   39  C   UNL     1     -45.551  61.264 -54.423  1.00  0.00     0.213 C 
ENDBRANCH  36  38
ENDBRANCH  33  36
ENDBRANCH  29  30
ENDBRANCH   1  29
TORSDOF 8
ENDMDL
MODEL 8
REMARK VINA RESULT:      -8.4      2.567      7.047
REMARK  8 active torsions:
REMARK  status: ('A' for Active; 'I' for Inactive)
REMARK    1  A    between atoms: O_2  and  C_3 
REMARK    2  A    between atoms: C_3  and  C_4 
REMARK    3  A    between atoms: C_7  and  C_8 
REMARK    4  A    between atoms: C_8  and  N_9 
REMARK    5  A    between atoms: C_18  and  C_19 
REMARK    6  A    between atoms: C_19  and  N_20 
REMARK    7  A    between atoms: C_24  and  O_25 
REMARK    8  A    between atoms: C_24  and  C_26 
ROOT
HETATM    1  N   UNL     1     -44.948  62.086 -54.459  1.00  0.00    -0.061 N 
HETATM    2  H   UNL     1     -45.743  62.055 -55.108  1.00  0.00     0.280 HD
HETATM    3  C   UNL     1     -45.239  60.993 -53.454  1.00  0.00     0.276 C 
HETATM    4  C   UNL     1     -44.135  60.695 -52.479  1.00  0.00     0.002 A 
HETATM    5  C   UNL     1     -43.679  61.681 -51.604  1.00  0.00     0.076 A 
HETATM    6  O   UNL     1     -44.263  62.916 -51.567  1.00  0.00    -0.349 OA
HETATM    7  C   UNL     1     -43.969  63.695 -52.732  1.00  0.00     0.203 C 
HETATM    8  C   UNL     1     -45.007  63.476 -53.839  1.00  0.00     0.262 C 
HETATM    9  C   UNL     1     -43.582  59.404 -52.382  1.00  0.00     0.020 A 
HETATM   10  C   UNL     1     -42.579  59.104 -51.438  1.00  0.00    -0.032 A 
HETATM   11  C   UNL     1     -42.124  60.127 -50.595  1.00  0.00     0.011 A 
HETATM   12  C   UNL     1     -42.690  61.402 -50.664  1.00  0.00     0.038 A 
ENDROOT
BRANCH  10  13
HETATM   13  C   UNL     1     -42.018  57.703 -51.343  1.00  0.00     0.273 C 
BRANCH  13  14
HETATM   14  N   UNL     1     -42.257  56.815 -52.555  1.00  0.00    -0.067 N 
HETATM   15  H   UNL     1     -42.832  57.362 -53.209  1.00  0.00     0.280 HD
HETATM   16  C   UNL     1     -40.988  56.440 -53.286  1.00  0.00     0.238 C 
HETATM   17  C   UNL     1     -41.331  55.591 -54.496  1.00  0.00     0.071 C 
HETATM   18  C   UNL     1     -42.040  54.283 -54.094  1.00  0.00     0.089 C 
HETATM   19  C   UNL     1     -43.328  54.697 -53.352  1.00  0.00     0.071 C 
HETATM   20  C   UNL     1     -43.066  55.598 -52.154  1.00  0.00     0.238 C 
BRANCH  18  21
HETATM   21  O   UNL     1     -42.462  53.663 -55.309  1.00  0.00    -0.385 OA
HETATM   22  H   UNL     1     -42.777  52.755 -55.133  1.00  0.00     0.211 HD
ENDBRANCH  18  21
BRANCH  18  23
HETATM   23  C   UNL     1     -41.116  53.319 -53.359  1.00  0.00    -0.006 A 
HETATM   24  C   UNL     1     -40.982  53.293 -51.973  1.00  0.00     0.126 A 
HETATM   25  N   UNL     1     -40.116  52.507 -51.298  1.00  0.00    -0.272 NA
HETATM   26  C   UNL     1     -39.390  51.625 -52.015  1.00  0.00     0.116 A 
HETATM   27  C   UNL     1     -39.485  51.512 -53.387  1.00  0.00     0.020 A 
HETATM   28  C   UNL     1     -40.358  52.364 -54.060  1.00  0.00     0.013 A 
ENDBRANCH  18  23
ENDBRANCH  13  14
ENDBRANCH  10  13
BRANCH   1  29
HETATM   29  C   UNL     1     -43.728  61.885 -55.335  1.00  0.00     0.273 C 
BRANCH  29  30
HETATM   30  C   UNL     1     -43.636  60.543 -56.018  1.00  0.00    -0.033 A 
HETATM   31  C   UNL     1     -42.551  59.683 -55.802  1.00  0.00     0.010 A 
HETATM   32  C   UNL     1     -42.480  58.455 -56.470  1.00  0.00     0.018 A 
HETATM   33  C   UNL     1     -43.499  58.057 -57.345  1.00  0.00     0.039 A 
HETATM   34  C   UNL     1     -44.602  58.897 -57.534  1.00  0.00     0.018 A 
HETATM   35  C   UNL     1     -44.670  60.127 -56.874  1.00  0.00     0.010 A 
BRANCH  33  36
HETATM   36  C   UNL     1     -43.359  56.750 -58.045  1.00  0.00     0.292 C 
HETATM   37  O   UNL     1     -43.167  55.701 -57.456  1.00  0.00    -0.259 OA
BRANCH  36  38
HETATM   38  O   UNL     1     -43.435  56.918 -59.388  1.00  0.00    -0.323 OA
HETATM   39  C   UNL     1     -42.194  57.291 -59.995  1.00  0.00     0.213 C 
ENDBRANCH  36  38
ENDBRANCH  33  36
ENDBRANCH  29  30
ENDBRANCH   1  29
TORSDOF 8
ENDMDL
MODEL 9
REMARK VINA RESULT:      -8.2      2.155      6.241
REMARK  8 active torsions:
REMARK  status: ('A' for Active; 'I' for Inactive)
REMARK    1  A    between atoms: O_2  and  C_3 
REMARK    2  A    between atoms: C_3  and  C_4 
REMARK    3  A    between atoms: C_7  and  C_8 
REMARK    4  A    between atoms: C_8  and  N_9 
REMARK    5  A    between atoms: C_18  and  C_19 
REMARK    6  A    between atoms: C_19  and  N_20 
REMARK    7  A    between atoms: C_24  and  O_25 
REMARK    8  A    between atoms: C_24  and  C_26 
ROOT
HETATM    1  N   UNL     1     -43.555  56.453 -56.574  1.00  0.00    -0.061 N 
HETATM    2  H   UNL     1     -43.835  55.468 -56.501  1.00  0.00     0.280 HD
HETATM    3  C   UNL     1     -44.862  57.213 -56.626  1.00  0.00     0.276 C 
HETATM    4  C   UNL     1     -44.748  58.710 -56.555  1.00  0.00     0.002 A 
HETATM    5  C   UNL     1     -44.046  59.413 -57.533  1.00  0.00     0.076 A 
HETATM    6  O   UNL     1     -43.502  58.771 -58.610  1.00  0.00    -0.349 OA
HETATM    7  C   UNL     1     -42.369  57.970 -58.254  1.00  0.00     0.203 C 
HETATM    8  C   UNL     1     -42.779  56.540 -57.882  1.00  0.00     0.262 C 
HETATM    9  C   UNL     1     -45.396  59.439 -55.540  1.00  0.00     0.020 A 
HETATM   10  C   UNL     1     -45.333  60.846 -55.491  1.00  0.00    -0.032 A 
HETATM   11  C   UNL     1     -44.594  61.518 -56.474  1.00  0.00     0.011 A 
HETATM   12  C   UNL     1     -43.974  60.804 -57.503  1.00  0.00     0.038 A 
ENDROOT
BRANCH  10  13
HETATM   13  C   UNL     1     -46.056  61.604 -54.401  1.00  0.00     0.273 C 
BRANCH  13  14
HETATM   14  N   UNL     1     -45.523  61.397 -52.992  1.00  0.00    -0.067 N 
HETATM   15  H   UNL     1     -46.205  61.830 -52.354  1.00  0.00     0.280 HD
HETATM   16  C   UNL     1     -45.411  59.941 -52.598  1.00  0.00     0.238 C 
HETATM   17  C   UNL     1     -44.912  59.839 -51.168  1.00  0.00     0.071 C 
HETATM   18  C   UNL     1     -43.517  60.474 -51.004  1.00  0.00     0.089 C 
HETATM   19  C   UNL     1     -43.662  61.955 -51.411  1.00  0.00     0.071 C 
HETATM   20  C   UNL     1     -44.213  62.138 -52.819  1.00  0.00     0.238 C 
BRANCH  18  21
HETATM   21  O   UNL     1     -43.235  60.472 -49.605  1.00  0.00    -0.385 OA
HETATM   22  H   UNL     1     -44.058  60.602 -49.094  1.00  0.00     0.211 HD
ENDBRANCH  18  21
BRANCH  18  23
HETATM   23  C   UNL     1     -42.426  59.680 -51.714  1.00  0.00    -0.006 A 
HETATM   24  C   UNL     1     -41.754  60.143 -52.843  1.00  0.00     0.126 A 
HETATM   25  N   UNL     1     -40.840  59.434 -53.539  1.00  0.00    -0.272 NA
HETATM   26  C   UNL     1     -40.494  58.224 -53.056  1.00  0.00     0.116 A 
HETATM   27  C   UNL     1     -41.042  57.688 -51.909  1.00  0.00     0.020 A 
HETATM   28  C   UNL     1     -42.011  58.426 -51.233  1.00  0.00     0.013 A 
ENDBRANCH  18  23
ENDBRANCH  13  14
ENDBRANCH  10  13
BRANCH   1  29
HETATM   29  C   UNL     1     -42.685  56.697 -55.357  1.00  0.00     0.273 C 
BRANCH  29  30
HETATM   30  C   UNL     1     -42.014  55.473 -54.786  1.00  0.00    -0.033 A 
HETATM   31  C   UNL     1     -42.594  54.737 -53.743  1.00  0.00     0.010 A 
HETATM   32  C   UNL     1     -41.935  53.621 -53.216  1.00  0.00     0.018 A 
HETATM   33  C   UNL     1     -40.700  53.210 -53.732  1.00  0.00     0.039 A 
HETATM   34  C   UNL     1     -40.135  53.920 -54.797  1.00  0.00     0.018 A 
HETATM   35  C   UNL     1     -40.789  55.039 -55.320  1.00  0.00     0.010 A 
BRANCH  33  36
HETATM   36  C   UNL     1     -40.035  52.028 -53.116  1.00  0.00     0.292 C 
HETATM   37  O   UNL     1     -40.001  51.840 -51.912  1.00  0.00    -0.259 OA
BRANCH  36  38
HETATM   38  O   UNL     1     -39.462  51.252 -54.069  1.00  0.00    -0.323 OA
HETATM   39  C   UNL     1     -40.156  50.023 -54.307  1.00  0.00     0.213 C 
ENDBRANCH  36  38
ENDBRANCH  33  36
ENDBRANCH  29  30
ENDBRANCH   1  29
TORSDOF 8
ENDMDL
MODEL 10
REMARK VINA RESULT:      -8.2      2.327      7.906
REMARK  8 active torsions:
REMARK  status: ('A' for Active; 'I' for Inactive)
REMARK    1  A    between atoms: O_2  and  C_3 
REMARK    2  A    between atoms: C_3  and  C_4 
REMARK    3  A    between atoms: C_7  and  C_8 
REMARK    4  A    between atoms: C_8  and  N_9 
REMARK    5  A    between atoms: C_18  and  C_19 
REMARK    6  A    between atoms: C_19  and  N_20 
REMARK    7  A    between atoms: C_24  and  O_25 
REMARK    8  A    between atoms: C_24  and  C_26 
ROOT
HETATM    1  N   UNL     1     -42.810  60.389 -56.808  1.00  0.00    -0.061 N 
HETATM    2  H   UNL     1     -42.441  61.099 -56.166  1.00  0.00     0.280 HD
HETATM    3  C   UNL     1     -41.974  59.159 -56.530  1.00  0.00     0.276 C 
HETATM    4  C   UNL     1     -42.422  57.898 -57.214  1.00  0.00     0.002 A 
HETATM    5  C   UNL     1     -42.464  57.826 -58.607  1.00  0.00     0.076 A 
HETATM    6  O   UNL     1     -42.040  58.869 -59.380  1.00  0.00    -0.349 OA
HETATM    7  C   UNL     1     -42.933  59.987 -59.329  1.00  0.00     0.203 C 
HETATM    8  C   UNL     1     -42.564  60.957 -58.200  1.00  0.00     0.262 C 
HETATM    9  C   UNL     1     -42.749  56.747 -56.473  1.00  0.00     0.020 A 
HETATM   10  C   UNL     1     -43.126  55.546 -57.108  1.00  0.00    -0.032 A 
HETATM   11  C   UNL     1     -43.185  55.518 -58.508  1.00  0.00     0.011 A 
HETATM   12  C   UNL     1     -42.832  56.647 -59.252  1.00  0.00     0.038 A 
ENDROOT
BRANCH  10  13
HETATM   13  C   UNL     1     -43.451  54.320 -56.285  1.00  0.00     0.273 C 
BRANCH  13  14
HETATM   14  N   UNL     1     -42.612  54.128 -55.032  1.00  0.00    -0.067 N 
HETATM   15  H   UNL     1     -42.412  53.121 -54.966  1.00  0.00     0.280 HD
HETATM   16  C   UNL     1     -41.282  54.844 -55.082  1.00  0.00     0.238 C 
HETATM   17  C   UNL     1     -40.505  54.559 -53.809  1.00  0.00     0.071 C 
HETATM   18  C   UNL     1     -41.255  55.058 -52.558  1.00  0.00     0.089 C 
HETATM   19  C   UNL     1     -42.605  54.311 -52.534  1.00  0.00     0.071 C 
HETATM   20  C   UNL     1     -43.419  54.505 -53.805  1.00  0.00     0.238 C 
BRANCH  18  21
HETATM   21  O   UNL     1     -40.518  54.585 -51.431  1.00  0.00    -0.385 OA
HETATM   22  H   UNL     1     -39.618  54.966 -51.431  1.00  0.00     0.211 HD
ENDBRANCH  18  21
BRANCH  18  23
HETATM   23  C   UNL     1     -41.321  56.579 -52.484  1.00  0.00    -0.006 A 
HETATM   24  C   UNL     1     -41.928  57.269 -51.437  1.00  0.00     0.126 A 
HETATM   25  N   UNL     1     -42.071  58.611 -51.380  1.00  0.00    -0.272 NA
HETATM   26  C   UNL     1     -41.511  59.337 -52.368  1.00  0.00     0.116 A 
HETATM   27  C   UNL     1     -40.827  58.770 -53.424  1.00  0.00     0.020 A 
HETATM   28  C   UNL     1     -40.729  57.381 -53.476  1.00  0.00     0.013 A 
ENDBRANCH  18  23
ENDBRANCH  13  14
ENDBRANCH  10  13
BRANCH   1  29
HETATM   29  C   UNL     1     -44.283  60.289 -56.465  1.00  0.00     0.273 C 
BRANCH  29  30
HETATM   30  C   UNL     1     -44.595  60.091 -55.003  1.00  0.00    -0.033 A 
HETATM   31  C   UNL     1     -44.927  58.831 -54.487  1.00  0.00     0.010 A 
HETATM   32  C   UNL     1     -45.237  58.683 -53.131  1.00  0.00     0.018 A 
HETATM   33  C   UNL     1     -45.202  59.783 -52.265  1.00  0.00     0.039 A 
HETATM   34  C   UNL     1     -44.835  61.036 -52.769  1.00  0.00     0.018 A 
HETATM   35  C   UNL     1     -44.532  61.186 -54.124  1.00  0.00     0.010 A 
BRANCH  33  36
HETATM   36  C   UNL     1     -45.564  59.570 -50.836  1.00  0.00     0.292 C 
HETATM   37  O   UNL     1     -46.456  58.819 -50.484  1.00  0.00    -0.259 OA
BRANCH  36  38
HETATM   38  O   UNL     1     -44.798  60.346 -50.030  1.00  0.00    -0.323 OA
HETATM   39  C   UNL     1     -45.513  60.916 -48.929  1.00  0.00     0.213 C 
ENDBRANCH  36  38
ENDBRANCH  33  36
ENDBRANCH  29  30
ENDBRANCH   1  29
TORSDOF 8
ENDMDL
