MODEL 1
REMARK VINA RESULT:      -9.3      0.000      0.000
REMARK  6 active torsions:
REMARK  status: ('A' for Active; 'I' for Inactive)
REMARK    1  A    between atoms: O_2  and  C_3 
REMARK    2  A    between atoms: C_6  and  N_7 
REMARK    3  A    between atoms: C_14  and  C_15 
REMARK       I    between atoms: C_15  and  N_16 
REMARK    4  A    between atoms: N_16  and  C_17 
REMARK    5  A    between atoms: C_20  and  C_21 
REMARK    6  A    between atoms: C_34  and  O_35 
ROOT
HETATM    1  N   UNL     1     -45.274  60.757 -48.762  1.00  0.00    -0.336 N 
HETATM    2  H   UNL     1     -44.945  59.782 -48.688  1.00  0.00     0.168 HD
HETATM    3  C   UNL     1     -45.769  61.097 -49.899  1.00  0.00     0.164 A 
HETATM    4  O   UNL     1     -46.348  62.338 -49.961  1.00  0.00    -0.289 OA
HETATM    5  C   UNL     1     -47.026  62.779 -51.114  1.00  0.00     0.121 A 
HETATM    6  C   UNL     1     -47.134  61.937 -52.217  1.00  0.00     0.002 A 
HETATM    7  C   UNL     1     -46.507  60.620 -52.173  1.00  0.00     0.035 A 
HETATM    8  C   UNL     1     -45.814  60.210 -51.097  1.00  0.00     0.084 A 
HETATM    9  C   UNL     1     -47.581  64.065 -51.094  1.00  0.00     0.102 A 
HETATM   10  C   UNL     1     -48.271  64.502 -52.224  1.00  0.00     0.040 A 
HETATM   11  C   UNL     1     -48.396  63.666 -53.340  1.00  0.00     0.004 A 
HETATM   12  C   UNL     1     -47.828  62.388 -53.338  1.00  0.00     0.014 A 
ENDROOT
BRANCH   8  13
HETATM   13  C   UNL     1     -45.142  58.861 -51.018  1.00  0.00     0.260 C 
HETATM   14  N   UNL     1     -44.038  58.666 -51.808  1.00  0.00    -0.323 N 
HETATM   15  H   UNL     1     -43.713  59.423 -52.394  1.00  0.00     0.169 HD
HETATM   16  O   UNL     1     -45.632  58.060 -50.221  1.00  0.00    -0.267 OA
BRANCH  14  17
HETATM   17  C   UNL     1     -43.258  57.494 -51.937  1.00  0.00     0.035 A 
HETATM   18  C   UNL     1     -42.039  57.275 -51.297  1.00  0.00     0.030 A 
HETATM   19  C   UNL     1     -41.345  56.066 -51.480  1.00  0.00     0.017 A 
HETATM   20  C   UNL     1     -41.869  55.056 -52.297  1.00  0.00     0.010 A 
HETATM   21  C   UNL     1     -43.094  55.283 -52.932  1.00  0.00     0.017 A 
HETATM   22  C   UNL     1     -43.775  56.491 -52.764  1.00  0.00     0.030 A 
BRANCH  20  23
HETATM   23  C   UNL     1     -41.204  53.767 -52.488  1.00  0.00     0.139 A 
HETATM   24  N   UNL     1     -40.644  53.049 -51.532  1.00  0.00    -0.228 NA
HETATM   25  C   UNL     1     -40.172  51.911 -52.136  1.00  0.00     0.086 A 
HETATM   26  C   UNL     1     -40.469  51.912 -53.492  1.00  0.00     0.062 A 
HETATM   27  C   UNL     1     -39.486  50.820 -51.583  1.00  0.00     0.034 A 
HETATM   28  N   UNL     1     -41.117  53.105 -53.692  1.00  0.00    -0.338 N 
HETATM   29  C   UNL     1     -40.130  50.866 -54.352  1.00  0.00     0.032 A 
HETATM   30  H   UNL     1     -41.501  53.423 -54.568  1.00  0.00     0.167 HD
HETATM   31  C   UNL     1     -39.449  49.783 -53.783  1.00  0.00     0.002 A 
HETATM   32  C   UNL     1     -39.128  49.758 -52.422  1.00  0.00     0.002 A 
ENDBRANCH  20  23
ENDBRANCH  14  17
ENDBRANCH   8  13
BRANCH   1  33
HETATM   33  C   UNL     1     -45.187  61.493 -47.564  1.00  0.00     0.034 A 
HETATM   34  C   UNL     1     -45.089  60.749 -46.377  1.00  0.00     0.032 A 
HETATM   35  C   UNL     1     -45.024  61.391 -45.130  1.00  0.00     0.039 A 
HETATM   36  C   UNL     1     -45.036  62.782 -45.058  1.00  0.00     0.068 A 
HETATM   37  C   UNL     1     -45.089  63.521 -46.240  1.00  0.00     0.039 A 
HETATM   38  C   UNL     1     -45.161  62.888 -47.487  1.00  0.00     0.032 A 
BRANCH  36  39
HETATM   39  O   UNL     1     -44.985  63.533 -43.921  1.00  0.00    -0.356 OA
HETATM   40  C   UNL     1     -45.970  64.548 -43.763  1.00  0.00     0.210 C 
ENDBRANCH  36  39
ENDBRANCH   1  33
BRANCH   9  41
HETATM   41  O   UNL     1     -47.387  64.782 -49.945  1.00  0.00    -0.353 OA
HETATM   42  C   UNL     1     -48.259  64.503 -48.854  1.00  0.00     0.210 C 
ENDBRANCH   9  41
TORSDOF 6
ENDMDL
MODEL 2
REMARK VINA RESULT:      -8.9      5.985     11.190
REMARK  6 active torsions:
REMARK  status: ('A' for Active; 'I' for Inactive)
REMARK    1  A    between atoms: O_2  and  C_3 
REMARK    2  A    between atoms: C_6  and  N_7 
REMARK    3  A    between atoms: C_14  and  C_15 
REMARK       I    between atoms: C_15  and  N_16 
REMARK    4  A    between atoms: N_16  and  C_17 
REMARK    5  A    between atoms: C_20  and  C_21 
REMARK    6  A    between atoms: C_34  and  O_35 
ROOT
HETATM    1  N   UNL     1     -41.636  56.169 -53.815  1.00  0.00    -0.336 N 
HETATM    2  H   UNL     1     -42.075  56.607 -54.641  1.00  0.00     0.168 HD
HETATM    3  C   UNL     1     -41.460  54.897 -53.881  1.00  0.00     0.164 A 
HETATM    4  O   UNL     1     -40.742  54.331 -52.861  1.00  0.00    -0.289 OA
HETATM    5  C   UNL     1     -40.384  52.968 -52.878  1.00  0.00     0.121 A 
HETATM    6  C   UNL     1     -40.745  52.173 -53.961  1.00  0.00     0.002 A 
HETATM    7  C   UNL     1     -41.526  52.757 -55.046  1.00  0.00     0.035 A 
HETATM    8  C   UNL     1     -41.918  54.043 -55.015  1.00  0.00     0.084 A 
HETATM    9  C   UNL     1     -39.656  52.471 -51.790  1.00  0.00     0.102 A 
HETATM   10  C   UNL     1     -39.280  51.128 -51.808  1.00  0.00     0.040 A 
HETATM   11  C   UNL     1     -39.629  50.315 -52.892  1.00  0.00     0.004 A 
HETATM   12  C   UNL     1     -40.361  50.833 -53.965  1.00  0.00     0.014 A 
ENDROOT
BRANCH   8  13
HETATM   13  C   UNL     1     -42.735  54.679 -56.111  1.00  0.00     0.260 C 
HETATM   14  N   UNL     1     -42.212  55.794 -56.714  1.00  0.00    -0.323 N 
HETATM   15  H   UNL     1     -41.309  56.136 -56.415  1.00  0.00     0.169 HD
HETATM   16  O   UNL     1     -43.794  54.115 -56.392  1.00  0.00    -0.267 OA
BRANCH  14  17
HETATM   17  C   UNL     1     -42.790  56.582 -57.735  1.00  0.00     0.035 A 
HETATM   18  C   UNL     1     -42.858  56.218 -59.079  1.00  0.00     0.030 A 
HETATM   19  C   UNL     1     -43.468  57.069 -60.018  1.00  0.00     0.017 A 
HETATM   20  C   UNL     1     -44.029  58.288 -59.621  1.00  0.00     0.010 A 
HETATM   21  C   UNL     1     -43.960  58.643 -58.270  1.00  0.00     0.017 A 
HETATM   22  C   UNL     1     -43.338  57.807 -57.340  1.00  0.00     0.030 A 
BRANCH  20  23
HETATM   23  C   UNL     1     -44.708  59.189 -60.552  1.00  0.00     0.139 A 
HETATM   24  N   UNL     1     -45.997  59.476 -60.533  1.00  0.00    -0.228 NA
HETATM   25  C   UNL     1     -46.204  60.375 -61.548  1.00  0.00     0.086 A 
HETATM   26  C   UNL     1     -45.011  60.671 -62.196  1.00  0.00     0.062 A 
HETATM   27  C   UNL     1     -47.388  60.994 -61.971  1.00  0.00     0.034 A 
HETATM   28  N   UNL     1     -44.079  59.900 -61.550  1.00  0.00    -0.338 N 
HETATM   29  C   UNL     1     -44.919  61.577 -63.255  1.00  0.00     0.032 A 
HETATM   30  H   UNL     1     -43.091  59.887 -61.747  1.00  0.00     0.167 HD
HETATM   31  C   UNL     1     -46.110  62.190 -63.661  1.00  0.00     0.002 A 
HETATM   32  C   UNL     1     -47.327  61.903 -63.035  1.00  0.00     0.002 A 
ENDBRANCH  20  23
ENDBRANCH  14  17
ENDBRANCH   8  13
BRANCH   1  33
HETATM   33  C   UNL     1     -41.242  57.080 -52.814  1.00  0.00     0.034 A 
HETATM   34  C   UNL     1     -40.395  58.125 -53.217  1.00  0.00     0.032 A 
HETATM   35  C   UNL     1     -39.927  59.068 -52.289  1.00  0.00     0.039 A 
HETATM   36  C   UNL     1     -40.315  58.988 -50.954  1.00  0.00     0.068 A 
HETATM   37  C   UNL     1     -41.190  57.974 -50.563  1.00  0.00     0.039 A 
HETATM   38  C   UNL     1     -41.656  57.026 -51.482  1.00  0.00     0.032 A 
BRANCH  36  39
HETATM   39  O   UNL     1     -39.934  59.827 -49.949  1.00  0.00    -0.356 OA
HETATM   40  C   UNL     1     -38.556  60.175 -49.875  1.00  0.00     0.210 C 
ENDBRANCH  36  39
ENDBRANCH   1  33
BRANCH   9  41
HETATM   41  O   UNL     1     -39.380  53.368 -50.794  1.00  0.00    -0.353 OA
HETATM   42  C   UNL     1     -40.252  53.369 -49.667  1.00  0.00     0.210 C 
ENDBRANCH   9  41
TORSDOF 6
ENDMDL
MODEL 3
REMARK VINA RESULT:      -8.9      4.211     11.194
REMARK  6 active torsions:
REMARK  status: ('A' for Active; 'I' for Inactive)
REMARK    1  A    between atoms: O_2  and  C_3 
REMARK    2  A    between atoms: C_6  and  N_7 
REMARK    3  A    between atoms: C_14  and  C_15 
REMARK       I    between atoms: C_15  and  N_16 
REMARK    4  A    between atoms: N_16  and  C_17 
REMARK    5  A    between atoms: C_20  and  C_21 
REMARK    6  A    between atoms: C_34  and  O_35 
ROOT
HETATM    1  N   UNL     1     -42.944  57.121 -54.621  1.00  0.00    -0.336 N 
HETATM    2  H   UNL     1     -42.784  57.724 -53.799  1.00  0.00     0.168 HD
HETATM    3  C   UNL     1     -43.620  57.648 -55.580  1.00  0.00     0.164 A 
HETATM    4  O   UNL     1     -43.707  56.915 -56.734  1.00  0.00    -0.289 OA
HETATM    5  C   UNL     1     -44.322  57.431 -57.892  1.00  0.00     0.121 A 
HETATM    6  C   UNL     1     -44.839  58.723 -57.882  1.00  0.00     0.002 A 
HETATM    7  C   UNL     1     -44.770  59.510 -56.655  1.00  0.00     0.035 A 
HETATM    8  C   UNL     1     -44.233  59.007 -55.530  1.00  0.00     0.084 A 
HETATM    9  C   UNL     1     -44.374  56.610 -59.026  1.00  0.00     0.102 A 
HETATM   10  C   UNL     1     -44.962  57.121 -60.182  1.00  0.00     0.040 A 
HETATM   11  C   UNL     1     -45.481  58.421 -60.192  1.00  0.00     0.004 A 
HETATM   12  C   UNL     1     -45.422  59.220 -59.047  1.00  0.00     0.014 A 
ENDROOT
BRANCH   8  13
HETATM   13  C   UNL     1     -44.155  59.784 -54.239  1.00  0.00     0.260 C 
HETATM   14  N   UNL     1     -45.321  59.947 -53.536  1.00  0.00    -0.323 N 
HETATM   15  H   UNL     1     -46.172  59.537 -53.895  1.00  0.00     0.169 HD
HETATM   16  O   UNL     1     -43.034  60.178 -53.914  1.00  0.00    -0.267 OA
BRANCH  14  17
HETATM   17  C   UNL     1     -45.515  60.652 -52.327  1.00  0.00     0.035 A 
HETATM   18  C   UNL     1     -46.161  61.883 -52.219  1.00  0.00     0.030 A 
HETATM   19  C   UNL     1     -46.315  62.499 -50.964  1.00  0.00     0.017 A 
HETATM   20  C   UNL     1     -45.836  61.885 -49.801  1.00  0.00     0.010 A 
HETATM   21  C   UNL     1     -45.194  60.649 -49.918  1.00  0.00     0.017 A 
HETATM   22  C   UNL     1     -45.023  60.045 -51.166  1.00  0.00     0.030 A 
BRANCH  20  23
HETATM   23  C   UNL     1     -46.007  62.467 -48.470  1.00  0.00     0.139 A 
HETATM   24  N   UNL     1     -47.161  62.821 -47.935  1.00  0.00    -0.228 NA
HETATM   25  C   UNL     1     -46.873  63.285 -46.676  1.00  0.00     0.086 A 
HETATM   26  C   UNL     1     -45.512  63.194 -46.416  1.00  0.00     0.062 A 
HETATM   27  C   UNL     1     -47.729  63.794 -45.689  1.00  0.00     0.034 A 
HETATM   28  N   UNL     1     -44.984  62.679 -47.573  1.00  0.00    -0.338 N 
HETATM   29  C   UNL     1     -44.936  63.573 -45.202  1.00  0.00     0.032 A 
HETATM   30  H   UNL     1     -44.013  62.455 -47.725  1.00  0.00     0.167 HD
HETATM   31  C   UNL     1     -45.806  64.074 -44.226  1.00  0.00     0.002 A 
HETATM   32  C   UNL     1     -47.179  64.187 -44.463  1.00  0.00     0.002 A 
ENDBRANCH  20  23
ENDBRANCH  14  17
ENDBRANCH   8  13
BRANCH   1  33
HETATM   33  C   UNL     1     -42.310  55.864 -54.555  1.00  0.00     0.034 A 
HETATM   34  C   UNL     1     -40.942  55.836 -54.869  1.00  0.00     0.032 A 
HETATM   35  C   UNL     1     -40.227  54.627 -54.857  1.00  0.00     0.039 A 
HETATM   36  C   UNL     1     -40.867  53.440 -54.510  1.00  0.00     0.068 A 
HETATM   37  C   UNL     1     -42.216  53.476 -54.156  1.00  0.00     0.039 A 
HETATM   38  C   UNL     1     -42.937  54.676 -54.173  1.00  0.00     0.032 A 
BRANCH  36  39
HETATM   39  O   UNL     1     -40.301  52.200 -54.463  1.00  0.00    -0.356 OA
HETATM   40  C   UNL     1     -39.758  51.777 -53.216  1.00  0.00     0.210 C 
ENDBRANCH  36  39
ENDBRANCH   1  33
BRANCH   9  41
HETATM   41  O   UNL     1     -43.834  55.361 -58.885  1.00  0.00    -0.353 OA
HETATM   42  C   UNL     1     -44.458  54.303 -59.606  1.00  0.00     0.210 C 
ENDBRANCH   9  41
TORSDOF 6
ENDMDL
MODEL 4
REMARK VINA RESULT:      -8.5      1.942      5.168
REMARK  6 active torsions:
REMARK  status: ('A' for Active; 'I' for Inactive)
REMARK    1  A    between atoms: O_2  and  C_3 
REMARK    2  A    between atoms: C_6  and  N_7 
REMARK    3  A    between atoms: C_14  and  C_15 
REMARK       I    between atoms: C_15  and  N_16 
REMARK    4  A    between atoms: N_16  and  C_17 
REMARK    5  A    between atoms: C_20  and  C_21 
REMARK    6  A    between atoms: C_34  and  O_35 
ROOT
HETATM    1  N   UNL     1     -46.780  61.716 -52.303  1.00  0.00    -0.336 N 
HETATM    2  H   UNL     1     -46.129  61.125 -52.842  1.00  0.00     0.168 HD
HETATM    3  C   UNL     1     -46.435  61.968 -51.090  1.00  0.00     0.164 A 
HETATM    4  O   UNL     1     -47.210  62.875 -50.416  1.00  0.00    -0.289 OA
HETATM    5  C   UNL     1     -46.869  63.321 -49.123  1.00  0.00     0.121 A 
HETATM    6  C   UNL     1     -45.709  62.850 -48.514  1.00  0.00     0.002 A 
HETATM    7  C   UNL     1     -44.884  61.870 -49.212  1.00  0.00     0.035 A 
HETATM    8  C   UNL     1     -45.228  61.400 -50.423  1.00  0.00     0.084 A 
HETATM    9  C   UNL     1     -47.722  64.243 -48.504  1.00  0.00     0.102 A 
HETATM   10  C   UNL     1     -47.382  64.704 -47.233  1.00  0.00     0.040 A 
HETATM   11  C   UNL     1     -46.215  64.247 -46.608  1.00  0.00     0.004 A 
HETATM   12  C   UNL     1     -45.382  63.322 -47.244  1.00  0.00     0.014 A 
ENDROOT
BRANCH   8  13
HETATM   13  C   UNL     1     -44.407  60.379 -51.171  1.00  0.00     0.260 C 
HETATM   14  N   UNL     1     -44.222  59.162 -50.566  1.00  0.00    -0.323 N 
HETATM   15  H   UNL     1     -44.645  58.993 -49.663  1.00  0.00     0.169 HD
HETATM   16  O   UNL     1     -44.000  60.722 -52.282  1.00  0.00    -0.267 OA
BRANCH  14  17
HETATM   17  C   UNL     1     -43.475  58.060 -51.041  1.00  0.00     0.035 A 
HETATM   18  C   UNL     1     -42.174  58.134 -51.536  1.00  0.00     0.030 A 
HETATM   19  C   UNL     1     -41.511  56.974 -51.974  1.00  0.00     0.017 A 
HETATM   20  C   UNL     1     -42.137  55.724 -51.909  1.00  0.00     0.010 A 
HETATM   21  C   UNL     1     -43.440  55.658 -51.408  1.00  0.00     0.017 A 
HETATM   22  C   UNL     1     -44.107  56.812 -50.990  1.00  0.00     0.030 A 
BRANCH  20  23
HETATM   23  C   UNL     1     -41.475  54.484 -52.316  1.00  0.00     0.139 A 
HETATM   24  N   UNL     1     -40.694  53.748 -51.545  1.00  0.00    -0.228 NA
HETATM   25  C   UNL     1     -40.315  52.670 -52.304  1.00  0.00     0.086 A 
HETATM   26  C   UNL     1     -40.893  52.726 -53.565  1.00  0.00     0.062 A 
HETATM   27  C   UNL     1     -39.483  51.591 -51.977  1.00  0.00     0.034 A 
HETATM   28  N   UNL     1     -41.618  53.891 -53.550  1.00  0.00    -0.338 N 
HETATM   29  C   UNL     1     -40.701  51.745 -54.541  1.00  0.00     0.032 A 
HETATM   30  H   UNL     1     -42.193  54.233 -54.304  1.00  0.00     0.167 HD
HETATM   31  C   UNL     1     -39.871  50.672 -54.195  1.00  0.00     0.002 A 
HETATM   32  C   UNL     1     -39.267  50.595 -52.937  1.00  0.00     0.002 A 
ENDBRANCH  20  23
ENDBRANCH  14  17
ENDBRANCH   8  13
BRANCH   1  33
HETATM   33  C   UNL     1     -47.878  62.198 -53.043  1.00  0.00     0.034 A 
HETATM   34  C   UNL     1     -47.587  63.091 -54.087  1.00  0.00     0.032 A 
HETATM   35  C   UNL     1     -48.616  63.645 -54.865  1.00  0.00     0.039 A 
HETATM   36  C   UNL     1     -49.942  63.298 -54.620  1.00  0.00     0.068 A 
HETATM   37  C   UNL     1     -50.227  62.379 -53.611  1.00  0.00     0.039 A 
HETATM   38  C   UNL     1     -49.207  61.827 -52.827  1.00  0.00     0.032 A 
BRANCH  36  39
HETATM   39  O   UNL     1     -51.036  63.763 -55.290  1.00  0.00    -0.356 OA
HETATM   40  C   UNL     1     -51.879  62.800 -55.912  1.00  0.00     0.210 C 
ENDBRANCH  36  39
ENDBRANCH   1  33
BRANCH   9  41
HETATM   41  O   UNL     1     -48.830  64.607 -49.219  1.00  0.00    -0.353 OA
HETATM   42  C   UNL     1     -49.972  63.763 -49.115  1.00  0.00     0.210 C 
ENDBRANCH   9  41
TORSDOF 6
ENDMDL
MODEL 5
REMARK VINA RESULT:      -8.4      6.457      8.768
REMARK  6 active torsions:
REMARK  status: ('A' for Active; 'I' for Inactive)
REMARK    1  A    between atoms: O_2  and  C_3 
REMARK    2  A    between atoms: C_6  and  N_7 
REMARK    3  A    between atoms: C_14  and  C_15 
REMARK       I    between atoms: C_15  and  N_16 
REMARK    4  A    between atoms: N_16  and  C_17 
REMARK    5  A    between atoms: C_20  and  C_21 
REMARK    6  A    between atoms: C_34  and  O_35 
ROOT
HETATM    1  N   UNL     1     -41.615  61.267 -58.013  1.00  0.00    -0.336 N 
HETATM    2  H   UNL     1     -41.012  60.640 -57.458  1.00  0.00     0.168 HD
HETATM    3  C   UNL     1     -42.813  61.427 -57.574  1.00  0.00     0.164 A 
HETATM    4  O   UNL     1     -43.572  62.372 -58.212  1.00  0.00    -0.289 OA
HETATM    5  C   UNL     1     -44.857  62.721 -57.753  1.00  0.00     0.121 A 
HETATM    6  C   UNL     1     -45.372  62.112 -56.612  1.00  0.00     0.002 A 
HETATM    7  C   UNL     1     -44.583  61.090 -55.932  1.00  0.00     0.035 A 
HETATM    8  C   UNL     1     -43.378  60.713 -56.393  1.00  0.00     0.084 A 
HETATM    9  C   UNL     1     -45.566  63.692 -58.472  1.00  0.00     0.102 A 
HETATM   10  C   UNL     1     -46.831  64.058 -58.012  1.00  0.00     0.040 A 
HETATM   11  C   UNL     1     -47.362  63.461 -56.862  1.00  0.00     0.004 A 
HETATM   12  C   UNL     1     -46.637  62.490 -56.165  1.00  0.00     0.014 A 
ENDROOT
BRANCH   8  13
HETATM   13  C   UNL     1     -42.539  59.653 -55.723  1.00  0.00     0.260 C 
HETATM   14  N   UNL     1     -43.080  58.396 -55.627  1.00  0.00    -0.323 N 
HETATM   15  H   UNL     1     -44.000  58.227 -56.011  1.00  0.00     0.169 HD
HETATM   16  O   UNL     1     -41.420  60.006 -55.349  1.00  0.00    -0.267 OA
BRANCH  14  17
HETATM   17  C   UNL     1     -42.514  57.251 -55.024  1.00  0.00     0.035 A 
HETATM   18  C   UNL     1     -42.224  57.126 -53.666  1.00  0.00     0.030 A 
HETATM   19  C   UNL     1     -41.671  55.936 -53.161  1.00  0.00     0.017 A 
HETATM   20  C   UNL     1     -41.416  54.850 -54.007  1.00  0.00     0.010 A 
HETATM   21  C   UNL     1     -41.713  54.981 -55.366  1.00  0.00     0.017 A 
HETATM   22  C   UNL     1     -42.245  56.170 -55.872  1.00  0.00     0.030 A 
BRANCH  20  23
HETATM   23  C   UNL     1     -40.879  53.578 -53.523  1.00  0.00     0.139 A 
HETATM   24  N   UNL     1     -40.651  53.279 -52.257  1.00  0.00    -0.228 NA
HETATM   25  C   UNL     1     -40.184  51.989 -52.246  1.00  0.00     0.086 A 
HETATM   26  C   UNL     1     -40.145  51.468 -53.533  1.00  0.00     0.062 A 
HETATM   27  C   UNL     1     -39.782  51.189 -51.168  1.00  0.00     0.034 A 
HETATM   28  N   UNL     1     -40.583  52.499 -54.325  1.00  0.00    -0.338 N 
HETATM   29  C   UNL     1     -39.734  50.165 -53.820  1.00  0.00     0.032 A 
HETATM   30  H   UNL     1     -40.707  52.458 -55.324  1.00  0.00     0.167 HD
HETATM   31  C   UNL     1     -39.340  49.378 -52.731  1.00  0.00     0.002 A 
HETATM   32  C   UNL     1     -39.359  49.879 -51.426  1.00  0.00     0.002 A 
ENDBRANCH  20  23
ENDBRANCH  14  17
ENDBRANCH   8  13
BRANCH   1  33
HETATM   33  C   UNL     1     -40.967  61.887 -59.100  1.00  0.00     0.034 A 
HETATM   34  C   UNL     1     -39.934  62.784 -58.784  1.00  0.00     0.032 A 
HETATM   35  C   UNL     1     -39.245  63.472 -59.796  1.00  0.00     0.039 A 
HETATM   36  C   UNL     1     -39.568  63.255 -61.132  1.00  0.00     0.068 A 
HETATM   37  C   UNL     1     -40.565  62.332 -61.448  1.00  0.00     0.039 A 
HETATM   38  C   UNL     1     -41.261  61.647 -60.444  1.00  0.00     0.032 A 
BRANCH  36  39
HETATM   39  O   UNL     1     -38.989  63.855 -62.212  1.00  0.00    -0.356 OA
HETATM   40  C   UNL     1     -39.166  63.233 -63.480  1.00  0.00     0.210 C 
ENDBRANCH  36  39
ENDBRANCH   1  33
BRANCH   9  41
HETATM   41  O   UNL     1     -44.938  64.196 -59.578  1.00  0.00    -0.353 OA
HETATM   42  C   UNL     1     -45.520  63.897 -60.843  1.00  0.00     0.210 C 
ENDBRANCH   9  41
TORSDOF 6
ENDMDL
MODEL 6
REMARK VINA RESULT:      -8.4      2.335      5.333
REMARK  6 active torsions:
REMARK  status: ('A' for Active; 'I' for Inactive)
REMARK    1  A    between atoms: O_2  and  C_3 
REMARK    2  A    between atoms: C_6  and  N_7 
REMARK    3  A    between atoms: C_14  and  C_15 
REMARK       I    between atoms: C_15  and  N_16 
REMARK    4  A    between atoms: N_16  and  C_17 
REMARK    5  A    between atoms: C_20  and  C_21 
REMARK    6  A    between atoms: C_34  and  O_35 
ROOT
HETATM    1  N   UNL     1     -44.435  61.554 -53.066  1.00  0.00    -0.336 N 
HETATM    2  H   UNL     1     -43.728  60.866 -53.370  1.00  0.00     0.168 HD
HETATM    3  C   UNL     1     -44.543  61.723 -51.797  1.00  0.00     0.164 A 
HETATM    4  O   UNL     1     -45.365  62.741 -51.388  1.00  0.00    -0.289 OA
HETATM    5  C   UNL     1     -45.478  63.100 -50.031  1.00  0.00     0.121 A 
HETATM    6  C   UNL     1     -44.726  62.425 -49.074  1.00  0.00     0.002 A 
HETATM    7  C   UNL     1     -43.860  61.327 -49.490  1.00  0.00     0.035 A 
HETATM    8  C   UNL     1     -43.786  60.943 -50.776  1.00  0.00     0.084 A 
HETATM    9  C   UNL     1     -46.348  64.147 -49.702  1.00  0.00     0.102 A 
HETATM   10  C   UNL     1     -46.450  64.522 -48.363  1.00  0.00     0.040 A 
HETATM   11  C   UNL     1     -45.696  63.859 -47.387  1.00  0.00     0.004 A 
HETATM   12  C   UNL     1     -44.838  62.813 -47.739  1.00  0.00     0.014 A 
ENDROOT
BRANCH   8  13
HETATM   13  C   UNL     1     -42.911  59.805 -51.244  1.00  0.00     0.260 C 
HETATM   14  N   UNL     1     -43.262  58.542 -50.842  1.00  0.00    -0.323 N 
HETATM   15  H   UNL     1     -44.086  58.419 -50.269  1.00  0.00     0.169 HD
HETATM   16  O   UNL     1     -41.971  60.114 -51.977  1.00  0.00    -0.267 OA
BRANCH  14  17
HETATM   17  C   UNL     1     -42.596  57.326 -51.119  1.00  0.00     0.035 A 
HETATM   18  C   UNL     1     -41.478  56.857 -50.431  1.00  0.00     0.030 A 
HETATM   19  C   UNL     1     -40.895  55.625 -50.774  1.00  0.00     0.017 A 
HETATM   20  C   UNL     1     -41.432  54.840 -51.802  1.00  0.00     0.010 A 
HETATM   21  C   UNL     1     -42.556  55.316 -52.484  1.00  0.00     0.017 A 
HETATM   22  C   UNL     1     -43.125  56.549 -52.156  1.00  0.00     0.030 A 
BRANCH  20  23
HETATM   23  C   UNL     1     -40.885  53.535 -52.171  1.00  0.00     0.139 A 
HETATM   24  N   UNL     1     -40.440  52.627 -51.320  1.00  0.00    -0.228 NA
HETATM   25  C   UNL     1     -40.052  51.551 -52.078  1.00  0.00     0.086 A 
HETATM   26  C   UNL     1     -40.284  51.788 -53.427  1.00  0.00     0.062 A 
HETATM   27  C   UNL     1     -39.499  50.326 -51.681  1.00  0.00     0.034 A 
HETATM   28  N   UNL     1     -40.805  53.056 -53.459  1.00  0.00    -0.338 N 
HETATM   29  C   UNL     1     -40.007  50.854 -54.428  1.00  0.00     0.032 A 
HETATM   30  H   UNL     1     -41.117  53.541 -54.286  1.00  0.00     0.167 HD
HETATM   31  C   UNL     1     -39.460  49.634 -54.012  1.00  0.00     0.002 A 
HETATM   32  C   UNL     1     -39.205  49.372 -52.663  1.00  0.00     0.002 A 
ENDBRANCH  20  23
ENDBRANCH  14  17
ENDBRANCH   8  13
BRANCH   1  33
HETATM   33  C   UNL     1     -45.080  62.231 -54.121  1.00  0.00     0.034 A 
HETATM   34  C   UNL     1     -44.471  63.415 -54.570  1.00  0.00     0.032 A 
HETATM   35  C   UNL     1     -45.051  64.175 -55.598  1.00  0.00     0.039 A 
HETATM   36  C   UNL     1     -46.231  63.750 -56.201  1.00  0.00     0.068 A 
HETATM   37  C   UNL     1     -46.812  62.552 -55.784  1.00  0.00     0.039 A 
HETATM   38  C   UNL     1     -46.244  61.792 -54.755  1.00  0.00     0.032 A 
BRANCH  36  39
HETATM   39  O   UNL     1     -46.904  64.388 -57.201  1.00  0.00    -0.356 OA
HETATM   40  C   UNL     1     -47.922  63.657 -57.876  1.00  0.00     0.210 C 
ENDBRANCH  36  39
ENDBRANCH   1  33
BRANCH   9  41
HETATM   41  O   UNL     1     -47.028  64.710 -50.746  1.00  0.00    -0.353 OA
HETATM   42  C   UNL     1     -48.350  64.236 -50.986  1.00  0.00     0.210 C 
ENDBRANCH   9  41
TORSDOF 6
ENDMDL
MODEL 7
REMARK VINA RESULT:      -8.3      7.381      8.793
REMARK  6 active torsions:
REMARK  status: ('A' for Active; 'I' for Inactive)
REMARK    1  A    between atoms: O_2  and  C_3 
REMARK    2  A    between atoms: C_6  and  N_7 
REMARK    3  A    between atoms: C_14  and  C_15 
REMARK       I    between atoms: C_15  and  N_16 
REMARK    4  A    between atoms: N_16  and  C_17 
REMARK    5  A    between atoms: C_20  and  C_21 
REMARK    6  A    between atoms: C_34  and  O_35 
ROOT
HETATM    1  N   UNL     1     -42.912  59.799 -58.874  1.00  0.00    -0.336 N 
HETATM    2  H   UNL     1     -42.471  59.007 -58.381  1.00  0.00     0.168 HD
HETATM    3  C   UNL     1     -44.197  59.800 -58.896  1.00  0.00     0.164 A 
HETATM    4  O   UNL     1     -44.794  60.921 -59.411  1.00  0.00    -0.289 OA
HETATM    5  C   UNL     1     -46.192  61.091 -59.385  1.00  0.00     0.121 A 
HETATM    6  C   UNL     1     -46.996  60.113 -58.808  1.00  0.00     0.002 A 
HETATM    7  C   UNL     1     -46.377  58.905 -58.272  1.00  0.00     0.035 A 
HETATM    8  C   UNL     1     -45.049  58.710 -58.339  1.00  0.00     0.084 A 
HETATM    9  C   UNL     1     -46.718  62.265 -59.941  1.00  0.00     0.102 A 
HETATM   10  C   UNL     1     -48.099  62.450 -59.901  1.00  0.00     0.040 A 
HETATM   11  C   UNL     1     -48.923  61.480 -59.318  1.00  0.00     0.004 A 
HETATM   12  C   UNL     1     -48.375  60.315 -58.774  1.00  0.00     0.014 A 
ENDROOT
BRANCH   8  13
HETATM   13  C   UNL     1     -44.374  57.470 -57.807  1.00  0.00     0.260 C 
HETATM   14  N   UNL     1     -44.172  57.401 -56.452  1.00  0.00    -0.323 N 
HETATM   15  H   UNL     1     -44.488  58.164 -55.869  1.00  0.00     0.169 HD
HETATM   16  O   UNL     1     -44.092  56.608 -58.641  1.00  0.00    -0.267 OA
BRANCH  14  17
HETATM   17  C   UNL     1     -43.542  56.370 -55.719  1.00  0.00     0.035 A 
HETATM   18  C   UNL     1     -44.056  55.787 -54.562  1.00  0.00     0.030 A 
HETATM   19  C   UNL     1     -43.355  54.755 -53.912  1.00  0.00     0.017 A 
HETATM   20  C   UNL     1     -42.138  54.286 -54.420  1.00  0.00     0.010 A 
HETATM   21  C   UNL     1     -41.632  54.873 -55.583  1.00  0.00     0.017 A 
HETATM   22  C   UNL     1     -42.318  55.911 -56.219  1.00  0.00     0.030 A 
BRANCH  20  23
HETATM   23  C   UNL     1     -41.392  53.189 -53.802  1.00  0.00     0.139 A 
HETATM   24  N   UNL     1     -41.008  53.145 -52.539  1.00  0.00    -0.228 NA
HETATM   25  C   UNL     1     -40.374  51.940 -52.374  1.00  0.00     0.086 A 
HETATM   26  C   UNL     1     -40.386  51.210 -53.556  1.00  0.00     0.062 A 
HETATM   27  C   UNL     1     -39.768  51.393 -51.235  1.00  0.00     0.034 A 
HETATM   28  N   UNL     1     -41.031  52.028 -54.448  1.00  0.00    -0.338 N 
HETATM   29  C   UNL     1     -39.832  49.934 -53.674  1.00  0.00     0.032 A 
HETATM   30  H   UNL     1     -41.242  51.799 -55.407  1.00  0.00     0.167 HD
HETATM   31  C   UNL     1     -39.236  49.401 -52.525  1.00  0.00     0.002 A 
HETATM   32  C   UNL     1     -39.199  50.116 -51.325  1.00  0.00     0.002 A 
ENDBRANCH  20  23
ENDBRANCH  14  17
ENDBRANCH   8  13
BRANCH   1  33
HETATM   33  C   UNL     1     -42.005  60.766 -59.351  1.00  0.00     0.034 A 
HETATM   34  C   UNL     1     -41.267  61.465 -58.381  1.00  0.00     0.032 A 
HETATM   35  C   UNL     1     -40.357  62.467 -58.755  1.00  0.00     0.039 A 
HETATM   36  C   UNL     1     -40.160  62.765 -60.100  1.00  0.00     0.068 A 
HETATM   37  C   UNL     1     -40.861  62.041 -61.065  1.00  0.00     0.039 A 
HETATM   38  C   UNL     1     -41.775  61.046 -60.700  1.00  0.00     0.032 A 
BRANCH  36  39
HETATM   39  O   UNL     1     -39.317  63.712 -60.603  1.00  0.00    -0.356 OA
HETATM   40  C   UNL     1     -38.355  64.270 -59.714  1.00  0.00     0.210 C 
ENDBRANCH  36  39
ENDBRANCH   1  33
BRANCH   9  41
HETATM   41  O   UNL     1     -45.807  63.131 -60.482  1.00  0.00    -0.353 OA
HETATM   42  C   UNL     1     -45.567  64.342 -59.771  1.00  0.00     0.210 C 
ENDBRANCH   9  41
TORSDOF 6
ENDMDL
MODEL 8
REMARK VINA RESULT:      -8.3      6.121     10.791
REMARK  6 active torsions:
REMARK  status: ('A' for Active; 'I' for Inactive)
REMARK    1  A    between atoms: O_2  and  C_3 
REMARK    2  A    between atoms: C_6  and  N_7 
REMARK    3  A    between atoms: C_14  and  C_15 
REMARK       I    between atoms: C_15  and  N_16 
REMARK    4  A    between atoms: N_16  and  C_17 
REMARK    5  A    between atoms: C_20  and  C_21 
REMARK    6  A    between atoms: C_34  and  O_35 
ROOT
HETATM    1  N   UNL     1     -42.753  57.958 -54.009  1.00  0.00    -0.336 N 
HETATM    2  H   UNL     1     -43.002  58.469 -54.871  1.00  0.00     0.168 HD
HETATM    3  C   UNL     1     -42.342  56.750 -54.172  1.00  0.00     0.164 A 
HETATM    4  O   UNL     1     -41.864  56.117 -53.055  1.00  0.00    -0.289 OA
HETATM    5  C   UNL     1     -41.280  54.836 -53.126  1.00  0.00     0.121 A 
HETATM    6  C   UNL     1     -41.163  54.198 -54.357  1.00  0.00     0.002 A 
HETATM    7  C   UNL     1     -41.683  54.852 -55.553  1.00  0.00     0.035 A 
HETATM    8  C   UNL     1     -42.289  56.050 -55.488  1.00  0.00     0.084 A 
HETATM    9  C   UNL     1     -40.825  54.259 -51.933  1.00  0.00     0.102 A 
HETATM   10  C   UNL     1     -40.228  53.001 -51.997  1.00  0.00     0.040 A 
HETATM   11  C   UNL     1     -40.095  52.347 -53.228  1.00  0.00     0.004 A 
HETATM   12  C   UNL     1     -40.562  52.941 -54.404  1.00  0.00     0.014 A 
ENDROOT
BRANCH   8  13
HETATM   13  C   UNL     1     -42.850  56.752 -56.700  1.00  0.00     0.260 C 
HETATM   14  N   UNL     1     -44.186  56.582 -56.958  1.00  0.00    -0.323 N 
HETATM   15  H   UNL     1     -44.739  56.013 -56.331  1.00  0.00     0.169 HD
HETATM   16  O   UNL     1     -42.057  57.448 -57.336  1.00  0.00    -0.267 OA
BRANCH  14  17
HETATM   17  C   UNL     1     -44.936  57.104 -58.036  1.00  0.00     0.035 A 
HETATM   18  C   UNL     1     -44.827  56.681 -59.360  1.00  0.00     0.030 A 
HETATM   19  C   UNL     1     -45.630  57.256 -60.361  1.00  0.00     0.017 A 
HETATM   20  C   UNL     1     -46.562  58.252 -60.046  1.00  0.00     0.010 A 
HETATM   21  C   UNL     1     -46.669  58.667 -58.716  1.00  0.00     0.017 A 
HETATM   22  C   UNL     1     -45.858  58.110 -57.724  1.00  0.00     0.030 A 
BRANCH  20  23
HETATM   23  C   UNL     1     -47.447  58.852 -61.045  1.00  0.00     0.139 A 
HETATM   24  N   UNL     1     -48.429  58.226 -61.669  1.00  0.00    -0.228 NA
HETATM   25  C   UNL     1     -49.017  59.158 -62.486  1.00  0.00     0.086 A 
HETATM   26  C   UNL     1     -48.402  60.395 -62.348  1.00  0.00     0.062 A 
HETATM   27  C   UNL     1     -50.095  59.021 -63.372  1.00  0.00     0.034 A 
HETATM   28  N   UNL     1     -47.404  60.172 -61.433  1.00  0.00    -0.338 N 
HETATM   29  C   UNL     1     -48.810  61.536 -63.042  1.00  0.00     0.032 A 
HETATM   30  H   UNL     1     -46.771  60.870 -61.075  1.00  0.00     0.167 HD
HETATM   31  C   UNL     1     -49.891  61.383 -63.919  1.00  0.00     0.002 A 
HETATM   32  C   UNL     1     -50.523  60.147 -64.086  1.00  0.00     0.002 A 
ENDBRANCH  20  23
ENDBRANCH  14  17
ENDBRANCH   8  13
BRANCH   1  33
HETATM   33  C   UNL     1     -42.836  58.727 -52.831  1.00  0.00     0.034 A 
HETATM   34  C   UNL     1     -44.062  58.692 -52.146  1.00  0.00     0.032 A 
HETATM   35  C   UNL     1     -44.252  59.445 -50.976  1.00  0.00     0.039 A 
HETATM   36  C   UNL     1     -43.214  60.221 -50.469  1.00  0.00     0.068 A 
HETATM   37  C   UNL     1     -41.983  60.221 -51.125  1.00  0.00     0.039 A 
HETATM   38  C   UNL     1     -41.788  59.479 -52.296  1.00  0.00     0.032 A 
BRANCH  36  39
HETATM   39  O   UNL     1     -43.260  61.003 -49.351  1.00  0.00    -0.356 OA
HETATM   40  C   UNL     1     -44.544  61.416 -48.896  1.00  0.00     0.210 C 
ENDBRANCH  36  39
ENDBRANCH   1  33
BRANCH   9  41
HETATM   41  O   UNL     1     -41.017  55.000 -50.799  1.00  0.00    -0.353 OA
HETATM   42  C   UNL     1     -40.624  54.405 -49.566  1.00  0.00     0.210 C 
ENDBRANCH   9  41
TORSDOF 6
ENDMDL
MODEL 9
REMARK VINA RESULT:      -8.2      5.765     10.613
REMARK  6 active torsions:
REMARK  status: ('A' for Active; 'I' for Inactive)
REMARK    1  A    between atoms: O_2  and  C_3 
REMARK    2  A    between atoms: C_6  and  N_7 
REMARK    3  A    between atoms: C_14  and  C_15 
REMARK       I    between atoms: C_15  and  N_16 
REMARK    4  A    between atoms: N_16  and  C_17 
REMARK    5  A    between atoms: C_20  and  C_21 
REMARK    6  A    between atoms: C_34  and  O_35 
ROOT
HETATM    1  N   UNL     1     -42.699  56.809 -53.738  1.00  0.00    -0.336 N 
HETATM    2  H   UNL     1     -43.110  57.068 -54.649  1.00  0.00     0.168 HD
HETATM    3  C   UNL     1     -42.213  55.622 -53.659  1.00  0.00     0.164 A 
HETATM    4  O   UNL     1     -41.529  55.322 -52.510  1.00  0.00    -0.289 OA
HETATM    5  C   UNL     1     -40.853  54.096 -52.351  1.00  0.00     0.121 A 
HETATM    6  C   UNL     1     -40.856  53.167 -53.387  1.00  0.00     0.002 A 
HETATM    7  C   UNL     1     -41.595  53.464 -54.610  1.00  0.00     0.035 A 
HETATM    8  C   UNL     1     -42.286  54.608 -54.750  1.00  0.00     0.084 A 
HETATM    9  C   UNL     1     -40.187  53.869 -51.140  1.00  0.00     0.102 A 
HETATM   10  C   UNL     1     -39.499  52.667 -50.982  1.00  0.00     0.040 A 
HETATM   11  C   UNL     1     -39.485  51.723 -52.016  1.00  0.00     0.004 A 
HETATM   12  C   UNL     1     -40.162  51.970 -53.214  1.00  0.00     0.014 A 
ENDROOT
BRANCH   8  13
HETATM   13  C   UNL     1     -43.070  54.945 -55.994  1.00  0.00     0.260 C 
HETATM   14  N   UNL     1     -43.081  56.259 -56.389  1.00  0.00    -0.323 N 
HETATM   15  H   UNL     1     -42.562  56.938 -55.850  1.00  0.00     0.169 HD
HETATM   16  O   UNL     1     -43.609  53.997 -56.566  1.00  0.00    -0.267 OA
BRANCH  14  17
HETATM   17  C   UNL     1     -43.759  56.829 -57.490  1.00  0.00     0.035 A 
HETATM   18  C   UNL     1     -43.515  56.512 -58.826  1.00  0.00     0.030 A 
HETATM   19  C   UNL     1     -44.255  57.127 -59.851  1.00  0.00     0.017 A 
HETATM   20  C   UNL     1     -45.258  58.057 -59.551  1.00  0.00     0.010 A 
HETATM   21  C   UNL     1     -45.499  58.366 -58.209  1.00  0.00     0.017 A 
HETATM   22  C   UNL     1     -44.751  57.769 -57.191  1.00  0.00     0.030 A 
BRANCH  20  23
HETATM   23  C   UNL     1     -46.080  58.695 -60.579  1.00  0.00     0.139 A 
HETATM   24  N   UNL     1     -47.342  58.401 -60.836  1.00  0.00    -0.228 NA
HETATM   25  C   UNL     1     -47.735  59.249 -61.841  1.00  0.00     0.086 A 
HETATM   26  C   UNL     1     -46.700  60.104 -62.198  1.00  0.00     0.062 A 
HETATM   27  C   UNL     1     -48.970  59.354 -62.495  1.00  0.00     0.034 A 
HETATM   28  N   UNL     1     -45.660  59.726 -61.388  1.00  0.00    -0.338 N 
HETATM   29  C   UNL     1     -46.824  61.090 -63.179  1.00  0.00     0.032 A 
HETATM   30  H   UNL     1     -44.750  60.160 -61.362  1.00  0.00     0.167 HD
HETATM   31  C   UNL     1     -48.066  61.184 -63.819  1.00  0.00     0.002 A 
HETATM   32  C   UNL     1     -49.122  60.330 -63.488  1.00  0.00     0.002 A 
ENDBRANCH  20  23
ENDBRANCH  14  17
ENDBRANCH   8  13
BRANCH   1  33
HETATM   33  C   UNL     1     -42.681  57.852 -52.790  1.00  0.00     0.034 A 
HETATM   34  C   UNL     1     -43.864  58.057 -52.061  1.00  0.00     0.032 A 
HETATM   35  C   UNL     1     -43.953  59.087 -51.113  1.00  0.00     0.039 A 
HETATM   36  C   UNL     1     -42.856  59.909 -50.868  1.00  0.00     0.068 A 
HETATM   37  C   UNL     1     -41.668  59.678 -51.561  1.00  0.00     0.039 A 
HETATM   38  C   UNL     1     -41.573  58.657 -52.514  1.00  0.00     0.032 A 
BRANCH  36  39
HETATM   39  O   UNL     1     -42.805  60.947 -49.984  1.00  0.00    -0.356 OA
HETATM   40  C   UNL     1     -42.959  62.261 -50.508  1.00  0.00     0.210 C 
ENDBRANCH  36  39
ENDBRANCH   1  33
BRANCH   9  41
HETATM   41  O   UNL     1     -40.279  54.868 -50.210  1.00  0.00    -0.353 OA
HETATM   42  C   UNL     1     -40.985  54.569 -49.009  1.00  0.00     0.210 C 
ENDBRANCH   9  41
TORSDOF 6
ENDMDL
MODEL 10
REMARK VINA RESULT:      -7.8      6.129     11.424
REMARK  6 active torsions:
REMARK  status: ('A' for Active; 'I' for Inactive)
REMARK    1  A    between atoms: O_2  and  C_3 
REMARK    2  A    between atoms: C_6  and  N_7 
REMARK    3  A    between atoms: C_14  and  C_15 
REMARK       I    between atoms: C_15  and  N_16 
REMARK    4  A    between atoms: N_16  and  C_17 
REMARK    5  A    between atoms: C_20  and  C_21 
REMARK    6  A    between atoms: C_34  and  O_35 
ROOT
HETATM    1  N   UNL     1     -42.149  56.098 -54.668  1.00  0.00    -0.336 N 
HETATM    2  H   UNL     1     -42.682  56.087 -55.551  1.00  0.00     0.168 HD
HETATM    3  C   UNL     1     -42.152  57.212 -54.025  1.00  0.00     0.164 A 
HETATM    4  O   UNL     1     -41.580  57.194 -52.779  1.00  0.00    -0.289 OA
HETATM    5  C   UNL     1     -41.623  58.319 -51.932  1.00  0.00     0.121 A 
HETATM    6  C   UNL     1     -42.276  59.474 -52.350  1.00  0.00     0.002 A 
HETATM    7  C   UNL     1     -42.875  59.514 -53.680  1.00  0.00     0.035 A 
HETATM    8  C   UNL     1     -42.793  58.465 -54.516  1.00  0.00     0.084 A 
HETATM    9  C   UNL     1     -41.005  58.216 -50.679  1.00  0.00     0.102 A 
HETATM   10  C   UNL     1     -41.061  59.317 -49.825  1.00  0.00     0.040 A 
HETATM   11  C   UNL     1     -41.720  60.485 -50.226  1.00  0.00     0.004 A 
HETATM   12  C   UNL     1     -42.324  60.566 -51.484  1.00  0.00     0.014 A 
ENDROOT
BRANCH   8  13
HETATM   13  C   UNL     1     -43.389  58.473 -55.902  1.00  0.00     0.260 C 
HETATM   14  N   UNL     1     -44.692  58.882 -56.020  1.00  0.00    -0.323 N 
HETATM   15  H   UNL     1     -45.194  59.169 -55.191  1.00  0.00     0.169 HD
HETATM   16  O   UNL     1     -42.633  58.139 -56.816  1.00  0.00    -0.267 OA
BRANCH  14  17
HETATM   17  C   UNL     1     -45.479  58.949 -57.192  1.00  0.00     0.035 A 
HETATM   18  C   UNL     1     -45.329  58.117 -58.301  1.00  0.00     0.030 A 
HETATM   19  C   UNL     1     -46.174  58.256 -59.416  1.00  0.00     0.017 A 
HETATM   20  C   UNL     1     -47.188  59.221 -59.431  1.00  0.00     0.010 A 
HETATM   21  C   UNL     1     -47.334  60.049 -58.314  1.00  0.00     0.017 A 
HETATM   22  C   UNL     1     -46.484  59.924 -57.213  1.00  0.00     0.030 A 
BRANCH  20  23
HETATM   23  C   UNL     1     -48.116  59.378 -60.551  1.00  0.00     0.139 A 
HETATM   24  N   UNL     1     -48.427  58.435 -61.422  1.00  0.00    -0.228 NA
HETATM   25  C   UNL     1     -49.346  58.991 -62.275  1.00  0.00     0.086 A 
HETATM   26  C   UNL     1     -49.629  60.301 -61.910  1.00  0.00     0.062 A 
HETATM   27  C   UNL     1     -49.994  58.431 -63.385  1.00  0.00     0.034 A 
HETATM   28  N   UNL     1     -48.830  60.524 -60.818  1.00  0.00    -0.338 N 
HETATM   29  C   UNL     1     -50.549  61.103 -62.588  1.00  0.00     0.032 A 
HETATM   30  H   UNL     1     -48.802  61.375 -60.277  1.00  0.00     0.167 HD
HETATM   31  C   UNL     1     -51.191  60.526 -63.691  1.00  0.00     0.002 A 
HETATM   32  C   UNL     1     -50.918  59.214 -64.087  1.00  0.00     0.002 A 
ENDBRANCH  20  23
ENDBRANCH  14  17
ENDBRANCH   8  13
BRANCH   1  33
HETATM   33  C   UNL     1     -41.595  54.854 -54.306  1.00  0.00     0.034 A 
HETATM   34  C   UNL     1     -40.563  54.366 -55.123  1.00  0.00     0.032 A 
HETATM   35  C   UNL     1     -39.965  53.123 -54.860  1.00  0.00     0.039 A 
HETATM   36  C   UNL     1     -40.377  52.367 -53.766  1.00  0.00     0.068 A 
HETATM   37  C   UNL     1     -41.373  52.872 -52.930  1.00  0.00     0.039 A 
HETATM   38  C   UNL     1     -41.978  54.107 -53.190  1.00  0.00     0.032 A 
BRANCH  36  39
HETATM   39  O   UNL     1     -39.891  51.147 -53.398  1.00  0.00    -0.356 OA
HETATM   40  C   UNL     1     -40.024  50.080 -54.331  1.00  0.00     0.210 C 
ENDBRANCH  36  39
ENDBRANCH   1  33
BRANCH   9  41
HETATM   41  O   UNL     1     -40.394  57.022 -50.409  1.00  0.00    -0.353 OA
HETATM   42  C   UNL     1     -41.184  56.021 -49.775  1.00  0.00     0.210 C 
ENDBRANCH   9  41
TORSDOF 6
ENDMDL
