MODEL 1
REMARK VINA RESULT:      -8.0      0.000      0.000
REMARK  7 active torsions:
REMARK  status: ('A' for Active; 'I' for Inactive)
REMARK    1  A    between atoms: C_4  and  C_5 
REMARK    2  A    between atoms: C_7  and  C_8 
REMARK    3  A    between atoms: C_8  and  N_9 
REMARK       I    between atoms: N_9  and  C_10 
REMARK       I    between atoms: C_10  and  N_11 
REMARK    4  A    between atoms: N_11  and  C_12 
REMARK    5  A    between atoms: C_14  and  O_15 
REMARK    6  A    between atoms: O_15  and  C_16 
REMARK    7  A    between atoms: C_16  and  C_17 
ROOT
HETATM    1  N   UNL     1     -42.104  56.325 -52.203  1.00  0.00    -0.339 N 
HETATM    2  C   UNL     1     -43.450  56.544 -52.186  1.00  0.00     0.320 C 
HETATM    3  N   UNL     1     -44.133  56.309 -53.339  1.00  0.00    -0.309 N 
HETATM    4  O   UNL     1     -44.065  56.866 -51.173  1.00  0.00    -0.247 OA
HETATM    5  H   UNL     1     -41.856  55.555 -52.807  1.00  0.00     0.164 HD
HETATM    6  H   UNL     1     -45.130  56.260 -53.164  1.00  0.00     0.170 HD
ENDROOT
BRANCH   1   7
HETATM    7  C   UNL     1     -41.368  56.420 -50.960  1.00  0.00     0.162 C 
BRANCH   7   8
HETATM    8  C   UNL     1     -40.959  55.100 -50.348  1.00  0.00    -0.040 A 
HETATM    9  C   UNL     1     -40.650  53.956 -51.100  1.00  0.00     0.024 A 
HETATM   10  C   UNL     1     -40.329  52.736 -50.480  1.00  0.00     0.014 A 
HETATM   11  C   UNL     1     -40.325  52.665 -49.082  1.00  0.00     0.015 A 
HETATM   12  C   UNL     1     -40.632  53.791 -48.318  1.00  0.00     0.002 A 
HETATM   13  C   UNL     1     -40.949  54.995 -48.948  1.00  0.00     0.009 A 
BRANCH  10  14
HETATM   14  C   UNL     1     -40.003  51.559 -51.278  1.00  0.00     0.181 A 
HETATM   15  N   UNL     1     -39.935  51.589 -52.654  1.00  0.00    -0.212 NA
HETATM   16  C   UNL     1     -39.630  50.353 -52.984  1.00  0.00     0.118 A 
HETATM   17  C   UNL     1     -39.404  49.805 -54.336  1.00  0.00     0.093 C 
HETATM   18  N   UNL     1     -39.542  49.603 -51.848  1.00  0.00    -0.263 N 
HETATM   19  N   UNL     1     -39.749  50.349 -50.753  1.00  0.00    -0.152 NA
HETATM   20  H   UNL     1     -39.350  48.613 -51.746  1.00  0.00     0.190 HD
ENDBRANCH  10  14
ENDBRANCH   7   8
ENDBRANCH   1   7
BRANCH   3  21
HETATM   21  C   UNL     1     -43.728  56.208 -54.682  1.00  0.00     0.039 A 
HETATM   22  C   UNL     1     -43.751  57.274 -55.592  1.00  0.00     0.066 A 
HETATM   23  C   UNL     1     -43.372  57.074 -56.924  1.00  0.00     0.070 A 
HETATM   24  C   UNL     1     -42.962  55.806 -57.342  1.00  0.00     0.037 A 
HETATM   25  C   UNL     1     -42.952  54.738 -56.451  1.00  0.00     0.005 A 
HETATM   26  C   UNL     1     -43.346  54.937 -55.129  1.00  0.00     0.030 A 
BRANCH  23  27
HETATM   27  O   UNL     1     -43.373  58.019 -57.914  1.00  0.00    -0.349 OA
BRANCH  27  28
HETATM   28  C   UNL     1     -42.128  58.298 -58.560  1.00  0.00     0.207 C 
BRANCH  28  29
HETATM   29  C   UNL     1     -42.265  57.969 -60.039  1.00  0.00     0.248 C 
HETATM   30  F   UNL     1     -41.593  56.816 -60.319  1.00  0.00    -0.253 F 
ENDBRANCH  28  29
ENDBRANCH  27  28
ENDBRANCH  23  27
ENDBRANCH   3  21
TORSDOF 7
ENDMDL
MODEL 2
REMARK VINA RESULT:      -7.9      2.267      2.922
REMARK  7 active torsions:
REMARK  status: ('A' for Active; 'I' for Inactive)
REMARK    1  A    between atoms: C_4  and  C_5 
REMARK    2  A    between atoms: C_7  and  C_8 
REMARK    3  A    between atoms: C_8  and  N_9 
REMARK       I    between atoms: N_9  and  C_10 
REMARK       I    between atoms: C_10  and  N_11 
REMARK    4  A    between atoms: N_11  and  C_12 
REMARK    5  A    between atoms: C_14  and  O_15 
REMARK    6  A    between atoms: O_15  and  C_16 
REMARK    7  A    between atoms: C_16  and  C_17 
ROOT
HETATM    1  N   UNL     1     -42.114  58.031 -53.002  1.00  0.00    -0.339 N 
HETATM    2  C   UNL     1     -41.291  58.833 -53.737  1.00  0.00     0.320 C 
HETATM    3  N   UNL     1     -41.693  59.150 -54.997  1.00  0.00    -0.309 N 
HETATM    4  O   UNL     1     -40.261  59.330 -53.287  1.00  0.00    -0.247 OA
HETATM    5  H   UNL     1     -43.087  58.200 -53.212  1.00  0.00     0.164 HD
HETATM    6  H   UNL     1     -41.156  59.927 -55.363  1.00  0.00     0.170 HD
ENDROOT
BRANCH   1   7
HETATM    7  C   UNL     1     -41.795  57.796 -51.610  1.00  0.00     0.162 C 
BRANCH   7   8
HETATM    8  C   UNL     1     -41.285  56.410 -51.289  1.00  0.00    -0.040 A 
HETATM    9  C   UNL     1     -41.207  55.372 -52.230  1.00  0.00     0.024 A 
HETATM   10  C   UNL     1     -40.777  54.084 -51.866  1.00  0.00     0.014 A 
HETATM   11  C   UNL     1     -40.427  53.836 -50.534  1.00  0.00     0.015 A 
HETATM   12  C   UNL     1     -40.500  54.854 -49.585  1.00  0.00     0.002 A 
HETATM   13  C   UNL     1     -40.929  56.128 -49.960  1.00  0.00     0.009 A 
BRANCH  10  14
HETATM   14  C   UNL     1     -40.694  53.019 -52.860  1.00  0.00     0.181 A 
HETATM   15  N   UNL     1     -39.848  51.939 -52.724  1.00  0.00    -0.212 NA
HETATM   16  C   UNL     1     -40.063  51.229 -53.810  1.00  0.00     0.118 A 
HETATM   17  C   UNL     1     -39.444  49.943 -54.190  1.00  0.00     0.093 C 
HETATM   18  N   UNL     1     -40.987  51.871 -54.581  1.00  0.00    -0.263 N 
HETATM   19  N   UNL     1     -41.421  52.995 -53.989  1.00  0.00    -0.152 NA
HETATM   20  H   UNL     1     -41.358  51.613 -55.488  1.00  0.00     0.190 HD
ENDBRANCH  10  14
ENDBRANCH   7   8
ENDBRANCH   1   7
BRANCH   3  21
HETATM   21  C   UNL     1     -42.622  58.564 -55.876  1.00  0.00     0.039 A 
HETATM   22  C   UNL     1     -42.466  57.297 -56.456  1.00  0.00     0.066 A 
HETATM   23  C   UNL     1     -43.420  56.809 -57.355  1.00  0.00     0.070 A 
HETATM   24  C   UNL     1     -44.535  57.589 -57.668  1.00  0.00     0.037 A 
HETATM   25  C   UNL     1     -44.692  58.854 -57.112  1.00  0.00     0.005 A 
HETATM   26  C   UNL     1     -43.731  59.343 -56.228  1.00  0.00     0.030 A 
BRANCH  23  27
HETATM   27  O   UNL     1     -43.373  55.607 -58.007  1.00  0.00    -0.349 OA
BRANCH  27  28
HETATM   28  C   UNL     1     -43.419  55.631 -59.437  1.00  0.00     0.207 C 
BRANCH  28  29
HETATM   29  C   UNL     1     -44.494  54.663 -59.904  1.00  0.00     0.248 C 
HETATM   30  F   UNL     1     -44.517  53.571 -59.086  1.00  0.00    -0.253 F 
ENDBRANCH  28  29
ENDBRANCH  27  28
ENDBRANCH  23  27
ENDBRANCH   3  21
TORSDOF 7
ENDMDL
MODEL 3
REMARK VINA RESULT:      -7.7      3.580      7.413
REMARK  7 active torsions:
REMARK  status: ('A' for Active; 'I' for Inactive)
REMARK    1  A    between atoms: C_4  and  C_5 
REMARK    2  A    between atoms: C_7  and  C_8 
REMARK    3  A    between atoms: C_8  and  N_9 
REMARK       I    between atoms: N_9  and  C_10 
REMARK       I    between atoms: C_10  and  N_11 
REMARK    4  A    between atoms: N_11  and  C_12 
REMARK    5  A    between atoms: C_14  and  O_15 
REMARK    6  A    between atoms: O_15  and  C_16 
REMARK    7  A    between atoms: C_16  and  C_17 
ROOT
HETATM    1  N   UNL     1     -42.984  55.069 -53.771  1.00  0.00    -0.339 N 
HETATM    2  C   UNL     1     -42.552  54.525 -54.945  1.00  0.00     0.320 C 
HETATM    3  N   UNL     1     -41.822  53.380 -54.868  1.00  0.00    -0.309 N 
HETATM    4  O   UNL     1     -42.853  54.978 -56.046  1.00  0.00    -0.247 OA
HETATM    5  H   UNL     1     -43.197  54.360 -53.085  1.00  0.00     0.164 HD
HETATM    6  H   UNL     1     -41.761  52.929 -55.774  1.00  0.00     0.170 HD
ENDROOT
BRANCH   1   7
HETATM    7  C   UNL     1     -43.886  56.200 -53.818  1.00  0.00     0.162 C 
BRANCH   7   8
HETATM    8  C   UNL     1     -43.461  57.401 -53.007  1.00  0.00    -0.040 A 
HETATM    9  C   UNL     1     -42.124  57.706 -52.710  1.00  0.00     0.024 A 
HETATM   10  C   UNL     1     -41.785  58.806 -51.903  1.00  0.00     0.014 A 
HETATM   11  C   UNL     1     -42.807  59.607 -51.381  1.00  0.00     0.015 A 
HETATM   12  C   UNL     1     -44.141  59.318 -51.663  1.00  0.00     0.002 A 
HETATM   13  C   UNL     1     -44.463  58.223 -52.466  1.00  0.00     0.009 A 
BRANCH  10  14
HETATM   14  C   UNL     1     -40.388  59.112 -51.611  1.00  0.00     0.181 A 
HETATM   15  N   UNL     1     -39.944  59.421 -50.343  1.00  0.00    -0.212 NA
HETATM   16  C   UNL     1     -38.656  59.636 -50.501  1.00  0.00     0.118 A 
HETATM   17  C   UNL     1     -37.660  59.982 -49.467  1.00  0.00     0.093 C 
HETATM   18  N   UNL     1     -38.343  59.484 -51.820  1.00  0.00    -0.263 N 
HETATM   19  N   UNL     1     -39.418  59.128 -52.540  1.00  0.00    -0.152 NA
HETATM   20  H   UNL     1     -37.451  59.602 -52.286  1.00  0.00     0.190 HD
ENDBRANCH  10  14
ENDBRANCH   7   8
ENDBRANCH   1   7
BRANCH   3  21
HETATM   21  C   UNL     1     -41.100  52.779 -53.822  1.00  0.00     0.039 A 
HETATM   22  C   UNL     1     -41.097  53.245 -52.499  1.00  0.00     0.066 A 
HETATM   23  C   UNL     1     -40.313  52.612 -51.528  1.00  0.00     0.070 A 
HETATM   24  C   UNL     1     -39.536  51.507 -51.882  1.00  0.00     0.037 A 
HETATM   25  C   UNL     1     -39.518  51.047 -53.196  1.00  0.00     0.005 A 
HETATM   26  C   UNL     1     -40.288  51.690 -54.163  1.00  0.00     0.030 A 
BRANCH  23  27
HETATM   27  O   UNL     1     -40.202  52.980 -50.216  1.00  0.00    -0.349 OA
BRANCH  27  28
HETATM   28  C   UNL     1     -39.976  54.366 -49.938  1.00  0.00     0.207 C 
BRANCH  28  29
HETATM   29  C   UNL     1     -41.263  54.966 -49.393  1.00  0.00     0.248 C 
HETATM   30  F   UNL     1     -41.329  56.288 -49.722  1.00  0.00    -0.253 F 
ENDBRANCH  28  29
ENDBRANCH  27  28
ENDBRANCH  23  27
ENDBRANCH   3  21
TORSDOF 7
ENDMDL
MODEL 4
REMARK VINA RESULT:      -7.5      2.890      3.802
REMARK  7 active torsions:
REMARK  status: ('A' for Active; 'I' for Inactive)
REMARK    1  A    between atoms: C_4  and  C_5 
REMARK    2  A    between atoms: C_7  and  C_8 
REMARK    3  A    between atoms: C_8  and  N_9 
REMARK       I    between atoms: N_9  and  C_10 
REMARK       I    between atoms: C_10  and  N_11 
REMARK    4  A    between atoms: N_11  and  C_12 
REMARK    5  A    between atoms: C_14  and  O_15 
REMARK    6  A    between atoms: O_15  and  C_16 
REMARK    7  A    between atoms: C_16  and  C_17 
ROOT
HETATM    1  N   UNL     1     -42.536  57.892 -55.431  1.00  0.00    -0.339 N 
HETATM    2  C   UNL     1     -42.572  59.170 -55.908  1.00  0.00     0.320 C 
HETATM    3  N   UNL     1     -43.628  59.510 -56.696  1.00  0.00    -0.309 N 
HETATM    4  O   UNL     1     -41.747  60.025 -55.598  1.00  0.00    -0.247 OA
HETATM    5  H   UNL     1     -43.462  57.535 -55.246  1.00  0.00     0.164 HD
HETATM    6  H   UNL     1     -43.696  60.517 -56.793  1.00  0.00     0.170 HD
ENDROOT
BRANCH   1   7
HETATM    7  C   UNL     1     -41.513  57.536 -54.471  1.00  0.00     0.162 C 
BRANCH   7   8
HETATM    8  C   UNL     1     -41.815  56.322 -53.624  1.00  0.00    -0.040 A 
HETATM    9  C   UNL     1     -41.069  55.134 -53.672  1.00  0.00     0.024 A 
HETATM   10  C   UNL     1     -41.427  54.013 -52.903  1.00  0.00     0.014 A 
HETATM   11  C   UNL     1     -42.556  54.086 -52.079  1.00  0.00     0.015 A 
HETATM   12  C   UNL     1     -43.311  55.257 -52.020  1.00  0.00     0.002 A 
HETATM   13  C   UNL     1     -42.944  56.362 -52.790  1.00  0.00     0.009 A 
BRANCH  10  14
HETATM   14  C   UNL     1     -40.635  52.789 -52.959  1.00  0.00     0.181 A 
HETATM   15  N   UNL     1     -40.668  51.931 -54.038  1.00  0.00    -0.212 NA
HETATM   16  C   UNL     1     -39.840  50.966 -53.702  1.00  0.00     0.118 A 
HETATM   17  C   UNL     1     -39.462  49.778 -54.493  1.00  0.00     0.093 C 
HETATM   18  N   UNL     1     -39.346  51.224 -52.457  1.00  0.00    -0.263 N 
HETATM   19  N   UNL     1     -39.815  52.385 -51.976  1.00  0.00    -0.152 NA
HETATM   20  H   UNL     1     -38.707  50.675 -51.893  1.00  0.00     0.190 HD
ENDBRANCH  10  14
ENDBRANCH   7   8
ENDBRANCH   1   7
BRANCH   3  21
HETATM   21  C   UNL     1     -44.550  58.747 -57.434  1.00  0.00     0.039 A 
HETATM   22  C   UNL     1     -44.226  58.028 -58.593  1.00  0.00     0.066 A 
HETATM   23  C   UNL     1     -45.217  57.330 -59.293  1.00  0.00     0.070 A 
HETATM   24  C   UNL     1     -46.533  57.348 -58.826  1.00  0.00     0.037 A 
HETATM   25  C   UNL     1     -46.868  58.073 -57.686  1.00  0.00     0.005 A 
HETATM   26  C   UNL     1     -45.881  58.779 -57.001  1.00  0.00     0.030 A 
BRANCH  23  27
HETATM   27  O   UNL     1     -45.039  56.615 -60.445  1.00  0.00    -0.349 OA
BRANCH  27  28
HETATM   28  C   UNL     1     -45.379  55.225 -60.416  1.00  0.00     0.207 C 
BRANCH  28  29
HETATM   29  C   UNL     1     -44.334  54.488 -59.593  1.00  0.00     0.248 C 
HETATM   30  F   UNL     1     -44.817  53.267 -59.224  1.00  0.00    -0.253 F 
ENDBRANCH  28  29
ENDBRANCH  27  28
ENDBRANCH  23  27
ENDBRANCH   3  21
TORSDOF 7
ENDMDL
MODEL 5
REMARK VINA RESULT:      -7.4      3.133      5.370
REMARK  7 active torsions:
REMARK  status: ('A' for Active; 'I' for Inactive)
REMARK    1  A    between atoms: C_4  and  C_5 
REMARK    2  A    between atoms: C_7  and  C_8 
REMARK    3  A    between atoms: C_8  and  N_9 
REMARK       I    between atoms: N_9  and  C_10 
REMARK       I    between atoms: C_10  and  N_11 
REMARK    4  A    between atoms: N_11  and  C_12 
REMARK    5  A    between atoms: C_14  and  O_15 
REMARK    6  A    between atoms: O_15  and  C_16 
REMARK    7  A    between atoms: C_16  and  C_17 
ROOT
HETATM    1  N   UNL     1     -41.365  54.815 -55.899  1.00  0.00    -0.339 N 
HETATM    2  C   UNL     1     -42.719  54.760 -56.054  1.00  0.00     0.320 C 
HETATM    3  N   UNL     1     -43.261  55.503 -57.056  1.00  0.00    -0.309 N 
HETATM    4  O   UNL     1     -43.442  54.024 -55.387  1.00  0.00    -0.247 OA
HETATM    5  H   UNL     1     -40.891  54.923 -56.783  1.00  0.00     0.164 HD
HETATM    6  H   UNL     1     -44.213  55.213 -57.247  1.00  0.00     0.170 HD
ENDROOT
BRANCH   1   7
HETATM    7  C   UNL     1     -40.738  53.927 -54.944  1.00  0.00     0.162 C 
BRANCH   7   8
HETATM    8  C   UNL     1     -40.873  54.335 -53.495  1.00  0.00    -0.040 A 
HETATM    9  C   UNL     1     -41.228  55.627 -53.081  1.00  0.00     0.024 A 
HETATM   10  C   UNL     1     -41.285  55.970 -51.719  1.00  0.00     0.014 A 
HETATM   11  C   UNL     1     -40.973  55.000 -50.760  1.00  0.00     0.015 A 
HETATM   12  C   UNL     1     -40.615  53.711 -51.153  1.00  0.00     0.002 A 
HETATM   13  C   UNL     1     -40.562  53.385 -52.509  1.00  0.00     0.009 A 
BRANCH  10  14
HETATM   14  C   UNL     1     -41.665  57.318 -51.306  1.00  0.00     0.181 A 
HETATM   15  N   UNL     1     -42.728  57.995 -51.865  1.00  0.00    -0.212 NA
HETATM   16  C   UNL     1     -42.730  59.152 -51.240  1.00  0.00     0.118 A 
HETATM   17  C   UNL     1     -43.672  60.276 -51.416  1.00  0.00     0.093 C 
HETATM   18  N   UNL     1     -41.693  59.177 -50.354  1.00  0.00    -0.263 N 
HETATM   19  N   UNL     1     -41.018  58.017 -50.359  1.00  0.00    -0.152 NA
HETATM   20  H   UNL     1     -41.395  59.922 -49.735  1.00  0.00     0.190 HD
ENDBRANCH  10  14
ENDBRANCH   7   8
ENDBRANCH   1   7
BRANCH   3  21
HETATM   21  C   UNL     1     -42.787  56.608 -57.786  1.00  0.00     0.039 A 
HETATM   22  C   UNL     1     -42.352  57.806 -57.204  1.00  0.00     0.066 A 
HETATM   23  C   UNL     1     -41.936  58.873 -58.009  1.00  0.00     0.070 A 
HETATM   24  C   UNL     1     -41.951  58.735 -59.399  1.00  0.00     0.037 A 
HETATM   25  C   UNL     1     -42.398  57.556 -59.987  1.00  0.00     0.005 A 
HETATM   26  C   UNL     1     -42.826  56.502 -59.182  1.00  0.00     0.030 A 
BRANCH  23  27
HETATM   27  O   UNL     1     -41.515  60.098 -57.570  1.00  0.00    -0.349 OA
BRANCH  27  28
HETATM   28  C   UNL     1     -41.773  61.225 -58.414  1.00  0.00     0.207 C 
BRANCH  28  29
HETATM   29  C   UNL     1     -40.516  62.078 -58.481  1.00  0.00     0.248 C 
HETATM   30  F   UNL     1     -40.091  62.170 -59.774  1.00  0.00    -0.253 F 
ENDBRANCH  28  29
ENDBRANCH  27  28
ENDBRANCH  23  27
ENDBRANCH   3  21
TORSDOF 7
ENDMDL
MODEL 6
REMARK VINA RESULT:      -7.4      4.749      6.496
REMARK  7 active torsions:
REMARK  status: ('A' for Active; 'I' for Inactive)
REMARK    1  A    between atoms: C_4  and  C_5 
REMARK    2  A    between atoms: C_7  and  C_8 
REMARK    3  A    between atoms: C_8  and  N_9 
REMARK       I    between atoms: N_9  and  C_10 
REMARK       I    between atoms: C_10  and  N_11 
REMARK    4  A    between atoms: N_11  and  C_12 
REMARK    5  A    between atoms: C_14  and  O_15 
REMARK    6  A    between atoms: O_15  and  C_16 
REMARK    7  A    between atoms: C_16  and  C_17 
ROOT
HETATM    1  N   UNL     1     -43.761  56.763 -50.782  1.00  0.00    -0.339 N 
HETATM    2  C   UNL     1     -43.917  57.267 -52.040  1.00  0.00     0.320 C 
HETATM    3  N   UNL     1     -43.851  58.618 -52.182  1.00  0.00    -0.309 N 
HETATM    4  O   UNL     1     -44.037  56.559 -53.037  1.00  0.00    -0.247 OA
HETATM    5  H   UNL     1     -43.116  57.313 -50.235  1.00  0.00     0.164 HD
HETATM    6  H   UNL     1     -43.732  58.874 -53.155  1.00  0.00     0.170 HD
ENDROOT
BRANCH   1   7
HETATM    7  C   UNL     1     -43.675  55.328 -50.614  1.00  0.00     0.162 C 
BRANCH   7   8
HETATM    8  C   UNL     1     -42.274  54.771 -50.517  1.00  0.00    -0.040 A 
HETATM    9  C   UNL     1     -41.849  53.613 -51.186  1.00  0.00     0.024 A 
HETATM   10  C   UNL     1     -40.549  53.105 -51.017  1.00  0.00     0.014 A 
HETATM   11  C   UNL     1     -39.666  53.769 -50.158  1.00  0.00     0.015 A 
HETATM   12  C   UNL     1     -40.072  54.920 -49.483  1.00  0.00     0.002 A 
HETATM   13  C   UNL     1     -41.365  55.412 -49.659  1.00  0.00     0.009 A 
BRANCH  10  14
HETATM   14  C   UNL     1     -40.121  51.904 -51.727  1.00  0.00     0.181 A 
HETATM   15  N   UNL     1     -40.140  51.807 -53.102  1.00  0.00    -0.212 NA
HETATM   16  C   UNL     1     -39.697  50.592 -53.340  1.00  0.00     0.118 A 
HETATM   17  C   UNL     1     -39.483  49.945 -54.650  1.00  0.00     0.093 C 
HETATM   18  N   UNL     1     -39.445  49.974 -52.150  1.00  0.00    -0.263 N 
HETATM   19  N   UNL     1     -39.681  50.793 -51.115  1.00  0.00    -0.152 NA
HETATM   20  H   UNL     1     -39.120  49.030 -51.973  1.00  0.00     0.190 HD
ENDBRANCH  10  14
ENDBRANCH   7   8
ENDBRANCH   1   7
BRANCH   3  21
HETATM   21  C   UNL     1     -43.997  59.679 -51.270  1.00  0.00     0.039 A 
HETATM   22  C   UNL     1     -45.154  59.913 -50.513  1.00  0.00     0.066 A 
HETATM   23  C   UNL     1     -45.229  61.020 -49.661  1.00  0.00     0.070 A 
HETATM   24  C   UNL     1     -44.141  61.890 -49.562  1.00  0.00     0.037 A 
HETATM   25  C   UNL     1     -42.995  61.677 -50.322  1.00  0.00     0.005 A 
HETATM   26  C   UNL     1     -42.930  60.582 -51.181  1.00  0.00     0.030 A 
BRANCH  23  27
HETATM   27  O   UNL     1     -46.303  61.374 -48.891  1.00  0.00    -0.349 OA
BRANCH  27  28
HETATM   28  C   UNL     1     -46.086  61.521 -47.485  1.00  0.00     0.207 C 
BRANCH  28  29
HETATM   29  C   UNL     1     -46.933  62.680 -46.982  1.00  0.00     0.248 C 
HETATM   30  F   UNL     1     -47.397  62.401 -45.730  1.00  0.00    -0.253 F 
ENDBRANCH  28  29
ENDBRANCH  27  28
ENDBRANCH  23  27
ENDBRANCH   3  21
TORSDOF 7
ENDMDL
MODEL 7
REMARK VINA RESULT:      -7.4      4.528      6.255
REMARK  7 active torsions:
REMARK  status: ('A' for Active; 'I' for Inactive)
REMARK    1  A    between atoms: C_4  and  C_5 
REMARK    2  A    between atoms: C_7  and  C_8 
REMARK    3  A    between atoms: C_8  and  N_9 
REMARK       I    between atoms: N_9  and  C_10 
REMARK       I    between atoms: C_10  and  N_11 
REMARK    4  A    between atoms: N_11  and  C_12 
REMARK    5  A    between atoms: C_14  and  O_15 
REMARK    6  A    between atoms: O_15  and  C_16 
REMARK    7  A    between atoms: C_16  and  C_17 
ROOT
HETATM    1  N   UNL     1     -42.493  58.300 -52.853  1.00  0.00    -0.339 N 
HETATM    2  C   UNL     1     -41.842  59.493 -52.966  1.00  0.00     0.320 C 
HETATM    3  N   UNL     1     -42.371  60.555 -52.300  1.00  0.00    -0.309 N 
HETATM    4  O   UNL     1     -40.780  59.624 -53.569  1.00  0.00    -0.247 OA
HETATM    5  H   UNL     1     -42.916  58.187 -51.944  1.00  0.00     0.164 HD
HETATM    6  H   UNL     1     -41.702  61.314 -52.242  1.00  0.00     0.170 HD
ENDROOT
BRANCH   1   7
HETATM    7  C   UNL     1     -41.882  57.117 -53.422  1.00  0.00     0.162 C 
BRANCH   7   8
HETATM    8  C   UNL     1     -41.364  56.112 -52.420  1.00  0.00    -0.040 A 
HETATM    9  C   UNL     1     -40.982  54.804 -52.755  1.00  0.00     0.024 A 
HETATM   10  C   UNL     1     -40.558  53.890 -51.774  1.00  0.00     0.014 A 
HETATM   11  C   UNL     1     -40.526  54.296 -50.435  1.00  0.00     0.015 A 
HETATM   12  C   UNL     1     -40.905  55.591 -50.083  1.00  0.00     0.002 A 
HETATM   13  C   UNL     1     -41.323  56.488 -51.067  1.00  0.00     0.009 A 
BRANCH  10  14
HETATM   14  C   UNL     1     -40.157  52.536 -52.143  1.00  0.00     0.181 A 
HETATM   15  N   UNL     1     -40.156  52.090 -53.447  1.00  0.00    -0.212 NA
HETATM   16  C   UNL     1     -39.749  50.843 -53.355  1.00  0.00     0.118 A 
HETATM   17  C   UNL     1     -39.533  49.877 -54.451  1.00  0.00     0.093 C 
HETATM   18  N   UNL     1     -39.534  50.545 -52.041  1.00  0.00    -0.263 N 
HETATM   19  N   UNL     1     -39.762  51.608 -51.256  1.00  0.00    -0.152 NA
HETATM   20  H   UNL     1     -39.242  49.670 -51.621  1.00  0.00     0.190 HD
ENDBRANCH  10  14
ENDBRANCH   7   8
ENDBRANCH   1   7
BRANCH   3  21
HETATM   21  C   UNL     1     -43.651  60.809 -51.776  1.00  0.00     0.039 A 
HETATM   22  C   UNL     1     -44.007  60.602 -50.436  1.00  0.00     0.066 A 
HETATM   23  C   UNL     1     -45.318  60.840 -50.008  1.00  0.00     0.070 A 
HETATM   24  C   UNL     1     -46.271  61.291 -50.924  1.00  0.00     0.037 A 
HETATM   25  C   UNL     1     -45.932  61.483 -52.260  1.00  0.00     0.005 A 
HETATM   26  C   UNL     1     -44.630  61.230 -52.685  1.00  0.00     0.030 A 
BRANCH  23  27
HETATM   27  O   UNL     1     -45.799  60.654 -48.741  1.00  0.00    -0.349 OA
BRANCH  27  28
HETATM   28  C   UNL     1     -45.003  61.141 -47.657  1.00  0.00     0.207 C 
BRANCH  28  29
HETATM   29  C   UNL     1     -45.227  62.639 -47.526  1.00  0.00     0.248 C 
HETATM   30  F   UNL     1     -44.213  63.312 -48.143  1.00  0.00    -0.253 F 
ENDBRANCH  28  29
ENDBRANCH  27  28
ENDBRANCH  23  27
ENDBRANCH   3  21
TORSDOF 7
ENDMDL
MODEL 8
REMARK VINA RESULT:      -7.2      3.365      7.671
REMARK  7 active torsions:
REMARK  status: ('A' for Active; 'I' for Inactive)
REMARK    1  A    between atoms: C_4  and  C_5 
REMARK    2  A    between atoms: C_7  and  C_8 
REMARK    3  A    between atoms: C_8  and  N_9 
REMARK       I    between atoms: N_9  and  C_10 
REMARK       I    between atoms: C_10  and  N_11 
REMARK    4  A    between atoms: N_11  and  C_12 
REMARK    5  A    between atoms: C_14  and  O_15 
REMARK    6  A    between atoms: O_15  and  C_16 
REMARK    7  A    between atoms: C_16  and  C_17 
ROOT
HETATM    1  N   UNL     1     -43.285  56.878 -52.366  1.00  0.00    -0.339 N 
HETATM    2  C   UNL     1     -43.800  56.394 -51.200  1.00  0.00     0.320 C 
HETATM    3  N   UNL     1     -43.042  55.500 -50.509  1.00  0.00    -0.309 N 
HETATM    4  O   UNL     1     -44.863  56.782 -50.722  1.00  0.00    -0.247 OA
HETATM    5  H   UNL     1     -42.281  56.969 -52.324  1.00  0.00     0.164 HD
HETATM    6  H   UNL     1     -43.385  55.391 -49.562  1.00  0.00     0.170 HD
ENDROOT
BRANCH   1   7
HETATM    7  C   UNL     1     -43.992  57.940 -53.051  1.00  0.00     0.162 C 
BRANCH   7   8
HETATM    8  C   UNL     1     -43.534  58.215 -54.464  1.00  0.00    -0.040 A 
HETATM    9  C   UNL     1     -43.873  57.411 -55.563  1.00  0.00     0.024 A 
HETATM   10  C   UNL     1     -43.374  57.680 -56.850  1.00  0.00     0.014 A 
HETATM   11  C   UNL     1     -42.515  58.770 -57.031  1.00  0.00     0.015 A 
HETATM   12  C   UNL     1     -42.165  59.578 -55.951  1.00  0.00     0.002 A 
HETATM   13  C   UNL     1     -42.668  59.299 -54.679  1.00  0.00     0.009 A 
BRANCH  10  14
HETATM   14  C   UNL     1     -43.744  56.837 -57.982  1.00  0.00     0.181 A 
HETATM   15  N   UNL     1     -44.883  57.053 -58.729  1.00  0.00    -0.212 NA
HETATM   16  C   UNL     1     -44.858  56.095 -59.628  1.00  0.00     0.118 A 
HETATM   17  C   UNL     1     -45.826  55.847 -60.716  1.00  0.00     0.093 C 
HETATM   18  N   UNL     1     -43.757  55.318 -59.415  1.00  0.00    -0.263 N 
HETATM   19  N   UNL     1     -43.022  55.783 -58.394  1.00  0.00    -0.152 NA
HETATM   20  H   UNL     1     -43.453  54.486 -59.908  1.00  0.00     0.190 HD
ENDBRANCH  10  14
ENDBRANCH   7   8
ENDBRANCH   1   7
BRANCH   3  21
HETATM   21  C   UNL     1     -41.966  54.674 -50.882  1.00  0.00     0.039 A 
HETATM   22  C   UNL     1     -41.917  53.938 -52.074  1.00  0.00     0.066 A 
HETATM   23  C   UNL     1     -40.826  53.105 -52.346  1.00  0.00     0.070 A 
HETATM   24  C   UNL     1     -39.779  53.016 -51.426  1.00  0.00     0.037 A 
HETATM   25  C   UNL     1     -39.826  53.730 -50.232  1.00  0.00     0.005 A 
HETATM   26  C   UNL     1     -40.922  54.546 -49.958  1.00  0.00     0.030 A 
BRANCH  23  27
HETATM   27  O   UNL     1     -40.668  52.318 -53.454  1.00  0.00    -0.349 OA
BRANCH  27  28
HETATM   28  C   UNL     1     -39.596  51.370 -53.441  1.00  0.00     0.207 C 
BRANCH  28  29
HETATM   29  C   UNL     1     -40.107  50.053 -54.005  1.00  0.00     0.248 C 
HETATM   30  F   UNL     1     -39.416  49.739 -55.138  1.00  0.00    -0.253 F 
ENDBRANCH  28  29
ENDBRANCH  27  28
ENDBRANCH  23  27
ENDBRANCH   3  21
TORSDOF 7
ENDMDL
MODEL 9
REMARK VINA RESULT:      -7.2     14.512     16.335
REMARK  7 active torsions:
REMARK  status: ('A' for Active; 'I' for Inactive)
REMARK    1  A    between atoms: C_4  and  C_5 
REMARK    2  A    between atoms: C_7  and  C_8 
REMARK    3  A    between atoms: C_8  and  N_9 
REMARK       I    between atoms: N_9  and  C_10 
REMARK       I    between atoms: C_10  and  N_11 
REMARK    4  A    between atoms: N_11  and  C_12 
REMARK    5  A    between atoms: C_14  and  O_15 
REMARK    6  A    between atoms: O_15  and  C_16 
REMARK    7  A    between atoms: C_16  and  C_17 
ROOT
HETATM    1  N   UNL     1     -36.472  40.229 -53.146  1.00  0.00    -0.339 N 
HETATM    2  C   UNL     1     -37.511  41.111 -53.102  1.00  0.00     0.320 C 
HETATM    3  N   UNL     1     -38.021  41.532 -54.291  1.00  0.00    -0.309 N 
HETATM    4  O   UNL     1     -38.041  41.473 -52.055  1.00  0.00    -0.247 OA
HETATM    5  H   UNL     1     -36.546  39.602 -53.933  1.00  0.00     0.164 HD
HETATM    6  H   UNL     1     -38.922  41.977 -54.161  1.00  0.00     0.170 HD
ENDROOT
BRANCH   1   7
HETATM    7  C   UNL     1     -36.003  39.644 -51.908  1.00  0.00     0.162 C 
BRANCH   7   8
HETATM    8  C   UNL     1     -34.526  39.809 -51.634  1.00  0.00    -0.040 A 
HETATM    9  C   UNL     1     -33.925  39.509 -50.402  1.00  0.00     0.024 A 
HETATM   10  C   UNL     1     -32.555  39.734 -50.182  1.00  0.00     0.014 A 
HETATM   11  C   UNL     1     -31.780  40.275 -51.214  1.00  0.00     0.015 A 
HETATM   12  C   UNL     1     -32.361  40.581 -52.444  1.00  0.00     0.002 A 
HETATM   13  C   UNL     1     -33.722  40.353 -52.649  1.00  0.00     0.009 A 
BRANCH  10  14
HETATM   14  C   UNL     1     -31.945  39.409 -48.897  1.00  0.00     0.181 A 
HETATM   15  N   UNL     1     -31.260  40.338 -48.143  1.00  0.00    -0.212 NA
HETATM   16  C   UNL     1     -30.867  39.660 -47.086  1.00  0.00     0.118 A 
HETATM   17  C   UNL     1     -30.107  40.157 -45.921  1.00  0.00     0.093 C 
HETATM   18  N   UNL     1     -31.282  38.367 -47.212  1.00  0.00    -0.263 N 
HETATM   19  N   UNL     1     -31.988  38.188 -48.339  1.00  0.00    -0.152 NA
HETATM   20  H   UNL     1     -31.127  37.579 -46.593  1.00  0.00     0.190 HD
ENDBRANCH  10  14
ENDBRANCH   7   8
ENDBRANCH   1   7
BRANCH   3  21
HETATM   21  C   UNL     1     -37.506  41.537 -55.600  1.00  0.00     0.039 A 
HETATM   22  C   UNL     1     -38.108  40.883 -56.684  1.00  0.00     0.066 A 
HETATM   23  C   UNL     1     -37.503  40.902 -57.946  1.00  0.00     0.070 A 
HETATM   24  C   UNL     1     -36.296  41.582 -58.122  1.00  0.00     0.037 A 
HETATM   25  C   UNL     1     -35.681  42.219 -57.048  1.00  0.00     0.005 A 
HETATM   26  C   UNL     1     -36.279  42.185 -55.790  1.00  0.00     0.030 A 
BRANCH  23  27
HETATM   27  O   UNL     1     -37.971  40.286 -59.074  1.00  0.00    -0.349 OA
BRANCH  27  28
HETATM   28  C   UNL     1     -37.234  40.482 -60.285  1.00  0.00     0.207 C 
BRANCH  28  29
HETATM   29  C   UNL     1     -37.462  39.283 -61.191  1.00  0.00     0.248 C 
HETATM   30  F   UNL     1     -38.756  38.864 -61.084  1.00  0.00    -0.253 F 
ENDBRANCH  28  29
ENDBRANCH  27  28
ENDBRANCH  23  27
ENDBRANCH   3  21
TORSDOF 7
ENDMDL
MODEL 10
REMARK VINA RESULT:      -7.0     14.805     17.023
REMARK  7 active torsions:
REMARK  status: ('A' for Active; 'I' for Inactive)
REMARK    1  A    between atoms: C_4  and  C_5 
REMARK    2  A    between atoms: C_7  and  C_8 
REMARK    3  A    between atoms: C_8  and  N_9 
REMARK       I    between atoms: N_9  and  C_10 
REMARK       I    between atoms: C_10  and  N_11 
REMARK    4  A    between atoms: N_11  and  C_12 
REMARK    5  A    between atoms: C_14  and  O_15 
REMARK    6  A    between atoms: O_15  and  C_16 
REMARK    7  A    between atoms: C_16  and  C_17 
ROOT
HETATM    1  N   UNL     1     -32.961  40.747 -54.222  1.00  0.00    -0.339 N 
HETATM    2  C   UNL     1     -32.609  40.504 -55.517  1.00  0.00     0.320 C 
HETATM    3  N   UNL     1     -33.481  40.901 -56.484  1.00  0.00    -0.309 N 
HETATM    4  O   UNL     1     -31.527  40.020 -55.840  1.00  0.00    -0.247 OA
HETATM    5  H   UNL     1     -33.486  41.604 -54.131  1.00  0.00     0.164 HD
HETATM    6  H   UNL     1     -33.034  40.904 -57.394  1.00  0.00     0.170 HD
ENDROOT
BRANCH   1   7
HETATM    7  C   UNL     1     -31.997  40.476 -53.177  1.00  0.00     0.162 C 
BRANCH   7   8
HETATM    8  C   UNL     1     -32.585  40.102 -51.836  1.00  0.00    -0.040 A 
HETATM    9  C   UNL     1     -31.823  39.948 -50.668  1.00  0.00     0.024 A 
HETATM   10  C   UNL     1     -32.413  39.544 -49.457  1.00  0.00     0.014 A 
HETATM   11  C   UNL     1     -33.787  39.285 -49.424  1.00  0.00     0.015 A 
HETATM   12  C   UNL     1     -34.560  39.431 -50.575  1.00  0.00     0.002 A 
HETATM   13  C   UNL     1     -33.962  39.832 -51.770  1.00  0.00     0.009 A 
BRANCH  10  14
HETATM   14  C   UNL     1     -31.606  39.395 -48.250  1.00  0.00     0.181 A 
HETATM   15  N   UNL     1     -31.038  40.470 -47.599  1.00  0.00    -0.212 NA
HETATM   16  C   UNL     1     -30.399  39.925 -46.587  1.00  0.00     0.118 A 
HETATM   17  C   UNL     1     -29.624  40.607 -45.531  1.00  0.00     0.093 C 
HETATM   18  N   UNL     1     -30.558  38.571 -46.642  1.00  0.00    -0.263 N 
HETATM   19  N   UNL     1     -31.339  38.213 -47.673  1.00  0.00    -0.152 NA
HETATM   20  H   UNL     1     -30.178  37.855 -46.034  1.00  0.00     0.190 HD
ENDBRANCH  10  14
ENDBRANCH   7   8
ENDBRANCH   1   7
BRANCH   3  21
HETATM   21  C   UNL     1     -34.852  41.213 -56.460  1.00  0.00     0.039 A 
HETATM   22  C   UNL     1     -35.689  40.992 -55.358  1.00  0.00     0.066 A 
HETATM   23  C   UNL     1     -37.054  41.291 -55.435  1.00  0.00     0.070 A 
HETATM   24  C   UNL     1     -37.578  41.819 -56.617  1.00  0.00     0.037 A 
HETATM   25  C   UNL     1     -36.759  42.026 -57.723  1.00  0.00     0.005 A 
HETATM   26  C   UNL     1     -35.404  41.712 -57.646  1.00  0.00     0.030 A 
BRANCH  23  27
HETATM   27  O   UNL     1     -37.980  41.100 -54.446  1.00  0.00    -0.349 OA
BRANCH  27  28
HETATM   28  C   UNL     1     -37.575  40.338 -53.305  1.00  0.00     0.207 C 
BRANCH  28  29
HETATM   29  C   UNL     1     -37.456  41.275 -52.113  1.00  0.00     0.248 C 
HETATM   30  F   UNL     1     -36.482  42.200 -52.351  1.00  0.00    -0.253 F 
ENDBRANCH  28  29
ENDBRANCH  27  28
ENDBRANCH  23  27
ENDBRANCH   3  21
TORSDOF 7
ENDMDL
