MODEL 1
REMARK VINA RESULT:      -8.2      0.000      0.000
REMARK  8 active torsions:
REMARK  status: ('A' for Active; 'I' for Inactive)
REMARK    1  A    between atoms: C_6  and  N_7 
REMARK       I    between atoms: N_7  and  C_8 
REMARK    2  A    between atoms: C_8  and  C_9 
REMARK    3  A    between atoms: C_9  and  N_10 
REMARK       I    between atoms: N_10  and  C_11 
REMARK    4  A    between atoms: C_11  and  C_12 
REMARK    5  A    between atoms: C_12  and  S_13 
REMARK    6  A    between atoms: S_13  and  C_14 
REMARK    7  A    between atoms: C_16  and  C_17 
REMARK    8  A    between atoms: C_20  and  O_21 
ROOT
HETATM    1  N   UNL     1     -44.108  58.288 -54.148  1.00  0.00    -0.352 N 
HETATM    2  C   UNL     1     -44.535  58.149 -55.444  1.00  0.00     0.227 C 
HETATM    3  O   UNL     1     -45.729  58.046 -55.724  1.00  0.00    -0.273 OA
HETATM    4  H   UNL     1     -43.119  58.476 -53.987  1.00  0.00     0.162 HD
ENDROOT
BRANCH   2   5
HETATM    5  C   UNL     1     -43.436  58.083 -56.494  1.00  0.00     0.185 C 
BRANCH   5   6
HETATM    6  S   UNL     1     -43.177  56.396 -57.129  1.00  0.00    -0.081 SA
BRANCH   6   7
HETATM    7  C   UNL     1     -42.125  55.741 -55.938  1.00  0.00     0.185 A 
HETATM    8  N   UNL     1     -41.934  54.477 -55.659  1.00  0.00    -0.201 NA
HETATM    9  C   UNL     1     -41.052  54.513 -54.596  1.00  0.00     0.182 A 
HETATM   10  N   UNL     1     -40.696  55.758 -54.232  1.00  0.00    -0.152 NA
HETATM   11  N   UNL     1     -41.398  56.516 -55.094  1.00  0.00    -0.253 N 
HETATM   12  H   UNL     1     -41.343  57.526 -55.046  1.00  0.00     0.191 HD
BRANCH   9  13
HETATM   13  C   UNL     1     -40.607  53.289 -53.936  1.00  0.00     0.014 A 
HETATM   14  C   UNL     1     -40.319  53.295 -52.565  1.00  0.00     0.018 A 
HETATM   15  C   UNL     1     -39.861  52.138 -51.927  1.00  0.00     0.037 A 
HETATM   16  C   UNL     1     -39.684  50.955 -52.645  1.00  0.00     0.068 A 
HETATM   17  C   UNL     1     -39.979  50.935 -54.008  1.00  0.00     0.037 A 
HETATM   18  C   UNL     1     -40.436  52.095 -54.649  1.00  0.00     0.018 A 
BRANCH  16  19
HETATM   19  O   UNL     1     -39.226  49.904 -51.900  1.00  0.00    -0.356 OA
HETATM   20  C   UNL     1     -39.819  49.712 -50.622  1.00  0.00     0.210 C 
ENDBRANCH  16  19
ENDBRANCH   9  13
ENDBRANCH   6   7
ENDBRANCH   5   6
ENDBRANCH   2   5
BRANCH   1  21
HETATM   21  C   UNL     1     -44.999  58.347 -53.007  1.00  0.00     0.225 C 
BRANCH  21  22
HETATM   22  C   UNL     1     -44.534  57.479 -51.830  1.00  0.00     0.239 C 
HETATM   23  N   UNL     1     -43.394  56.745 -52.125  1.00  0.00    -0.325 N 
HETATM   24  H   UNL     1     -42.915  57.042 -52.975  1.00  0.00     0.169 HD
HETATM   25  O   UNL     1     -45.077  57.565 -50.730  1.00  0.00    -0.271 OA
BRANCH  23  26
HETATM   26  C   UNL     1     -42.625  56.039 -51.175  1.00  0.00     0.046 A 
HETATM   27  C   UNL     1     -42.996  54.768 -50.693  1.00  0.00    -0.034 A 
HETATM   28  C   UNL     1     -42.190  54.142 -49.723  1.00  0.00     0.015 A 
HETATM   29  C   UNL     1     -44.191  54.001 -51.193  1.00  0.00     0.050 C 
HETATM   30  C   UNL     1     -41.013  54.734 -49.259  1.00  0.00    -0.061 A 
HETATM   31  C   UNL     1     -40.150  54.045 -48.245  1.00  0.00     0.048 C 
HETATM   32  C   UNL     1     -40.622  55.964 -49.792  1.00  0.00     0.015 A 
HETATM   33  C   UNL     1     -41.413  56.627 -50.745  1.00  0.00    -0.034 A 
HETATM   34  C   UNL     1     -40.957  57.973 -51.242  1.00  0.00     0.050 C 
ENDBRANCH  23  26
ENDBRANCH  21  22
ENDBRANCH   1  21
TORSDOF 8
ENDMDL
MODEL 2
REMARK VINA RESULT:      -8.1      2.458      6.102
REMARK  8 active torsions:
REMARK  status: ('A' for Active; 'I' for Inactive)
REMARK    1  A    between atoms: C_6  and  N_7 
REMARK       I    between atoms: N_7  and  C_8 
REMARK    2  A    between atoms: C_8  and  C_9 
REMARK    3  A    between atoms: C_9  and  N_10 
REMARK       I    between atoms: N_10  and  C_11 
REMARK    4  A    between atoms: C_11  and  C_12 
REMARK    5  A    between atoms: C_12  and  S_13 
REMARK    6  A    between atoms: S_13  and  C_14 
REMARK    7  A    between atoms: C_16  and  C_17 
REMARK    8  A    between atoms: C_20  and  O_21 
ROOT
HETATM    1  N   UNL     1     -42.987  57.533 -51.266  1.00  0.00    -0.352 N 
HETATM    2  C   UNL     1     -44.325  57.833 -51.277  1.00  0.00     0.227 C 
HETATM    3  O   UNL     1     -45.158  57.092 -50.753  1.00  0.00    -0.273 OA
HETATM    4  H   UNL     1     -42.336  58.233 -51.619  1.00  0.00     0.162 HD
ENDROOT
BRANCH   2   5
HETATM    5  C   UNL     1     -44.707  59.107 -52.016  1.00  0.00     0.185 C 
BRANCH   5   6
HETATM    6  S   UNL     1     -43.284  60.213 -52.282  1.00  0.00    -0.081 SA
BRANCH   6   7
HETATM    7  C   UNL     1     -42.877  59.858 -53.913  1.00  0.00     0.185 A 
HETATM    8  N   UNL     1     -43.377  58.914 -54.667  1.00  0.00    -0.201 NA
HETATM    9  C   UNL     1     -42.663  59.031 -55.844  1.00  0.00     0.182 A 
HETATM   10  N   UNL     1     -41.755  60.023 -55.829  1.00  0.00    -0.152 NA
HETATM   11  N   UNL     1     -41.907  60.524 -54.589  1.00  0.00    -0.253 N 
HETATM   12  H   UNL     1     -41.326  61.293 -54.276  1.00  0.00     0.191 HD
BRANCH   9  13
HETATM   13  C   UNL     1     -42.881  58.114 -56.960  1.00  0.00     0.014 A 
HETATM   14  C   UNL     1     -43.039  58.613 -58.259  1.00  0.00     0.018 A 
HETATM   15  C   UNL     1     -43.281  57.749 -59.331  1.00  0.00     0.037 A 
HETATM   16  C   UNL     1     -43.367  56.372 -59.127  1.00  0.00     0.068 A 
HETATM   17  C   UNL     1     -43.200  55.863 -57.839  1.00  0.00     0.037 A 
HETATM   18  C   UNL     1     -42.960  56.729 -56.763  1.00  0.00     0.018 A 
BRANCH  16  19
HETATM   19  O   UNL     1     -43.612  55.645 -60.259  1.00  0.00    -0.356 OA
HETATM   20  C   UNL     1     -44.552  54.584 -60.152  1.00  0.00     0.210 C 
ENDBRANCH  16  19
ENDBRANCH   9  13
ENDBRANCH   6   7
ENDBRANCH   5   6
ENDBRANCH   2   5
BRANCH   1  21
HETATM   21  C   UNL     1     -42.429  56.354 -50.635  1.00  0.00     0.225 C 
BRANCH  21  22
HETATM   22  C   UNL     1     -42.315  55.154 -51.585  1.00  0.00     0.239 C 
HETATM   23  N   UNL     1     -40.998  54.807 -51.851  1.00  0.00    -0.325 N 
HETATM   24  H   UNL     1     -40.318  55.240 -51.227  1.00  0.00     0.169 HD
HETATM   25  O   UNL     1     -43.314  54.531 -51.936  1.00  0.00    -0.271 OA
BRANCH  23  26
HETATM   26  C   UNL     1     -40.595  53.624 -52.506  1.00  0.00     0.046 A 
HETATM   27  C   UNL     1     -40.481  53.534 -53.907  1.00  0.00    -0.034 A 
HETATM   28  C   UNL     1     -40.103  52.308 -54.487  1.00  0.00     0.015 A 
HETATM   29  C   UNL     1     -40.694  54.697 -54.839  1.00  0.00     0.050 C 
HETATM   30  C   UNL     1     -39.800  51.193 -53.702  1.00  0.00    -0.061 A 
HETATM   31  C   UNL     1     -39.372  49.900 -54.330  1.00  0.00     0.048 C 
HETATM   32  C   UNL     1     -39.853  51.312 -52.312  1.00  0.00     0.015 A 
HETATM   33  C   UNL     1     -40.248  52.515 -51.701  1.00  0.00    -0.034 A 
HETATM   34  C   UNL     1     -40.331  52.560 -50.198  1.00  0.00     0.050 C 
ENDBRANCH  23  26
ENDBRANCH  21  22
ENDBRANCH   1  21
TORSDOF 8
ENDMDL
MODEL 3
REMARK VINA RESULT:      -7.9      2.587      5.982
REMARK  8 active torsions:
REMARK  status: ('A' for Active; 'I' for Inactive)
REMARK    1  A    between atoms: C_6  and  N_7 
REMARK       I    between atoms: N_7  and  C_8 
REMARK    2  A    between atoms: C_8  and  C_9 
REMARK    3  A    between atoms: C_9  and  N_10 
REMARK       I    between atoms: N_10  and  C_11 
REMARK    4  A    between atoms: C_11  and  C_12 
REMARK    5  A    between atoms: C_12  and  S_13 
REMARK    6  A    between atoms: S_13  and  C_14 
REMARK    7  A    between atoms: C_16  and  C_17 
REMARK    8  A    between atoms: C_20  and  O_21 
ROOT
HETATM    1  N   UNL     1     -42.833  57.179 -50.934  1.00  0.00    -0.352 N 
HETATM    2  C   UNL     1     -43.003  58.481 -51.328  1.00  0.00     0.227 C 
HETATM    3  O   UNL     1     -44.084  58.894 -51.750  1.00  0.00    -0.273 OA
HETATM    4  H   UNL     1     -41.951  56.922 -50.494  1.00  0.00     0.162 HD
ENDROOT
BRANCH   2   5
HETATM    5  C   UNL     1     -41.762  59.359 -51.250  1.00  0.00     0.185 C 
BRANCH   5   6
HETATM    6  S   UNL     1     -40.459  58.828 -52.407  1.00  0.00    -0.081 SA
BRANCH   6   7
HETATM    7  C   UNL     1     -41.262  58.980 -53.919  1.00  0.00     0.185 A 
HETATM    8  N   UNL     1     -41.463  58.041 -54.807  1.00  0.00    -0.201 NA
HETATM    9  C   UNL     1     -42.087  58.708 -55.844  1.00  0.00     0.182 A 
HETATM   10  N   UNL     1     -42.280  60.018 -55.605  1.00  0.00    -0.152 NA
HETATM   11  N   UNL     1     -41.739  60.163 -54.381  1.00  0.00    -0.253 N 
HETATM   12  H   UNL     1     -41.722  61.074 -53.938  1.00  0.00     0.191 HD
BRANCH   9  13
HETATM   13  C   UNL     1     -42.450  58.021 -57.080  1.00  0.00     0.014 A 
HETATM   14  C   UNL     1     -43.175  56.823 -57.032  1.00  0.00     0.018 A 
HETATM   15  C   UNL     1     -43.501  56.138 -58.206  1.00  0.00     0.037 A 
HETATM   16  C   UNL     1     -43.112  56.637 -59.449  1.00  0.00     0.068 A 
HETATM   17  C   UNL     1     -42.399  57.834 -59.510  1.00  0.00     0.037 A 
HETATM   18  C   UNL     1     -42.070  58.521 -58.332  1.00  0.00     0.018 A 
BRANCH  16  19
HETATM   19  O   UNL     1     -43.490  55.866 -60.513  1.00  0.00    -0.356 OA
HETATM   20  C   UNL     1     -44.600  54.999 -60.319  1.00  0.00     0.210 C 
ENDBRANCH  16  19
ENDBRANCH   9  13
ENDBRANCH   6   7
ENDBRANCH   5   6
ENDBRANCH   2   5
BRANCH   1  21
HETATM   21  C   UNL     1     -43.888  56.185 -50.957  1.00  0.00     0.225 C 
BRANCH  21  22
HETATM   22  C   UNL     1     -43.425  54.822 -51.488  1.00  0.00     0.239 C 
HETATM   23  N   UNL     1     -42.241  54.903 -52.207  1.00  0.00    -0.325 N 
HETATM   24  H   UNL     1     -41.746  55.788 -52.097  1.00  0.00     0.169 HD
HETATM   25  O   UNL     1     -44.011  53.790 -51.170  1.00  0.00    -0.271 OA
BRANCH  23  26
HETATM   26  C   UNL     1     -41.473  53.793 -52.619  1.00  0.00     0.046 A 
HETATM   27  C   UNL     1     -40.568  53.137 -51.762  1.00  0.00    -0.034 A 
HETATM   28  C   UNL     1     -39.815  52.056 -52.258  1.00  0.00     0.015 A 
HETATM   29  C   UNL     1     -40.384  53.493 -50.311  1.00  0.00     0.050 C 
HETATM   30  C   UNL     1     -39.977  51.594 -53.566  1.00  0.00    -0.061 A 
HETATM   31  C   UNL     1     -39.190  50.424 -54.075  1.00  0.00     0.048 C 
HETATM   32  C   UNL     1     -40.925  52.210 -54.386  1.00  0.00     0.015 A 
HETATM   33  C   UNL     1     -41.677  53.305 -53.930  1.00  0.00    -0.034 A 
HETATM   34  C   UNL     1     -42.647  53.953 -54.883  1.00  0.00     0.050 C 
ENDBRANCH  23  26
ENDBRANCH  21  22
ENDBRANCH   1  21
TORSDOF 8
ENDMDL
MODEL 4
REMARK VINA RESULT:      -7.6      2.839      6.185
REMARK  8 active torsions:
REMARK  status: ('A' for Active; 'I' for Inactive)
REMARK    1  A    between atoms: C_6  and  N_7 
REMARK       I    between atoms: N_7  and  C_8 
REMARK    2  A    between atoms: C_8  and  C_9 
REMARK    3  A    between atoms: C_9  and  N_10 
REMARK       I    between atoms: N_10  and  C_11 
REMARK    4  A    between atoms: C_11  and  C_12 
REMARK    5  A    between atoms: C_12  and  S_13 
REMARK    6  A    between atoms: S_13  and  C_14 
REMARK    7  A    between atoms: C_16  and  C_17 
REMARK    8  A    between atoms: C_20  and  O_21 
ROOT
HETATM    1  N   UNL     1     -42.533  60.447 -54.437  1.00  0.00    -0.352 N 
HETATM    2  C   UNL     1     -41.761  59.904 -53.443  1.00  0.00     0.227 C 
HETATM    3  O   UNL     1     -40.665  59.395 -53.679  1.00  0.00    -0.273 OA
HETATM    4  H   UNL     1     -43.378  60.949 -54.168  1.00  0.00     0.162 HD
ENDROOT
BRANCH   2   5
HETATM    5  C   UNL     1     -42.370  59.932 -52.048  1.00  0.00     0.185 C 
BRANCH   5   6
HETATM    6  S   UNL     1     -43.558  58.578 -51.778  1.00  0.00    -0.081 SA
BRANCH   6   7
HETATM    7  C   UNL     1     -42.504  57.247 -51.514  1.00  0.00     0.185 A 
HETATM    8  N   UNL     1     -42.231  56.275 -52.346  1.00  0.00    -0.201 NA
HETATM    9  C   UNL     1     -41.392  55.455 -51.617  1.00  0.00     0.182 A 
HETATM   10  N   UNL     1     -41.140  55.906 -50.375  1.00  0.00    -0.152 NA
HETATM   11  N   UNL     1     -41.865  57.039 -50.335  1.00  0.00    -0.253 N 
HETATM   12  H   UNL     1     -41.885  57.601 -49.492  1.00  0.00     0.191 HD
BRANCH   9  13
HETATM   13  C   UNL     1     -40.882  54.204 -52.172  1.00  0.00     0.014 A 
HETATM   14  C   UNL     1     -40.229  53.282 -51.342  1.00  0.00     0.018 A 
HETATM   15  C   UNL     1     -39.709  52.095 -51.866  1.00  0.00     0.037 A 
HETATM   16  C   UNL     1     -39.831  51.805 -53.225  1.00  0.00     0.068 A 
HETATM   17  C   UNL     1     -40.488  52.711 -54.058  1.00  0.00     0.037 A 
HETATM   18  C   UNL     1     -41.010  53.903 -53.534  1.00  0.00     0.018 A 
BRANCH  16  19
HETATM   19  O   UNL     1     -39.272  50.617 -53.604  1.00  0.00    -0.356 OA
HETATM   20  C   UNL     1     -39.984  49.847 -54.565  1.00  0.00     0.210 C 
ENDBRANCH  16  19
ENDBRANCH   9  13
ENDBRANCH   6   7
ENDBRANCH   5   6
ENDBRANCH   2   5
BRANCH   1  21
HETATM   21  C   UNL     1     -42.138  60.494 -55.831  1.00  0.00     0.225 C 
BRANCH  21  22
HETATM   22  C   UNL     1     -43.048  59.666 -56.747  1.00  0.00     0.239 C 
HETATM   23  N   UNL     1     -42.344  58.747 -57.511  1.00  0.00    -0.325 N 
HETATM   24  H   UNL     1     -41.381  58.601 -57.207  1.00  0.00     0.169 HD
HETATM   25  O   UNL     1     -44.271  59.762 -56.674  1.00  0.00    -0.271 OA
BRANCH  23  26
HETATM   26  C   UNL     1     -42.933  57.713 -58.270  1.00  0.00     0.046 A 
HETATM   27  C   UNL     1     -43.397  57.908 -59.586  1.00  0.00    -0.034 A 
HETATM   28  C   UNL     1     -44.002  56.834 -60.265  1.00  0.00     0.015 A 
HETATM   29  C   UNL     1     -43.242  59.200 -60.343  1.00  0.00     0.050 C 
HETATM   30  C   UNL     1     -44.114  55.571 -59.680  1.00  0.00    -0.061 A 
HETATM   31  C   UNL     1     -44.735  54.427 -60.424  1.00  0.00     0.048 C 
HETATM   32  C   UNL     1     -43.591  55.372 -58.400  1.00  0.00     0.015 A 
HETATM   33  C   UNL     1     -43.002  56.428 -57.685  1.00  0.00    -0.034 A 
HETATM   34  C   UNL     1     -42.503  56.156 -56.291  1.00  0.00     0.050 C 
ENDBRANCH  23  26
ENDBRANCH  21  22
ENDBRANCH   1  21
TORSDOF 8
ENDMDL
MODEL 5
REMARK VINA RESULT:      -7.6      3.195      6.918
REMARK  8 active torsions:
REMARK  status: ('A' for Active; 'I' for Inactive)
REMARK    1  A    between atoms: C_6  and  N_7 
REMARK       I    between atoms: N_7  and  C_8 
REMARK    2  A    between atoms: C_8  and  C_9 
REMARK    3  A    between atoms: C_9  and  N_10 
REMARK       I    between atoms: N_10  and  C_11 
REMARK    4  A    between atoms: C_11  and  C_12 
REMARK    5  A    between atoms: C_12  and  S_13 
REMARK    6  A    between atoms: S_13  and  C_14 
REMARK    7  A    between atoms: C_16  and  C_17 
REMARK    8  A    between atoms: C_20  and  O_21 
ROOT
HETATM    1  N   UNL     1     -42.539  57.889 -52.698  1.00  0.00    -0.352 N 
HETATM    2  C   UNL     1     -43.800  58.267 -53.081  1.00  0.00     0.227 C 
HETATM    3  O   UNL     1     -44.806  57.752 -52.592  1.00  0.00    -0.273 OA
HETATM    4  H   UNL     1     -41.748  58.423 -53.056  1.00  0.00     0.162 HD
ENDROOT
BRANCH   2   5
HETATM    5  C   UNL     1     -43.866  59.322 -54.175  1.00  0.00     0.185 C 
BRANCH   5   6
HETATM    6  S   UNL     1     -42.377  59.334 -55.224  1.00  0.00    -0.081 SA
BRANCH   6   7
HETATM    7  C   UNL     1     -42.829  58.243 -56.472  1.00  0.00     0.185 A 
HETATM    8  N   UNL     1     -43.828  58.366 -57.308  1.00  0.00    -0.201 NA
HETATM    9  C   UNL     1     -43.776  57.198 -58.044  1.00  0.00     0.182 A 
HETATM   10  N   UNL     1     -42.770  56.379 -57.687  1.00  0.00    -0.152 NA
HETATM   11  N   UNL     1     -42.193  57.063 -56.683  1.00  0.00    -0.253 N 
HETATM   12  H   UNL     1     -41.396  56.673 -56.193  1.00  0.00     0.191 HD
BRANCH   9  13
HETATM   13  C   UNL     1     -44.766  56.906 -59.077  1.00  0.00     0.014 A 
HETATM   14  C   UNL     1     -45.785  57.827 -59.354  1.00  0.00     0.018 A 
HETATM   15  C   UNL     1     -46.758  57.546 -60.317  1.00  0.00     0.037 A 
HETATM   16  C   UNL     1     -46.732  56.344 -61.023  1.00  0.00     0.068 A 
HETATM   17  C   UNL     1     -45.715  55.424 -60.764  1.00  0.00     0.037 A 
HETATM   18  C   UNL     1     -44.739  55.704 -59.796  1.00  0.00     0.018 A 
BRANCH  16  19
HETATM   19  O   UNL     1     -47.744  56.195 -61.929  1.00  0.00    -0.356 OA
HETATM   20  C   UNL     1     -48.550  57.338 -62.189  1.00  0.00     0.210 C 
ENDBRANCH  16  19
ENDBRANCH   9  13
ENDBRANCH   6   7
ENDBRANCH   5   6
ENDBRANCH   2   5
BRANCH   1  21
HETATM   21  C   UNL     1     -42.269  56.884 -51.689  1.00  0.00     0.225 C 
BRANCH  21  22
HETATM   22  C   UNL     1     -42.193  55.460 -52.257  1.00  0.00     0.239 C 
HETATM   23  N   UNL     1     -40.889  55.043 -52.479  1.00  0.00    -0.325 N 
HETATM   24  H   UNL     1     -40.181  55.633 -52.042  1.00  0.00     0.169 HD
HETATM   25  O   UNL     1     -43.204  54.768 -52.361  1.00  0.00    -0.271 OA
BRANCH  23  26
HETATM   26  C   UNL     1     -40.510  53.717 -52.783  1.00  0.00     0.046 A 
HETATM   27  C   UNL     1     -40.483  53.221 -54.102  1.00  0.00    -0.034 A 
HETATM   28  C   UNL     1     -40.123  51.877 -54.320  1.00  0.00     0.015 A 
HETATM   29  C   UNL     1     -40.772  54.061 -55.317  1.00  0.00     0.050 C 
HETATM   30  C   UNL     1     -39.753  51.040 -53.265  1.00  0.00    -0.061 A 
HETATM   31  C   UNL     1     -39.346  49.619 -53.514  1.00  0.00     0.048 C 
HETATM   32  C   UNL     1     -39.720  51.562 -51.970  1.00  0.00     0.015 A 
HETATM   33  C   UNL     1     -40.095  52.892 -51.714  1.00  0.00    -0.034 A 
HETATM   34  C   UNL     1     -40.083  53.375 -50.288  1.00  0.00     0.050 C 
ENDBRANCH  23  26
ENDBRANCH  21  22
ENDBRANCH   1  21
TORSDOF 8
ENDMDL
MODEL 6
REMARK VINA RESULT:      -7.5      2.322      3.293
REMARK  8 active torsions:
REMARK  status: ('A' for Active; 'I' for Inactive)
REMARK    1  A    between atoms: C_6  and  N_7 
REMARK       I    between atoms: N_7  and  C_8 
REMARK    2  A    between atoms: C_8  and  C_9 
REMARK    3  A    between atoms: C_9  and  N_10 
REMARK       I    between atoms: N_10  and  C_11 
REMARK    4  A    between atoms: C_11  and  C_12 
REMARK    5  A    between atoms: C_12  and  S_13 
REMARK    6  A    between atoms: S_13  and  C_14 
REMARK    7  A    between atoms: C_16  and  C_17 
REMARK    8  A    between atoms: C_20  and  O_21 
ROOT
HETATM    1  N   UNL     1     -43.389  60.522 -56.217  1.00  0.00    -0.352 N 
HETATM    2  C   UNL     1     -42.495  60.380 -57.247  1.00  0.00     0.227 C 
HETATM    3  O   UNL     1     -41.316  60.714 -57.132  1.00  0.00    -0.273 OA
HETATM    4  H   UNL     1     -44.322  60.130 -56.334  1.00  0.00     0.162 HD
ENDROOT
BRANCH   2   5
HETATM    5  C   UNL     1     -43.070  59.830 -58.545  1.00  0.00     0.185 C 
BRANCH   5   6
HETATM    6  S   UNL     1     -44.594  58.868 -58.280  1.00  0.00    -0.081 SA
BRANCH   6   7
HETATM    7  C   UNL     1     -43.959  57.357 -57.766  1.00  0.00     0.185 A 
HETATM    8  N   UNL     1     -43.375  57.090 -56.626  1.00  0.00    -0.201 NA
HETATM    9  C   UNL     1     -43.008  55.764 -56.757  1.00  0.00     0.182 A 
HETATM   10  N   UNL     1     -43.362  55.219 -57.935  1.00  0.00    -0.152 NA
HETATM   11  N   UNL     1     -43.955  56.254 -58.557  1.00  0.00    -0.253 N 
HETATM   12  H   UNL     1     -44.317  56.144 -59.496  1.00  0.00     0.191 HD
BRANCH   9  13
HETATM   13  C   UNL     1     -42.270  55.072 -55.703  1.00  0.00     0.014 A 
HETATM   14  C   UNL     1     -42.859  53.999 -55.022  1.00  0.00     0.018 A 
HETATM   15  C   UNL     1     -42.176  53.349 -53.990  1.00  0.00     0.037 A 
HETATM   16  C   UNL     1     -40.894  53.756 -53.620  1.00  0.00     0.068 A 
HETATM   17  C   UNL     1     -40.294  54.817 -54.299  1.00  0.00     0.037 A 
HETATM   18  C   UNL     1     -40.979  55.471 -55.333  1.00  0.00     0.018 A 
BRANCH  16  19
HETATM   19  O   UNL     1     -40.346  53.039 -52.593  1.00  0.00    -0.356 OA
HETATM   20  C   UNL     1     -39.742  51.796 -52.925  1.00  0.00     0.210 C 
ENDBRANCH  16  19
ENDBRANCH   9  13
ENDBRANCH   6   7
ENDBRANCH   5   6
ENDBRANCH   2   5
BRANCH   1  21
HETATM   21  C   UNL     1     -43.039  61.049 -54.913  1.00  0.00     0.225 C 
BRANCH  21  22
HETATM   22  C   UNL     1     -43.293  60.056 -53.770  1.00  0.00     0.239 C 
HETATM   23  N   UNL     1     -42.629  58.851 -53.953  1.00  0.00    -0.325 N 
HETATM   24  H   UNL     1     -41.916  58.873 -54.681  1.00  0.00     0.169 HD
HETATM   25  O   UNL     1     -43.918  60.395 -52.768  1.00  0.00    -0.271 OA
BRANCH  23  26
HETATM   26  C   UNL     1     -42.501  57.847 -52.969  1.00  0.00     0.046 A 
HETATM   27  C   UNL     1     -43.508  56.891 -52.727  1.00  0.00    -0.034 A 
HETATM   28  C   UNL     1     -43.318  55.940 -51.706  1.00  0.00     0.015 A 
HETATM   29  C   UNL     1     -44.774  56.788 -53.534  1.00  0.00     0.050 C 
HETATM   30  C   UNL     1     -42.139  55.898 -50.958  1.00  0.00    -0.061 A 
HETATM   31  C   UNL     1     -41.937  54.864 -49.892  1.00  0.00     0.048 C 
HETATM   32  C   UNL     1     -41.122  56.809 -51.252  1.00  0.00     0.015 A 
HETATM   33  C   UNL     1     -41.287  57.786 -52.249  1.00  0.00    -0.034 A 
HETATM   34  C   UNL     1     -40.169  58.767 -52.480  1.00  0.00     0.050 C 
ENDBRANCH  23  26
ENDBRANCH  21  22
ENDBRANCH   1  21
TORSDOF 8
ENDMDL
MODEL 7
REMARK VINA RESULT:      -7.3      2.096      3.157
REMARK  8 active torsions:
REMARK  status: ('A' for Active; 'I' for Inactive)
REMARK    1  A    between atoms: C_6  and  N_7 
REMARK       I    between atoms: N_7  and  C_8 
REMARK    2  A    between atoms: C_8  and  C_9 
REMARK    3  A    between atoms: C_9  and  N_10 
REMARK       I    between atoms: N_10  and  C_11 
REMARK    4  A    between atoms: C_11  and  C_12 
REMARK    5  A    between atoms: C_12  and  S_13 
REMARK    6  A    between atoms: S_13  and  C_14 
REMARK    7  A    between atoms: C_16  and  C_17 
REMARK    8  A    between atoms: C_20  and  O_21 
ROOT
HETATM    1  N   UNL     1     -43.556  60.916 -54.760  1.00  0.00    -0.352 N 
HETATM    2  C   UNL     1     -42.891  60.346 -55.815  1.00  0.00     0.227 C 
HETATM    3  O   UNL     1     -41.661  60.301 -55.855  1.00  0.00    -0.273 OA
HETATM    4  H   UNL     1     -44.571  60.829 -54.730  1.00  0.00     0.162 HD
ENDROOT
BRANCH   2   5
HETATM    5  C   UNL     1     -43.770  59.822 -56.941  1.00  0.00     0.185 C 
BRANCH   5   6
HETATM    6  S   UNL     1     -44.998  58.609 -56.361  1.00  0.00    -0.081 SA
BRANCH   6   7
HETATM    7  C   UNL     1     -44.056  57.173 -56.298  1.00  0.00     0.185 A 
HETATM    8  N   UNL     1     -43.508  56.631 -55.241  1.00  0.00    -0.201 NA
HETATM    9  C   UNL     1     -42.824  55.546 -55.755  1.00  0.00     0.182 A 
HETATM   10  N   UNL     1     -42.950  55.410 -57.087  1.00  0.00    -0.152 NA
HETATM   11  N   UNL     1     -43.729  56.460 -57.405  1.00  0.00    -0.253 N 
HETATM   12  H   UNL     1     -43.985  56.630 -58.371  1.00  0.00     0.191 HD
BRANCH   9  13
HETATM   13  C   UNL     1     -42.019  54.680 -54.898  1.00  0.00     0.014 A 
HETATM   14  C   UNL     1     -40.848  54.093 -55.395  1.00  0.00     0.018 A 
HETATM   15  C   UNL     1     -40.085  53.236 -54.596  1.00  0.00     0.037 A 
HETATM   16  C   UNL     1     -40.475  52.952 -53.287  1.00  0.00     0.068 A 
HETATM   17  C   UNL     1     -41.633  53.540 -52.779  1.00  0.00     0.037 A 
HETATM   18  C   UNL     1     -42.400  54.398 -53.580  1.00  0.00     0.018 A 
BRANCH  16  19
HETATM   19  O   UNL     1     -39.643  52.095 -52.621  1.00  0.00    -0.356 OA
HETATM   20  C   UNL     1     -39.917  51.872 -51.243  1.00  0.00     0.210 C 
ENDBRANCH  16  19
ENDBRANCH   9  13
ENDBRANCH   6   7
ENDBRANCH   5   6
ENDBRANCH   2   5
BRANCH   1  21
HETATM   21  C   UNL     1     -42.897  61.491 -53.605  1.00  0.00     0.225 C 
BRANCH  21  22
HETATM   22  C   UNL     1     -42.827  60.533 -52.408  1.00  0.00     0.239 C 
HETATM   23  N   UNL     1     -42.603  59.217 -52.789  1.00  0.00    -0.325 N 
HETATM   24  H   UNL     1     -42.307  59.108 -53.759  1.00  0.00     0.169 HD
HETATM   25  O   UNL     1     -42.844  60.961 -51.256  1.00  0.00    -0.271 OA
BRANCH  23  26
HETATM   26  C   UNL     1     -42.277  58.168 -51.903  1.00  0.00     0.046 A 
HETATM   27  C   UNL     1     -40.982  57.999 -51.373  1.00  0.00    -0.034 A 
HETATM   28  C   UNL     1     -40.728  56.909 -50.520  1.00  0.00     0.015 A 
HETATM   29  C   UNL     1     -39.845  58.953 -51.626  1.00  0.00     0.050 C 
HETATM   30  C   UNL     1     -41.739  56.017 -50.155  1.00  0.00    -0.061 A 
HETATM   31  C   UNL     1     -41.463  54.875 -49.224  1.00  0.00     0.048 C 
HETATM   32  C   UNL     1     -43.033  56.232 -50.635  1.00  0.00     0.015 A 
HETATM   33  C   UNL     1     -43.316  57.298 -51.506  1.00  0.00    -0.034 A 
HETATM   34  C   UNL     1     -44.723  57.443 -52.023  1.00  0.00     0.050 C 
ENDBRANCH  23  26
ENDBRANCH  21  22
ENDBRANCH   1  21
TORSDOF 8
ENDMDL
MODEL 8
REMARK VINA RESULT:      -6.9      2.637      5.413
REMARK  8 active torsions:
REMARK  status: ('A' for Active; 'I' for Inactive)
REMARK    1  A    between atoms: C_6  and  N_7 
REMARK       I    between atoms: N_7  and  C_8 
REMARK    2  A    between atoms: C_8  and  C_9 
REMARK    3  A    between atoms: C_9  and  N_10 
REMARK       I    between atoms: N_10  and  C_11 
REMARK    4  A    between atoms: C_11  and  C_12 
REMARK    5  A    between atoms: C_12  and  S_13 
REMARK    6  A    between atoms: S_13  and  C_14 
REMARK    7  A    between atoms: C_16  and  C_17 
REMARK    8  A    between atoms: C_20  and  O_21 
ROOT
HETATM    1  N   UNL     1     -43.803  56.124 -57.254  1.00  0.00    -0.352 N 
HETATM    2  C   UNL     1     -43.646  56.627 -58.520  1.00  0.00     0.227 C 
HETATM    3  O   UNL     1     -42.833  56.147 -59.310  1.00  0.00    -0.273 OA
HETATM    4  H   UNL     1     -44.564  56.491 -56.683  1.00  0.00     0.162 HD
ENDROOT
BRANCH   2   5
HETATM    5  C   UNL     1     -44.506  57.836 -58.858  1.00  0.00     0.185 C 
BRANCH   5   6
HETATM    6  S   UNL     1     -43.652  59.412 -58.532  1.00  0.00    -0.081 SA
BRANCH   6   7
HETATM    7  C   UNL     1     -43.640  59.445 -56.814  1.00  0.00     0.185 A 
HETATM    8  N   UNL     1     -42.595  59.507 -56.030  1.00  0.00    -0.201 NA
HETATM    9  C   UNL     1     -43.140  59.442 -54.762  1.00  0.00     0.182 A 
HETATM   10  N   UNL     1     -44.482  59.354 -54.755  1.00  0.00    -0.152 NA
HETATM   11  N   UNL     1     -44.771  59.349 -56.069  1.00  0.00    -0.253 N 
HETATM   12  H   UNL     1     -45.732  59.271 -56.379  1.00  0.00     0.191 HD
BRANCH   9  13
HETATM   13  C   UNL     1     -42.294  59.433 -53.571  1.00  0.00     0.014 A 
HETATM   14  C   UNL     1     -42.753  60.011 -52.380  1.00  0.00     0.018 A 
HETATM   15  C   UNL     1     -41.942  60.037 -51.242  1.00  0.00     0.037 A 
HETATM   16  C   UNL     1     -40.660  59.487 -51.271  1.00  0.00     0.068 A 
HETATM   17  C   UNL     1     -40.198  58.899 -52.448  1.00  0.00     0.037 A 
HETATM   18  C   UNL     1     -41.010  58.874 -53.591  1.00  0.00     0.018 A 
BRANCH  16  19
HETATM   19  O   UNL     1     -39.973  59.586 -50.093  1.00  0.00    -0.356 OA
HETATM   20  C   UNL     1     -38.557  59.673 -50.178  1.00  0.00     0.210 C 
ENDBRANCH  16  19
ENDBRANCH   9  13
ENDBRANCH   6   7
ENDBRANCH   5   6
ENDBRANCH   2   5
BRANCH   1  21
HETATM   21  C   UNL     1     -43.060  54.993 -56.737  1.00  0.00     0.225 C 
BRANCH  21  22
HETATM   22  C   UNL     1     -42.282  55.313 -55.453  1.00  0.00     0.239 C 
HETATM   23  N   UNL     1     -42.649  54.501 -54.390  1.00  0.00    -0.325 N 
HETATM   24  H   UNL     1     -43.204  53.689 -54.657  1.00  0.00     0.169 HD
HETATM   25  O   UNL     1     -41.357  56.123 -55.462  1.00  0.00    -0.271 OA
BRANCH  23  26
HETATM   26  C   UNL     1     -41.956  54.421 -53.163  1.00  0.00     0.046 A 
HETATM   27  C   UNL     1     -40.887  53.528 -52.954  1.00  0.00    -0.034 A 
HETATM   28  C   UNL     1     -40.267  53.486 -51.691  1.00  0.00     0.015 A 
HETATM   29  C   UNL     1     -40.324  52.634 -54.026  1.00  0.00     0.050 C 
HETATM   30  C   UNL     1     -40.659  54.338 -50.656  1.00  0.00    -0.061 A 
HETATM   31  C   UNL     1     -39.973  54.303 -49.324  1.00  0.00     0.048 C 
HETATM   32  C   UNL     1     -41.676  55.265 -50.896  1.00  0.00     0.015 A 
HETATM   33  C   UNL     1     -42.332  55.318 -52.137  1.00  0.00    -0.034 A 
HETATM   34  C   UNL     1     -43.453  56.308 -52.311  1.00  0.00     0.050 C 
ENDBRANCH  23  26
ENDBRANCH  21  22
ENDBRANCH   1  21
TORSDOF 8
ENDMDL
MODEL 9
REMARK VINA RESULT:      -6.9      3.609      7.624
REMARK  8 active torsions:
REMARK  status: ('A' for Active; 'I' for Inactive)
REMARK    1  A    between atoms: C_6  and  N_7 
REMARK       I    between atoms: N_7  and  C_8 
REMARK    2  A    between atoms: C_8  and  C_9 
REMARK    3  A    between atoms: C_9  and  N_10 
REMARK       I    between atoms: N_10  and  C_11 
REMARK    4  A    between atoms: C_11  and  C_12 
REMARK    5  A    between atoms: C_12  and  S_13 
REMARK    6  A    between atoms: S_13  and  C_14 
REMARK    7  A    between atoms: C_16  and  C_17 
REMARK    8  A    between atoms: C_20  and  O_21 
ROOT
HETATM    1  N   UNL     1     -42.804  57.934 -52.716  1.00  0.00    -0.352 N 
HETATM    2  C   UNL     1     -44.134  58.257 -52.795  1.00  0.00     0.227 C 
HETATM    3  O   UNL     1     -44.955  57.821 -51.987  1.00  0.00    -0.273 OA
HETATM    4  H   UNL     1     -42.157  58.408 -53.345  1.00  0.00     0.162 HD
ENDROOT
BRANCH   2   5
HETATM    5  C   UNL     1     -44.527  59.143 -53.968  1.00  0.00     0.185 C 
BRANCH   5   6
HETATM    6  S   UNL     1     -45.078  58.183 -55.415  1.00  0.00    -0.081 SA
BRANCH   6   7
HETATM    7  C   UNL     1     -43.829  58.521 -56.545  1.00  0.00     0.185 A 
HETATM    8  N   UNL     1     -43.483  59.690 -57.018  1.00  0.00    -0.201 NA
HETATM    9  C   UNL     1     -42.483  59.389 -57.922  1.00  0.00     0.182 A 
HETATM   10  N   UNL     1     -42.206  58.075 -58.003  1.00  0.00    -0.152 NA
HETATM   11  N   UNL     1     -43.080  57.549 -57.126  1.00  0.00    -0.253 N 
HETATM   12  H   UNL     1     -43.117  56.546 -56.983  1.00  0.00     0.191 HD
BRANCH   9  13
HETATM   13  C   UNL     1     -41.844  60.429 -58.723  1.00  0.00     0.014 A 
HETATM   14  C   UNL     1     -42.060  60.483 -60.107  1.00  0.00     0.018 A 
HETATM   15  C   UNL     1     -41.429  61.454 -60.890  1.00  0.00     0.037 A 
HETATM   16  C   UNL     1     -40.573  62.389 -60.308  1.00  0.00     0.068 A 
HETATM   17  C   UNL     1     -40.359  62.351 -58.930  1.00  0.00     0.037 A 
HETATM   18  C   UNL     1     -40.991  61.377 -58.143  1.00  0.00     0.018 A 
BRANCH  16  19
HETATM   19  O   UNL     1     -40.018  63.276 -61.188  1.00  0.00    -0.356 OA
HETATM   20  C   UNL     1     -39.189  64.293 -60.642  1.00  0.00     0.210 C 
ENDBRANCH  16  19
ENDBRANCH   9  13
ENDBRANCH   6   7
ENDBRANCH   5   6
ENDBRANCH   2   5
BRANCH   1  21
HETATM   21  C   UNL     1     -42.240  57.085 -51.686  1.00  0.00     0.225 C 
BRANCH  21  22
HETATM   22  C   UNL     1     -42.196  55.602 -52.080  1.00  0.00     0.239 C 
HETATM   23  N   UNL     1     -40.963  55.221 -52.590  1.00  0.00    -0.325 N 
HETATM   24  H   UNL     1     -40.218  55.899 -52.431  1.00  0.00     0.169 HD
HETATM   25  O   UNL     1     -43.138  54.855 -51.827  1.00  0.00    -0.271 OA
BRANCH  23  26
HETATM   26  C   UNL     1     -40.568  53.887 -52.824  1.00  0.00     0.046 A 
HETATM   27  C   UNL     1     -40.130  53.034 -51.792  1.00  0.00    -0.034 A 
HETATM   28  C   UNL     1     -39.722  51.725 -52.112  1.00  0.00     0.015 A 
HETATM   29  C   UNL     1     -40.116  53.422 -50.337  1.00  0.00     0.050 C 
HETATM   30  C   UNL     1     -39.782  51.241 -53.421  1.00  0.00    -0.061 A 
HETATM   31  C   UNL     1     -39.370  49.837 -53.745  1.00  0.00     0.048 C 
HETATM   32  C   UNL     1     -40.279  52.075 -54.425  1.00  0.00     0.015 A 
HETATM   33  C   UNL     1     -40.673  53.394 -54.145  1.00  0.00    -0.034 A 
HETATM   34  C   UNL     1     -41.153  54.254 -55.284  1.00  0.00     0.050 C 
ENDBRANCH  23  26
ENDBRANCH  21  22
ENDBRANCH   1  21
TORSDOF 8
ENDMDL
MODEL 10
REMARK VINA RESULT:      -6.9     15.358     17.957
REMARK  8 active torsions:
REMARK  status: ('A' for Active; 'I' for Inactive)
REMARK    1  A    between atoms: C_6  and  N_7 
REMARK       I    between atoms: N_7  and  C_8 
REMARK    2  A    between atoms: C_8  and  C_9 
REMARK    3  A    between atoms: C_9  and  N_10 
REMARK       I    between atoms: N_10  and  C_11 
REMARK    4  A    between atoms: C_11  and  C_12 
REMARK    5  A    between atoms: C_12  and  S_13 
REMARK    6  A    between atoms: S_13  and  C_14 
REMARK    7  A    between atoms: C_16  and  C_17 
REMARK    8  A    between atoms: C_20  and  O_21 
ROOT
HETATM    1  N   UNL     1     -34.292  39.598 -51.700  1.00  0.00    -0.352 N 
HETATM    2  C   UNL     1     -32.934  39.505 -51.866  1.00  0.00     0.227 C 
HETATM    3  O   UNL     1     -32.213  40.504 -51.874  1.00  0.00    -0.273 OA
HETATM    4  H   UNL     1     -34.822  38.735 -51.594  1.00  0.00     0.162 HD
ENDROOT
BRANCH   2   5
HETATM    5  C   UNL     1     -32.393  38.100 -52.085  1.00  0.00     0.185 C 
BRANCH   5   6
HETATM    6  S   UNL     1     -31.857  37.817 -53.802  1.00  0.00    -0.081 SA
BRANCH   6   7
HETATM    7  C   UNL     1     -33.365  37.616 -54.602  1.00  0.00     0.185 A 
HETATM    8  N   UNL     1     -33.685  38.023 -55.803  1.00  0.00    -0.201 NA
HETATM    9  C   UNL     1     -35.014  37.663 -55.920  1.00  0.00     0.182 A 
HETATM   10  N   UNL     1     -35.503  37.041 -54.833  1.00  0.00    -0.152 NA
HETATM   11  N   UNL     1     -34.438  37.033 -54.010  1.00  0.00    -0.253 N 
HETATM   12  H   UNL     1     -34.514  36.632 -53.083  1.00  0.00     0.191 HD
BRANCH   9  13
HETATM   13  C   UNL     1     -35.785  37.985 -57.118  1.00  0.00     0.014 A 
HETATM   14  C   UNL     1     -37.186  37.977 -57.074  1.00  0.00     0.018 A 
HETATM   15  C   UNL     1     -37.937  38.251 -58.221  1.00  0.00     0.037 A 
HETATM   16  C   UNL     1     -37.305  38.541 -59.430  1.00  0.00     0.068 A 
HETATM   17  C   UNL     1     -35.911  38.563 -59.482  1.00  0.00     0.037 A 
HETATM   18  C   UNL     1     -35.157  38.286 -58.333  1.00  0.00     0.018 A 
BRANCH  16  19
HETATM   19  O   UNL     1     -38.157  38.784 -60.471  1.00  0.00    -0.356 OA
HETATM   20  C   UNL     1     -39.435  38.162 -60.417  1.00  0.00     0.210 C 
ENDBRANCH  16  19
ENDBRANCH   9  13
ENDBRANCH   6   7
ENDBRANCH   5   6
ENDBRANCH   2   5
BRANCH   1  21
HETATM   21  C   UNL     1     -34.997  40.849 -51.502  1.00  0.00     0.225 C 
BRANCH  21  22
HETATM   22  C   UNL     1     -35.276  41.601 -52.811  1.00  0.00     0.239 C 
HETATM   23  N   UNL     1     -35.399  40.749 -53.900  1.00  0.00    -0.325 N 
HETATM   24  H   UNL     1     -35.504  39.766 -53.651  1.00  0.00     0.169 HD
HETATM   25  O   UNL     1     -35.487  42.811 -52.810  1.00  0.00    -0.271 OA
BRANCH  23  26
HETATM   26  C   UNL     1     -35.870  41.136 -55.173  1.00  0.00     0.046 A 
HETATM   27  C   UNL     1     -37.241  41.299 -55.457  1.00  0.00    -0.034 A 
HETATM   28  C   UNL     1     -37.632  41.656 -56.761  1.00  0.00     0.015 A 
HETATM   29  C   UNL     1     -38.329  41.161 -54.426  1.00  0.00     0.050 C 
HETATM   30  C   UNL     1     -36.692  41.892 -57.766  1.00  0.00    -0.061 A 
HETATM   31  C   UNL     1     -37.120  42.298 -59.144  1.00  0.00     0.048 C 
HETATM   32  C   UNL     1     -35.334  41.791 -57.456  1.00  0.00     0.015 A 
HETATM   33  C   UNL     1     -34.909  41.415 -56.171  1.00  0.00    -0.034 A 
HETATM   34  C   UNL     1     -33.431  41.278 -55.918  1.00  0.00     0.050 C 
ENDBRANCH  23  26
ENDBRANCH  21  22
ENDBRANCH   1  21
TORSDOF 8
ENDMDL
