MODEL 1
REMARK VINA RESULT:      -7.1      0.000      0.000
REMARK  7 active torsions:
REMARK  status: ('A' for Active; 'I' for Inactive)
REMARK    1  A    between atoms: C_2  and  N_3 
REMARK    2  A    between atoms: C_8  and  C_9 
REMARK    3  A    between atoms: C_9  and  N_10 
REMARK       I    between atoms: N_10  and  C_11 
REMARK       I    between atoms: C_11  and  N_12 
REMARK    4  A    between atoms: N_12  and  C_13 
REMARK    5  A    between atoms: C_14  and  O_15 
REMARK    6  A    between atoms: C_18  and  O_19 
REMARK    7  A    between atoms: C_26  and  N_27 
ROOT
HETATM    1  C   UNL     1     -45.206  59.572 -52.771  1.00  0.00     0.118 C 
HETATM    2  C   UNL     1     -45.143  59.944 -54.251  1.00  0.00     0.037 C 
ENDROOT
BRANCH   1   3
HETATM    3  C   UNL     1     -44.550  60.616 -51.877  1.00  0.00     0.006 C 
HETATM    4  C   UNL     1     -45.267  61.644 -51.127  1.00  0.00    -0.031 C 
HETATM    5  C   UNL     1     -44.404  62.540 -50.524  1.00  0.00     0.017 C 
HETATM    6  C   UNL     1     -46.756  61.780 -50.930  1.00  0.00     0.068 C 
HETATM    7  C   UNL     1     -44.807  63.715 -49.701  1.00  0.00     0.281 C 
HETATM    8  S   UNL     1     -42.780  62.188 -50.821  1.00  0.00    -0.074 SA
HETATM    9  N   UNL     1     -46.228  63.547 -49.174  1.00  0.00    -0.067 N 
HETATM   10  H   UNL     1     -46.533  64.479 -48.867  1.00  0.00     0.280 HD
HETATM   11  C   UNL     1     -47.151  63.143 -50.327  1.00  0.00     0.240 C 
HETATM   12  C   UNL     1     -43.180  60.756 -51.656  1.00  0.00     0.089 C 
BRANCH   9  13
HETATM   13  C   UNL     1     -46.345  62.623 -47.980  1.00  0.00     0.231 C 
HETATM   14  C   UNL     1     -45.240  62.883 -46.972  1.00  0.00     0.034 C 
ENDBRANCH   9  13
BRANCH  12  15
HETATM   15  N   UNL     1     -42.112  59.889 -51.978  1.00  0.00    -0.327 N 
HETATM   16  C   UNL     1     -41.497  59.730 -53.213  1.00  0.00     0.097 A 
HETATM   17  C   UNL     1     -40.464  58.825 -53.109  1.00  0.00     0.019 A 
HETATM   18  C   UNL     1     -40.402  58.422 -51.764  1.00  0.00     0.019 A 
HETATM   19  C   UNL     1     -41.399  59.095 -51.093  1.00  0.00     0.097 A 
ENDBRANCH  12  15
ENDBRANCH   1   3
BRANCH   1  20
HETATM   20  N   UNL     1     -44.570  58.282 -52.531  1.00  0.00    -0.334 N 
HETATM   21  C   UNL     1     -44.906  57.553 -51.414  1.00  0.00     0.321 C 
HETATM   22  N   UNL     1     -44.483  56.253 -51.416  1.00  0.00    -0.306 N 
HETATM   23  O   UNL     1     -45.625  57.978 -50.518  1.00  0.00    -0.247 OA
HETATM   24  H   UNL     1     -45.056  55.634 -50.847  1.00  0.00     0.171 HD
HETATM   25  H   UNL     1     -44.473  57.684 -53.339  1.00  0.00     0.165 HD
BRANCH  22  26
HETATM   26  C   UNL     1     -43.419  55.638 -52.103  1.00  0.00     0.071 A 
HETATM   27  C   UNL     1     -42.243  55.337 -51.395  1.00  0.00     0.097 A 
HETATM   28  C   UNL     1     -41.163  54.737 -52.057  1.00  0.00     0.077 A 
HETATM   29  C   UNL     1     -41.246  54.428 -53.422  1.00  0.00     0.092 A 
HETATM   30  C   UNL     1     -42.416  54.763 -54.121  1.00  0.00     0.069 A 
HETATM   31 CL   UNL     1     -42.598  54.442 -55.813  1.00  0.00    -0.081 Cl
HETATM   32  C   UNL     1     -43.487  55.374 -53.469  1.00  0.00     0.059 A 
BRANCH  27  33
HETATM   33  O   UNL     1     -42.250  55.666 -50.062  1.00  0.00    -0.354 OA
HETATM   34  C   UNL     1     -41.122  55.243 -49.300  1.00  0.00     0.210 C 
ENDBRANCH  27  33
BRANCH  29  35
HETATM   35  O   UNL     1     -40.252  53.827 -54.148  1.00  0.00    -0.354 OA
HETATM   36  C   UNL     1     -40.128  52.413 -54.065  1.00  0.00     0.210 C 
ENDBRANCH  29  35
ENDBRANCH  22  26
ENDBRANCH   1  20
TORSDOF 7
ENDMDL
MODEL 2
REMARK VINA RESULT:      -7.0      1.767      2.339
REMARK  7 active torsions:
REMARK  status: ('A' for Active; 'I' for Inactive)
REMARK    1  A    between atoms: C_2  and  N_3 
REMARK    2  A    between atoms: C_8  and  C_9 
REMARK    3  A    between atoms: C_9  and  N_10 
REMARK       I    between atoms: N_10  and  C_11 
REMARK       I    between atoms: C_11  and  N_12 
REMARK    4  A    between atoms: N_12  and  C_13 
REMARK    5  A    between atoms: C_14  and  O_15 
REMARK    6  A    between atoms: C_18  and  O_19 
REMARK    7  A    between atoms: C_26  and  N_27 
ROOT
HETATM    1  C   UNL     1     -44.627  58.895 -52.912  1.00  0.00     0.118 C 
HETATM    2  C   UNL     1     -44.172  58.987 -54.367  1.00  0.00     0.037 C 
ENDROOT
BRANCH   1   3
HETATM    3  C   UNL     1     -44.207  60.106 -52.089  1.00  0.00     0.006 C 
HETATM    4  C   UNL     1     -45.104  61.171 -51.649  1.00  0.00    -0.031 C 
HETATM    5  C   UNL     1     -44.417  62.210 -51.051  1.00  0.00     0.017 C 
HETATM    6  C   UNL     1     -46.608  61.214 -51.744  1.00  0.00     0.068 C 
HETATM    7  C   UNL     1     -45.029  63.456 -50.507  1.00  0.00     0.281 C 
HETATM    8  S   UNL     1     -42.751  61.951 -50.995  1.00  0.00    -0.074 SA
HETATM    9  N   UNL     1     -46.513  63.252 -50.221  1.00  0.00    -0.067 N 
HETATM   10  H   UNL     1     -46.919  64.191 -50.123  1.00  0.00     0.280 HD
HETATM   11  C   UNL     1     -47.180  62.614 -51.443  1.00  0.00     0.240 C 
HETATM   12  C   UNL     1     -42.911  60.386 -51.653  1.00  0.00     0.089 C 
BRANCH   9  13
HETATM   13  C   UNL     1     -46.804  62.504 -48.937  1.00  0.00     0.231 C 
HETATM   14  C   UNL     1     -45.931  63.002 -47.800  1.00  0.00     0.034 C 
ENDBRANCH   9  13
BRANCH  12  15
HETATM   15  N   UNL     1     -41.759  59.570 -51.640  1.00  0.00    -0.327 N 
HETATM   16  C   UNL     1     -41.271  58.816 -50.580  1.00  0.00     0.097 A 
HETATM   17  C   UNL     1     -40.152  58.118 -50.977  1.00  0.00     0.019 A 
HETATM   18  C   UNL     1     -39.942  58.412 -52.335  1.00  0.00     0.019 A 
HETATM   19  C   UNL     1     -40.940  59.280 -52.721  1.00  0.00     0.097 A 
ENDBRANCH  12  15
ENDBRANCH   1   3
BRANCH   1  20
HETATM   20  N   UNL     1     -44.102  57.692 -52.277  1.00  0.00    -0.334 N 
HETATM   21  C   UNL     1     -44.747  57.159 -51.186  1.00  0.00     0.321 C 
HETATM   22  N   UNL     1     -44.359  55.895 -50.838  1.00  0.00    -0.306 N 
HETATM   23  O   UNL     1     -45.683  57.708 -50.617  1.00  0.00    -0.247 OA
HETATM   24  H   UNL     1     -45.078  55.365 -50.350  1.00  0.00     0.171 HD
HETATM   25  H   UNL     1     -43.790  56.965 -52.906  1.00  0.00     0.165 HD
BRANCH  22  26
HETATM   26  C   UNL     1     -43.154  55.208 -51.080  1.00  0.00     0.071 A 
HETATM   27  C   UNL     1     -42.959  54.609 -52.336  1.00  0.00     0.097 A 
HETATM   28  C   UNL     1     -41.775  53.909 -52.601  1.00  0.00     0.077 A 
HETATM   29  C   UNL     1     -40.775  53.805 -51.622  1.00  0.00     0.092 A 
HETATM   30  C   UNL     1     -40.998  54.383 -50.364  1.00  0.00     0.069 A 
HETATM   31 CL   UNL     1     -39.831  54.282 -49.087  1.00  0.00    -0.081 Cl
HETATM   32  C   UNL     1     -42.182  55.067 -50.092  1.00  0.00     0.059 A 
BRANCH  27  33
HETATM   33  O   UNL     1     -43.984  54.767 -53.236  1.00  0.00    -0.354 OA
HETATM   34  C   UNL     1     -43.608  54.956 -54.597  1.00  0.00     0.210 C 
ENDBRANCH  27  33
BRANCH  29  35
HETATM   35  O   UNL     1     -39.581  53.158 -51.794  1.00  0.00    -0.354 OA
HETATM   36  C   UNL     1     -39.591  51.735 -51.818  1.00  0.00     0.210 C 
ENDBRANCH  29  35
ENDBRANCH  22  26
ENDBRANCH   1  20
TORSDOF 7
ENDMDL
MODEL 3
REMARK VINA RESULT:      -6.9      4.441      7.805
REMARK  7 active torsions:
REMARK  status: ('A' for Active; 'I' for Inactive)
REMARK    1  A    between atoms: C_2  and  N_3 
REMARK    2  A    between atoms: C_8  and  C_9 
REMARK    3  A    between atoms: C_9  and  N_10 
REMARK       I    between atoms: N_10  and  C_11 
REMARK       I    between atoms: C_11  and  N_12 
REMARK    4  A    between atoms: N_12  and  C_13 
REMARK    5  A    between atoms: C_14  and  O_15 
REMARK    6  A    between atoms: C_18  and  O_19 
REMARK    7  A    between atoms: C_26  and  N_27 
ROOT
HETATM    1  C   UNL     1     -40.574  55.450 -54.774  1.00  0.00     0.118 C 
HETATM    2  C   UNL     1     -40.045  54.026 -54.938  1.00  0.00     0.037 C 
ENDROOT
BRANCH   1   3
HETATM    3  C   UNL     1     -41.332  55.645 -53.468  1.00  0.00     0.006 C 
HETATM    4  C   UNL     1     -41.295  54.726 -52.334  1.00  0.00    -0.031 C 
HETATM    5  C   UNL     1     -42.195  55.085 -51.349  1.00  0.00     0.017 C 
HETATM    6  C   UNL     1     -40.397  53.531 -52.138  1.00  0.00     0.068 C 
HETATM    7  C   UNL     1     -42.422  54.352 -50.070  1.00  0.00     0.281 C 
HETATM    8  S   UNL     1     -43.069  56.477 -51.732  1.00  0.00    -0.074 SA
HETATM    9  N   UNL     1     -41.226  53.469 -49.732  1.00  0.00    -0.067 N 
HETATM   10  H   UNL     1     -41.552  52.803 -49.020  1.00  0.00     0.280 HD
HETATM   11  C   UNL     1     -40.845  52.640 -50.962  1.00  0.00     0.240 C 
HETATM   12  C   UNL     1     -42.180  56.712 -53.168  1.00  0.00     0.089 C 
BRANCH   9  13
HETATM   13  C   UNL     1     -40.048  54.214 -49.140  1.00  0.00     0.231 C 
HETATM   14  C   UNL     1     -39.927  53.956 -47.649  1.00  0.00     0.034 C 
ENDBRANCH   9  13
BRANCH  12  15
HETATM   15  N   UNL     1     -42.371  57.940 -53.840  1.00  0.00    -0.327 N 
HETATM   16  C   UNL     1     -43.565  58.463 -54.320  1.00  0.00     0.097 A 
HETATM   17  C   UNL     1     -43.345  59.705 -54.871  1.00  0.00     0.019 A 
HETATM   18  C   UNL     1     -41.979  59.993 -54.707  1.00  0.00     0.019 A 
HETATM   19  C   UNL     1     -41.412  58.916 -54.062  1.00  0.00     0.097 A 
ENDBRANCH  12  15
ENDBRANCH   1   3
BRANCH   1  20
HETATM   20  N   UNL     1     -41.450  55.810 -55.883  1.00  0.00    -0.334 N 
HETATM   21  C   UNL     1     -42.598  55.086 -56.108  1.00  0.00     0.321 C 
HETATM   22  N   UNL     1     -43.489  55.658 -56.973  1.00  0.00    -0.306 N 
HETATM   23  O   UNL     1     -42.879  54.057 -55.507  1.00  0.00    -0.247 OA
HETATM   24  H   UNL     1     -44.453  55.371 -56.818  1.00  0.00     0.171 HD
HETATM   25  H   UNL     1     -41.613  56.799 -56.009  1.00  0.00     0.165 HD
BRANCH  22  26
HETATM   26  C   UNL     1     -43.290  56.598 -58.003  1.00  0.00     0.071 A 
HETATM   27  C   UNL     1     -43.692  56.264 -59.307  1.00  0.00     0.097 A 
HETATM   28  C   UNL     1     -43.493  57.175 -60.354  1.00  0.00     0.077 A 
HETATM   29  C   UNL     1     -42.901  58.423 -60.110  1.00  0.00     0.092 A 
HETATM   30  C   UNL     1     -42.479  58.728 -58.808  1.00  0.00     0.069 A 
HETATM   31 CL   UNL     1     -41.716  60.233 -58.419  1.00  0.00    -0.081 Cl
HETATM   32  C   UNL     1     -42.661  57.818 -57.767  1.00  0.00     0.059 A 
BRANCH  27  33
HETATM   33  O   UNL     1     -44.268  55.027 -59.454  1.00  0.00    -0.354 OA
HETATM   34  C   UNL     1     -44.995  54.807 -60.661  1.00  0.00     0.210 C 
ENDBRANCH  27  33
BRANCH  29  35
HETATM   35  O   UNL     1     -42.684  59.382 -61.063  1.00  0.00    -0.354 OA
HETATM   36  C   UNL     1     -43.778  60.208 -61.440  1.00  0.00     0.210 C 
ENDBRANCH  29  35
ENDBRANCH  22  26
ENDBRANCH   1  20
TORSDOF 7
ENDMDL
MODEL 4
REMARK VINA RESULT:      -6.9      3.051      4.560
REMARK  7 active torsions:
REMARK  status: ('A' for Active; 'I' for Inactive)
REMARK    1  A    between atoms: C_2  and  N_3 
REMARK    2  A    between atoms: C_8  and  C_9 
REMARK    3  A    between atoms: C_9  and  N_10 
REMARK       I    between atoms: N_10  and  C_11 
REMARK       I    between atoms: C_11  and  N_12 
REMARK    4  A    between atoms: N_12  and  C_13 
REMARK    5  A    between atoms: C_14  and  O_15 
REMARK    6  A    between atoms: C_18  and  O_19 
REMARK    7  A    between atoms: C_26  and  N_27 
ROOT
HETATM    1  C   UNL     1     -43.100  58.427 -54.854  1.00  0.00     0.118 C 
HETATM    2  C   UNL     1     -42.123  58.643 -56.008  1.00  0.00     0.037 C 
ENDROOT
BRANCH   1   3
HETATM    3  C   UNL     1     -42.866  59.395 -53.701  1.00  0.00     0.006 C 
HETATM    4  C   UNL     1     -42.112  59.086 -52.490  1.00  0.00    -0.031 C 
HETATM    5  C   UNL     1     -42.193  60.103 -51.558  1.00  0.00     0.017 C 
HETATM    6  C   UNL     1     -41.278  57.863 -52.203  1.00  0.00     0.068 C 
HETATM    7  C   UNL     1     -41.554  60.100 -50.211  1.00  0.00     0.281 C 
HETATM    8  S   UNL     1     -43.128  61.405 -52.085  1.00  0.00    -0.074 SA
HETATM    9  N   UNL     1     -40.402  59.102 -50.159  1.00  0.00    -0.067 N 
HETATM   10  H   UNL     1     -40.198  58.949 -49.163  1.00  0.00     0.280 HD
HETATM   11  C   UNL     1     -40.873  57.757 -50.719  1.00  0.00     0.240 C 
HETATM   12  C   UNL     1     -43.347  60.703 -53.623  1.00  0.00     0.089 C 
BRANCH   9  13
HETATM   13  C   UNL     1     -39.123  59.591 -50.806  1.00  0.00     0.231 C 
HETATM   14  C   UNL     1     -38.091  59.975 -49.762  1.00  0.00     0.034 C 
ENDBRANCH   9  13
BRANCH  12  15
HETATM   15  N   UNL     1     -43.933  61.518 -54.617  1.00  0.00    -0.327 N 
HETATM   16  C   UNL     1     -45.267  61.889 -54.726  1.00  0.00     0.097 A 
HETATM   17  C   UNL     1     -45.433  62.731 -55.803  1.00  0.00     0.019 A 
HETATM   18  C   UNL     1     -44.164  62.925 -56.375  1.00  0.00     0.019 A 
HETATM   19  C   UNL     1     -43.267  62.194 -55.627  1.00  0.00     0.097 A 
ENDBRANCH  12  15
ENDBRANCH   1   3
BRANCH   1  20
HETATM   20  N   UNL     1     -43.012  57.063 -54.346  1.00  0.00    -0.334 N 
HETATM   21  C   UNL     1     -44.145  56.287 -54.278  1.00  0.00     0.321 C 
HETATM   22  N   UNL     1     -43.927  54.953 -54.065  1.00  0.00    -0.306 N 
HETATM   23  O   UNL     1     -45.272  56.711 -54.499  1.00  0.00    -0.247 OA
HETATM   24  H   UNL     1     -44.667  54.355 -54.424  1.00  0.00     0.171 HD
HETATM   25  H   UNL     1     -42.221  56.525 -54.671  1.00  0.00     0.165 HD
BRANCH  22  26
HETATM   26  C   UNL     1     -42.838  54.288 -53.470  1.00  0.00     0.071 A 
HETATM   27  C   UNL     1     -42.608  54.464 -52.096  1.00  0.00     0.097 A 
HETATM   28  C   UNL     1     -41.523  53.825 -51.481  1.00  0.00     0.077 A 
HETATM   29  C   UNL     1     -40.665  53.002 -52.225  1.00  0.00     0.092 A 
HETATM   30  C   UNL     1     -40.892  52.860 -53.602  1.00  0.00     0.069 A 
HETATM   31 CL   UNL     1     -39.869  51.886 -54.606  1.00  0.00    -0.081 Cl
HETATM   32  C   UNL     1     -41.961  53.508 -54.221  1.00  0.00     0.059 A 
BRANCH  27  33
HETATM   33  O   UNL     1     -43.499  55.279 -51.443  1.00  0.00    -0.354 OA
HETATM   34  C   UNL     1     -44.174  54.711 -50.323  1.00  0.00     0.210 C 
ENDBRANCH  27  33
BRANCH  29  35
HETATM   35  O   UNL     1     -39.593  52.324 -51.710  1.00  0.00    -0.354 OA
HETATM   36  C   UNL     1     -39.846  51.115 -51.006  1.00  0.00     0.210 C 
ENDBRANCH  29  35
ENDBRANCH  22  26
ENDBRANCH   1  20
TORSDOF 7
ENDMDL
MODEL 5
REMARK VINA RESULT:      -6.7      3.884      7.524
REMARK  7 active torsions:
REMARK  status: ('A' for Active; 'I' for Inactive)
REMARK    1  A    between atoms: C_2  and  N_3 
REMARK    2  A    between atoms: C_8  and  C_9 
REMARK    3  A    between atoms: C_9  and  N_10 
REMARK       I    between atoms: N_10  and  C_11 
REMARK       I    between atoms: C_11  and  N_12 
REMARK    4  A    between atoms: N_12  and  C_13 
REMARK    5  A    between atoms: C_14  and  O_15 
REMARK    6  A    between atoms: C_18  and  O_19 
REMARK    7  A    between atoms: C_26  and  N_27 
ROOT
HETATM    1  C   UNL     1     -43.915  58.273 -55.523  1.00  0.00     0.118 C 
HETATM    2  C   UNL     1     -45.420  58.011 -55.525  1.00  0.00     0.037 C 
ENDROOT
BRANCH   1   3
HETATM    3  C   UNL     1     -43.101  57.008 -55.282  1.00  0.00     0.006 C 
HETATM    4  C   UNL     1     -42.743  56.484 -53.967  1.00  0.00    -0.031 C 
HETATM    5  C   UNL     1     -41.878  55.409 -54.059  1.00  0.00     0.017 C 
HETATM    6  C   UNL     1     -43.230  56.949 -52.618  1.00  0.00     0.068 C 
HETATM    7  C   UNL     1     -41.306  54.655 -52.907  1.00  0.00     0.281 C 
HETATM    8  S   UNL     1     -41.492  55.011 -55.652  1.00  0.00    -0.074 SA
HETATM    9  N   UNL     1     -42.150  54.855 -51.654  1.00  0.00    -0.067 N 
HETATM   10  H   UNL     1     -41.567  54.553 -50.863  1.00  0.00     0.280 HD
HETATM   11  C   UNL     1     -42.413  56.350 -51.455  1.00  0.00     0.240 C 
HETATM   12  C   UNL     1     -42.568  56.180 -56.269  1.00  0.00     0.089 C 
BRANCH   9  13
HETATM   13  C   UNL     1     -43.416  54.026 -51.616  1.00  0.00     0.231 C 
HETATM   14  C   UNL     1     -44.217  54.302 -50.356  1.00  0.00     0.034 C 
ENDBRANCH   9  13
BRANCH  12  15
HETATM   15  N   UNL     1     -42.817  56.144 -57.660  1.00  0.00    -0.327 N 
HETATM   16  C   UNL     1     -43.542  55.190 -58.363  1.00  0.00     0.097 A 
HETATM   17  C   UNL     1     -43.599  55.532 -59.695  1.00  0.00     0.019 A 
HETATM   18  C   UNL     1     -42.919  56.754 -59.836  1.00  0.00     0.019 A 
HETATM   19  C   UNL     1     -42.470  57.115 -58.585  1.00  0.00     0.097 A 
ENDBRANCH  12  15
ENDBRANCH   1   3
BRANCH   1  20
HETATM   20  N   UNL     1     -43.559  59.260 -54.510  1.00  0.00    -0.334 N 
HETATM   21  C   UNL     1     -42.487  60.095 -54.719  1.00  0.00     0.321 C 
HETATM   22  N   UNL     1     -42.401  61.161 -53.866  1.00  0.00    -0.306 N 
HETATM   23  O   UNL     1     -41.712  59.981 -55.661  1.00  0.00    -0.247 OA
HETATM   24  H   UNL     1     -41.907  61.960 -54.256  1.00  0.00     0.171 HD
HETATM   25  H   UNL     1     -44.333  59.759 -54.094  1.00  0.00     0.165 HD
BRANCH  22  26
HETATM   26  C   UNL     1     -42.916  61.336 -52.567  1.00  0.00     0.071 A 
HETATM   27  C   UNL     1     -42.297  60.664 -51.500  1.00  0.00     0.097 A 
HETATM   28  C   UNL     1     -42.797  60.810 -50.198  1.00  0.00     0.077 A 
HETATM   29  C   UNL     1     -43.909  61.628 -49.950  1.00  0.00     0.092 A 
HETATM   30  C   UNL     1     -44.533  62.267 -51.031  1.00  0.00     0.069 A 
HETATM   31 CL   UNL     1     -45.926  63.275 -50.822  1.00  0.00    -0.081 Cl
HETATM   32  C   UNL     1     -44.048  62.112 -52.329  1.00  0.00     0.059 A 
BRANCH  27  33
HETATM   33  O   UNL     1     -41.212  59.892 -51.832  1.00  0.00    -0.354 OA
HETATM   34  C   UNL     1     -40.392  59.454 -50.751  1.00  0.00     0.210 C 
ENDBRANCH  27  33
BRANCH  29  35
HETATM   35  O   UNL     1     -44.455  61.844 -48.713  1.00  0.00    -0.354 OA
HETATM   36  C   UNL     1     -45.425  60.917 -48.241  1.00  0.00     0.210 C 
ENDBRANCH  29  35
ENDBRANCH  22  26
ENDBRANCH   1  20
TORSDOF 7
ENDMDL
MODEL 6
REMARK VINA RESULT:      -6.7      3.231      6.040
REMARK  7 active torsions:
REMARK  status: ('A' for Active; 'I' for Inactive)
REMARK    1  A    between atoms: C_2  and  N_3 
REMARK    2  A    between atoms: C_8  and  C_9 
REMARK    3  A    between atoms: C_9  and  N_10 
REMARK       I    between atoms: N_10  and  C_11 
REMARK       I    between atoms: C_11  and  N_12 
REMARK    4  A    between atoms: N_12  and  C_13 
REMARK    5  A    between atoms: C_14  and  O_15 
REMARK    6  A    between atoms: C_18  and  O_19 
REMARK    7  A    between atoms: C_26  and  N_27 
ROOT
HETATM    1  C   UNL     1     -43.878  58.582 -53.417  1.00  0.00     0.118 C 
HETATM    2  C   UNL     1     -45.317  58.069 -53.438  1.00  0.00     0.037 C 
ENDROOT
BRANCH   1   3
HETATM    3  C   UNL     1     -43.374  58.967 -54.801  1.00  0.00     0.006 C 
HETATM    4  C   UNL     1     -43.051  58.022 -55.866  1.00  0.00    -0.031 C 
HETATM    5  C   UNL     1     -42.477  58.649 -56.956  1.00  0.00     0.017 C 
HETATM    6  C   UNL     1     -43.307  56.536 -55.897  1.00  0.00     0.068 C 
HETATM    7  C   UNL     1     -42.015  57.974 -58.202  1.00  0.00     0.281 C 
HETATM    8  S   UNL     1     -42.322  60.316 -56.749  1.00  0.00    -0.074 SA
HETATM    9  N   UNL     1     -42.687  56.616 -58.366  1.00  0.00    -0.067 N 
HETATM   10  H   UNL     1     -42.134  56.102 -59.063  1.00  0.00     0.280 HD
HETATM   11  C   UNL     1     -42.570  55.833 -57.055  1.00  0.00     0.240 C 
HETATM   12  C   UNL     1     -43.132  60.266 -55.249  1.00  0.00     0.089 C 
BRANCH   9  13
HETATM   13  C   UNL     1     -44.109  56.681 -58.883  1.00  0.00     0.231 C 
HETATM   14  C   UNL     1     -44.486  55.407 -59.617  1.00  0.00     0.034 C 
ENDBRANCH   9  13
BRANCH  12  15
HETATM   15  N   UNL     1     -43.489  61.508 -54.678  1.00  0.00    -0.327 N 
HETATM   16  C   UNL     1     -42.967  62.089 -53.529  1.00  0.00     0.097 A 
HETATM   17  C   UNL     1     -43.539  63.325 -53.328  1.00  0.00     0.019 A 
HETATM   18  C   UNL     1     -44.426  63.549 -54.395  1.00  0.00     0.019 A 
HETATM   19  C   UNL     1     -44.365  62.440 -55.211  1.00  0.00     0.097 A 
ENDBRANCH  12  15
ENDBRANCH   1   3
BRANCH   1  20
HETATM   20  N   UNL     1     -42.978  57.583 -52.851  1.00  0.00    -0.334 N 
HETATM   21  C   UNL     1     -42.242  57.886 -51.729  1.00  0.00     0.321 C 
HETATM   22  N   UNL     1     -41.654  56.818 -51.111  1.00  0.00    -0.306 N 
HETATM   23  O   UNL     1     -42.191  59.005 -51.233  1.00  0.00    -0.247 OA
HETATM   24  H   UNL     1     -41.489  56.959 -50.117  1.00  0.00     0.171 HD
HETATM   25  H   UNL     1     -43.342  56.642 -52.804  1.00  0.00     0.165 HD
BRANCH  22  26
HETATM   26  C   UNL     1     -41.282  55.558 -51.619  1.00  0.00     0.071 A 
HETATM   27  C   UNL     1     -41.235  54.463 -50.739  1.00  0.00     0.097 A 
HETATM   28  C   UNL     1     -40.855  53.200 -51.214  1.00  0.00     0.077 A 
HETATM   29  C   UNL     1     -40.527  53.017 -52.566  1.00  0.00     0.092 A 
HETATM   30  C   UNL     1     -40.550  54.126 -53.424  1.00  0.00     0.069 A 
HETATM   31 CL   UNL     1     -40.134  53.999 -55.100  1.00  0.00    -0.081 Cl
HETATM   32  C   UNL     1     -40.912  55.387 -52.951  1.00  0.00     0.059 A 
BRANCH  27  33
HETATM   33  O   UNL     1     -41.580  54.730 -49.437  1.00  0.00    -0.354 OA
HETATM   34  C   UNL     1     -40.669  54.281 -48.437  1.00  0.00     0.210 C 
ENDBRANCH  27  33
BRANCH  29  35
HETATM   35  O   UNL     1     -40.162  51.821 -53.124  1.00  0.00    -0.354 OA
HETATM   36  C   UNL     1     -39.473  50.885 -52.303  1.00  0.00     0.210 C 
ENDBRANCH  29  35
ENDBRANCH  22  26
ENDBRANCH   1  20
TORSDOF 7
ENDMDL
MODEL 7
REMARK VINA RESULT:      -6.6      3.907      7.113
REMARK  7 active torsions:
REMARK  status: ('A' for Active; 'I' for Inactive)
REMARK    1  A    between atoms: C_2  and  N_3 
REMARK    2  A    between atoms: C_8  and  C_9 
REMARK    3  A    between atoms: C_9  and  N_10 
REMARK       I    between atoms: N_10  and  C_11 
REMARK       I    between atoms: C_11  and  N_12 
REMARK    4  A    between atoms: N_12  and  C_13 
REMARK    5  A    between atoms: C_14  and  O_15 
REMARK    6  A    between atoms: C_18  and  O_19 
REMARK    7  A    between atoms: C_26  and  N_27 
ROOT
HETATM    1  C   UNL     1     -41.734  58.867 -53.347  1.00  0.00     0.118 C 
HETATM    2  C   UNL     1     -40.223  58.790 -53.142  1.00  0.00     0.037 C 
ENDROOT
BRANCH   1   3
HETATM    3  C   UNL     1     -42.494  57.872 -52.479  1.00  0.00     0.006 C 
HETATM    4  C   UNL     1     -42.339  56.422 -52.540  1.00  0.00    -0.031 C 
HETATM    5  C   UNL     1     -43.262  55.771 -51.743  1.00  0.00     0.017 C 
HETATM    6  C   UNL     1     -41.310  55.630 -53.305  1.00  0.00     0.068 C 
HETATM    7  C   UNL     1     -43.389  54.293 -51.590  1.00  0.00     0.281 C 
HETATM    8  S   UNL     1     -44.292  56.831 -50.929  1.00  0.00    -0.074 SA
HETATM    9  N   UNL     1     -42.097  53.593 -51.996  1.00  0.00    -0.067 N 
HETATM   10  H   UNL     1     -42.337  52.603 -52.134  1.00  0.00     0.280 HD
HETATM   11  C   UNL     1     -41.640  54.124 -53.358  1.00  0.00     0.240 C 
HETATM   12  C   UNL     1     -43.453  58.194 -51.518  1.00  0.00     0.089 C 
BRANCH   9  13
HETATM   13  C   UNL     1     -41.004  53.645 -50.950  1.00  0.00     0.231 C 
HETATM   14  C   UNL     1     -39.835  52.754 -51.330  1.00  0.00     0.034 C 
ENDBRANCH   9  13
BRANCH  12  15
HETATM   15  N   UNL     1     -43.789  59.442 -50.949  1.00  0.00    -0.327 N 
HETATM   16  C   UNL     1     -42.919  60.414 -50.472  1.00  0.00     0.097 A 
HETATM   17  C   UNL     1     -43.632  61.510 -50.040  1.00  0.00     0.019 A 
HETATM   18  C   UNL     1     -44.990  61.240 -50.279  1.00  0.00     0.019 A 
HETATM   19  C   UNL     1     -45.060  59.987 -50.849  1.00  0.00     0.097 A 
ENDBRANCH  12  15
ENDBRANCH   1   3
BRANCH   1  20
HETATM   20  N   UNL     1     -42.083  58.633 -54.744  1.00  0.00    -0.334 N 
HETATM   21  C   UNL     1     -42.191  59.698 -55.607  1.00  0.00     0.321 C 
HETATM   22  N   UNL     1     -42.238  59.372 -56.934  1.00  0.00    -0.306 N 
HETATM   23  O   UNL     1     -42.140  60.869 -55.250  1.00  0.00    -0.247 OA
HETATM   24  H   UNL     1     -41.900  60.108 -57.549  1.00  0.00     0.171 HD
HETATM   25  H   UNL     1     -41.619  57.852 -55.186  1.00  0.00     0.165 HD
BRANCH  22  26
HETATM   26  C   UNL     1     -42.637  58.180 -57.570  1.00  0.00     0.071 A 
HETATM   27  C   UNL     1     -42.976  58.223 -58.933  1.00  0.00     0.097 A 
HETATM   28  C   UNL     1     -43.389  57.055 -59.587  1.00  0.00     0.077 A 
HETATM   29  C   UNL     1     -43.462  55.837 -58.894  1.00  0.00     0.092 A 
HETATM   30  C   UNL     1     -43.149  55.818 -57.527  1.00  0.00     0.069 A 
HETATM   31 CL   UNL     1     -43.236  54.367 -56.585  1.00  0.00    -0.081 Cl
HETATM   32  C   UNL     1     -42.753  56.982 -56.869  1.00  0.00     0.059 A 
BRANCH  27  33
HETATM   33  O   UNL     1     -42.869  59.452 -59.534  1.00  0.00    -0.354 OA
HETATM   34  C   UNL     1     -41.985  59.537 -60.649  1.00  0.00     0.210 C 
ENDBRANCH  27  33
BRANCH  29  35
HETATM   35  O   UNL     1     -43.837  54.645 -59.452  1.00  0.00    -0.354 OA
HETATM   36  C   UNL     1     -44.916  54.652 -60.378  1.00  0.00     0.210 C 
ENDBRANCH  29  35
ENDBRANCH  22  26
ENDBRANCH   1  20
TORSDOF 7
ENDMDL
MODEL 8
REMARK VINA RESULT:      -6.6      3.613      7.452
REMARK  7 active torsions:
REMARK  status: ('A' for Active; 'I' for Inactive)
REMARK    1  A    between atoms: C_2  and  N_3 
REMARK    2  A    between atoms: C_8  and  C_9 
REMARK    3  A    between atoms: C_9  and  N_10 
REMARK       I    between atoms: N_10  and  C_11 
REMARK       I    between atoms: C_11  and  N_12 
REMARK    4  A    between atoms: N_12  and  C_13 
REMARK    5  A    between atoms: C_14  and  O_15 
REMARK    6  A    between atoms: C_18  and  O_19 
REMARK    7  A    between atoms: C_26  and  N_27 
ROOT
HETATM    1  C   UNL     1     -41.660  57.665 -53.271  1.00  0.00     0.118 C 
HETATM    2  C   UNL     1     -40.347  58.428 -53.105  1.00  0.00     0.037 C 
ENDROOT
BRANCH   1   3
HETATM    3  C   UNL     1     -42.042  57.471 -54.733  1.00  0.00     0.006 C 
HETATM    4  C   UNL     1     -42.438  58.542 -55.642  1.00  0.00    -0.031 C 
HETATM    5  C   UNL     1     -42.871  58.052 -56.860  1.00  0.00     0.017 C 
HETATM    6  C   UNL     1     -42.381  60.030 -55.404  1.00  0.00     0.068 C 
HETATM    7  C   UNL     1     -43.360  58.874 -58.003  1.00  0.00     0.281 C 
HETATM    8  S   UNL     1     -42.812  56.368 -56.948  1.00  0.00    -0.074 SA
HETATM    9  N   UNL     1     -42.868  60.312 -57.887  1.00  0.00    -0.067 N 
HETATM   10  H   UNL     1     -43.452  60.868 -58.525  1.00  0.00     0.280 HD
HETATM   11  C   UNL     1     -43.150  60.831 -56.475  1.00  0.00     0.240 C 
HETATM   12  C   UNL     1     -42.087  56.252 -55.410  1.00  0.00     0.089 C 
BRANCH   9  13
HETATM   13  C   UNL     1     -41.428  60.515 -58.309  1.00  0.00     0.231 C 
HETATM   14  C   UNL     1     -41.051  61.985 -58.290  1.00  0.00     0.034 C 
ENDBRANCH   9  13
BRANCH  12  15
HETATM   15  N   UNL     1     -41.595  54.982 -55.033  1.00  0.00    -0.327 N 
HETATM   16  C   UNL     1     -40.281  54.535 -55.091  1.00  0.00     0.097 A 
HETATM   17  C   UNL     1     -40.198  53.256 -54.588  1.00  0.00     0.019 A 
HETATM   18  C   UNL     1     -41.490  52.893 -54.170  1.00  0.00     0.019 A 
HETATM   19  C   UNL     1     -42.316  53.963 -54.432  1.00  0.00     0.097 A 
ENDBRANCH  12  15
ENDBRANCH   1   3
BRANCH   1  20
HETATM   20  N   UNL     1     -42.751  58.352 -52.588  1.00  0.00    -0.334 N 
HETATM   21  C   UNL     1     -43.620  57.634 -51.800  1.00  0.00     0.321 C 
HETATM   22  N   UNL     1     -44.423  58.383 -50.985  1.00  0.00    -0.306 N 
HETATM   23  O   UNL     1     -43.621  56.411 -51.731  1.00  0.00    -0.247 OA
HETATM   24  H   UNL     1     -44.730  57.892 -50.149  1.00  0.00     0.171 HD
HETATM   25  H   UNL     1     -42.511  59.233 -52.157  1.00  0.00     0.165 HD
BRANCH  22  26
HETATM   26  C   UNL     1     -44.850  59.720 -51.100  1.00  0.00     0.071 A 
HETATM   27  C   UNL     1     -44.052  60.734 -50.544  1.00  0.00     0.097 A 
HETATM   28  C   UNL     1     -44.460  62.072 -50.632  1.00  0.00     0.077 A 
HETATM   29  C   UNL     1     -45.659  62.410 -51.277  1.00  0.00     0.092 A 
HETATM   30  C   UNL     1     -46.459  61.383 -51.800  1.00  0.00     0.069 A 
HETATM   31 CL   UNL     1     -47.967  61.705 -52.589  1.00  0.00    -0.081 Cl
HETATM   32  C   UNL     1     -46.064  60.049 -51.700  1.00  0.00     0.059 A 
BRANCH  27  33
HETATM   33  O   UNL     1     -42.893  60.315 -49.939  1.00  0.00    -0.354 OA
HETATM   34  C   UNL     1     -41.676  60.804 -50.496  1.00  0.00     0.210 C 
ENDBRANCH  27  33
BRANCH  29  35
HETATM   35  O   UNL     1     -46.129  63.687 -51.427  1.00  0.00    -0.354 OA
HETATM   36  C   UNL     1     -46.697  64.326 -50.290  1.00  0.00     0.210 C 
ENDBRANCH  29  35
ENDBRANCH  22  26
ENDBRANCH   1  20
TORSDOF 7
ENDMDL
MODEL 9
REMARK VINA RESULT:      -6.6      3.792      6.368
REMARK  7 active torsions:
REMARK  status: ('A' for Active; 'I' for Inactive)
REMARK    1  A    between atoms: C_2  and  N_3 
REMARK    2  A    between atoms: C_8  and  C_9 
REMARK    3  A    between atoms: C_9  and  N_10 
REMARK       I    between atoms: N_10  and  C_11 
REMARK       I    between atoms: C_11  and  N_12 
REMARK    4  A    between atoms: N_12  and  C_13 
REMARK    5  A    between atoms: C_14  and  O_15 
REMARK    6  A    between atoms: C_18  and  O_19 
REMARK    7  A    between atoms: C_26  and  N_27 
ROOT
HETATM    1  C   UNL     1     -42.515  55.251 -53.297  1.00  0.00     0.118 C 
HETATM    2  C   UNL     1     -43.782  54.481 -52.931  1.00  0.00     0.037 C 
ENDROOT
BRANCH   1   3
HETATM    3  C   UNL     1     -42.263  56.435 -52.372  1.00  0.00     0.006 C 
HETATM    4  C   UNL     1     -42.773  57.786 -52.585  1.00  0.00    -0.031 C 
HETATM    5  C   UNL     1     -42.261  58.682 -51.666  1.00  0.00     0.017 C 
HETATM    6  C   UNL     1     -43.770  58.249 -53.617  1.00  0.00     0.068 C 
HETATM    7  C   UNL     1     -42.564  60.141 -51.614  1.00  0.00     0.281 C 
HETATM    8  S   UNL     1     -41.205  57.963 -50.565  1.00  0.00    -0.074 SA
HETATM    9  N   UNL     1     -43.865  60.452 -52.344  1.00  0.00    -0.067 N 
HETATM   10  H   UNL     1     -43.868  61.466 -52.510  1.00  0.00     0.280 HD
HETATM   11  C   UNL     1     -43.843  59.786 -53.723  1.00  0.00     0.240 C 
HETATM   12  C   UNL     1     -41.499  56.410 -51.204  1.00  0.00     0.089 C 
BRANCH   9  13
HETATM   13  C   UNL     1     -45.116  60.125 -51.556  1.00  0.00     0.231 C 
HETATM   14  C   UNL     1     -46.363  60.603 -52.280  1.00  0.00     0.034 C 
ENDBRANCH   9  13
BRANCH  12  15
HETATM   15  N   UNL     1     -40.988  55.314 -50.474  1.00  0.00    -0.327 N 
HETATM   16  C   UNL     1     -41.080  55.094 -49.106  1.00  0.00     0.097 A 
HETATM   17  C   UNL     1     -40.498  53.888 -48.784  1.00  0.00     0.019 A 
HETATM   18  C   UNL     1     -40.052  53.312 -49.986  1.00  0.00     0.019 A 
HETATM   19  C   UNL     1     -40.376  54.186 -51.000  1.00  0.00     0.097 A 
ENDBRANCH  12  15
ENDBRANCH   1   3
BRANCH   1  20
HETATM   20  N   UNL     1     -42.579  55.735 -54.671  1.00  0.00    -0.334 N 
HETATM   21  C   UNL     1     -41.736  55.205 -55.620  1.00  0.00     0.321 C 
HETATM   22  N   UNL     1     -42.053  55.505 -56.916  1.00  0.00    -0.306 N 
HETATM   23  O   UNL     1     -40.826  54.428 -55.360  1.00  0.00    -0.247 OA
HETATM   24  H   UNL     1     -41.727  54.815 -57.588  1.00  0.00     0.171 HD
HETATM   25  H   UNL     1     -43.507  55.871 -55.045  1.00  0.00     0.165 HD
BRANCH  22  26
HETATM   26  C   UNL     1     -42.784  56.582 -57.453  1.00  0.00     0.071 A 
HETATM   27  C   UNL     1     -43.769  56.314 -58.419  1.00  0.00     0.097 A 
HETATM   28  C   UNL     1     -44.502  57.368 -58.981  1.00  0.00     0.077 A 
HETATM   29  C   UNL     1     -44.267  58.692 -58.581  1.00  0.00     0.092 A 
HETATM   30  C   UNL     1     -43.261  58.944 -57.637  1.00  0.00     0.069 A 
HETATM   31 CL   UNL     1     -42.884  60.549 -57.104  1.00  0.00    -0.081 Cl
HETATM   32  C   UNL     1     -42.518  57.900 -57.088  1.00  0.00     0.059 A 
BRANCH  27  33
HETATM   33  O   UNL     1     -43.938  54.992 -58.746  1.00  0.00    -0.354 OA
HETATM   34  C   UNL     1     -44.639  54.724 -59.958  1.00  0.00     0.210 C 
ENDBRANCH  27  33
BRANCH  29  35
HETATM   35  O   UNL     1     -44.944  59.782 -59.059  1.00  0.00    -0.354 OA
HETATM   36  C   UNL     1     -44.619  60.249 -60.362  1.00  0.00     0.210 C 
ENDBRANCH  29  35
ENDBRANCH  22  26
ENDBRANCH   1  20
TORSDOF 7
ENDMDL
MODEL 10
REMARK VINA RESULT:      -6.5      3.851      6.281
REMARK  7 active torsions:
REMARK  status: ('A' for Active; 'I' for Inactive)
REMARK    1  A    between atoms: C_2  and  N_3 
REMARK    2  A    between atoms: C_8  and  C_9 
REMARK    3  A    between atoms: C_9  and  N_10 
REMARK       I    between atoms: N_10  and  C_11 
REMARK       I    between atoms: C_11  and  N_12 
REMARK    4  A    between atoms: N_12  and  C_13 
REMARK    5  A    between atoms: C_14  and  O_15 
REMARK    6  A    between atoms: C_18  and  O_19 
REMARK    7  A    between atoms: C_26  and  N_27 
ROOT
HETATM    1  C   UNL     1     -44.724  58.812 -55.444  1.00  0.00     0.118 C 
HETATM    2  C   UNL     1     -45.853  57.812 -55.688  1.00  0.00     0.037 C 
ENDROOT
BRANCH   1   3
HETATM    3  C   UNL     1     -43.668  58.779 -56.541  1.00  0.00     0.006 C 
HETATM    4  C   UNL     1     -43.412  59.861 -57.488  1.00  0.00    -0.031 C 
HETATM    5  C   UNL     1     -42.501  59.491 -58.461  1.00  0.00     0.017 C 
HETATM    6  C   UNL     1     -43.980  61.258 -57.476  1.00  0.00     0.068 C 
HETATM    7  C   UNL     1     -42.034  60.352 -59.585  1.00  0.00     0.281 C 
HETATM    8  S   UNL     1     -41.945  57.910 -58.272  1.00  0.00    -0.074 SA
HETATM    9  N   UNL     1     -42.268  61.826 -59.274  1.00  0.00    -0.067 N 
HETATM   10  H   UNL     1     -42.192  62.325 -60.169  1.00  0.00     0.280 HD
HETATM   11  C   UNL     1     -43.709  62.018 -58.790  1.00  0.00     0.240 C 
HETATM   12  C   UNL     1     -42.807  57.715 -56.814  1.00  0.00     0.089 C 
BRANCH   9  13
HETATM   13  C   UNL     1     -41.249  62.435 -58.334  1.00  0.00     0.231 C 
HETATM   14  C   UNL     1     -39.916  62.645 -59.030  1.00  0.00     0.034 C 
ENDBRANCH   9  13
BRANCH  12  15
HETATM   15  N   UNL     1     -42.524  56.556 -56.058  1.00  0.00    -0.327 N 
HETATM   16  C   UNL     1     -42.926  55.254 -56.328  1.00  0.00     0.097 A 
HETATM   17  C   UNL     1     -42.408  54.398 -55.382  1.00  0.00     0.019 A 
HETATM   18  C   UNL     1     -41.630  55.174 -54.506  1.00  0.00     0.019 A 
HETATM   19  C   UNL     1     -41.700  56.476 -54.947  1.00  0.00     0.097 A 
ENDBRANCH  12  15
ENDBRANCH   1   3
BRANCH   1  20
HETATM   20  N   UNL     1     -44.076  58.562 -54.162  1.00  0.00    -0.334 N 
HETATM   21  C   UNL     1     -43.759  59.620 -53.341  1.00  0.00     0.321 C 
HETATM   22  N   UNL     1     -43.423  59.284 -52.059  1.00  0.00    -0.306 N 
HETATM   23  O   UNL     1     -43.870  60.793 -53.674  1.00  0.00    -0.247 OA
HETATM   24  H   UNL     1     -43.603  60.020 -51.381  1.00  0.00     0.171 HD
HETATM   25  H   UNL     1     -44.442  57.785 -53.630  1.00  0.00     0.165 HD
BRANCH  22  26
HETATM   26  C   UNL     1     -42.912  58.082 -51.533  1.00  0.00     0.071 A 
HETATM   27  C   UNL     1     -41.527  57.973 -51.321  1.00  0.00     0.097 A 
HETATM   28  C   UNL     1     -40.989  56.784 -50.811  1.00  0.00     0.077 A 
HETATM   29  C   UNL     1     -41.823  55.699 -50.503  1.00  0.00     0.092 A 
HETATM   30  C   UNL     1     -43.199  55.814 -50.748  1.00  0.00     0.069 A 
HETATM   31 CL   UNL     1     -44.301  54.517 -50.422  1.00  0.00    -0.081 Cl
HETATM   32  C   UNL     1     -43.736  56.990 -51.270  1.00  0.00     0.059 A 
BRANCH  27  33
HETATM   33  O   UNL     1     -40.787  59.084 -51.643  1.00  0.00    -0.354 OA
HETATM   34  C   UNL     1     -39.804  59.487 -50.692  1.00  0.00     0.210 C 
ENDBRANCH  27  33
BRANCH  29  35
HETATM   35  O   UNL     1     -41.392  54.507 -49.985  1.00  0.00    -0.354 OA
HETATM   36  C   UNL     1     -40.854  54.507 -48.669  1.00  0.00     0.210 C 
ENDBRANCH  29  35
ENDBRANCH  22  26
ENDBRANCH   1  20
TORSDOF 7
ENDMDL
