MODEL 1
REMARK VINA RESULT:      -7.9      0.000      0.000
REMARK  5 active torsions:
REMARK  status: ('A' for Active; 'I' for Inactive)
REMARK    1  A    between atoms: C_9  and  C_10 
REMARK       I    between atoms: C_10  and  N_11 
REMARK    2  A    between atoms: N_11  and  C_12 
REMARK    3  A    between atoms: C_12  and  C_13 
REMARK    4  A    between atoms: C_12  and  C_16 
REMARK    5  A    between atoms: C_19  and  O_20 
ROOT
HETATM    1  C   UNL     1     -43.001  56.920 -54.877  1.00  0.00     0.273 C 
HETATM    2  N   UNL     1     -41.859  56.455 -54.270  1.00  0.00    -0.346 N 
HETATM    3  O   UNL     1     -44.130  56.767 -54.423  1.00  0.00    -0.266 OA
HETATM    4  H   UNL     1     -40.995  56.713 -54.731  1.00  0.00     0.163 HD
ENDROOT
BRANCH   2   5
HETATM    5  C   UNL     1     -41.834  55.801 -52.985  1.00  0.00     0.122 C 
BRANCH   5   6
HETATM    6  C   UNL     1     -41.180  56.660 -51.923  1.00  0.00     0.013 A 
HETATM    7  C   UNL     1     -41.845  57.873 -51.310  1.00  0.00     0.007 A 
HETATM    8  C   UNL     1     -41.616  56.642 -50.475  1.00  0.00     0.007 A 
ENDBRANCH   5   6
BRANCH   5   9
HETATM    9  C   UNL     1     -41.130  54.453 -53.045  1.00  0.00    -0.035 A 
HETATM   10  C   UNL     1     -40.901  53.849 -54.291  1.00  0.00     0.012 A 
HETATM   11  C   UNL     1     -40.279  52.600 -54.377  1.00  0.00     0.037 A 
HETATM   12  C   UNL     1     -39.866  51.929 -53.227  1.00  0.00     0.068 A 
HETATM   13  C   UNL     1     -40.102  52.509 -51.982  1.00  0.00     0.037 A 
HETATM   14  C   UNL     1     -40.733  53.756 -51.892  1.00  0.00     0.012 A 
BRANCH  12  15
HETATM   15  O   UNL     1     -39.263  50.722 -53.450  1.00  0.00    -0.356 OA
HETATM   16  C   UNL     1     -39.854  49.887 -54.438  1.00  0.00     0.210 C 
ENDBRANCH  12  15
ENDBRANCH   5   9
ENDBRANCH   2   5
BRANCH   1  17
HETATM   17  C   UNL     1     -42.719  57.641 -56.129  1.00  0.00     0.157 A 
HETATM   18  C   UNL     1     -42.961  57.196 -57.462  1.00  0.00     0.029 A 
HETATM   19  C   UNL     1     -43.493  56.039 -58.067  1.00  0.00     0.023 A 
HETATM   20  C   UNL     1     -42.532  58.237 -58.275  1.00  0.00     0.063 A 
HETATM   21  C   UNL     1     -43.579  55.966 -59.467  1.00  0.00    -0.061 A 
HETATM   22  C   UNL     1     -44.138  54.742 -60.132  1.00  0.00     0.048 C 
HETATM   23  C   UNL     1     -43.132  57.039 -60.249  1.00  0.00     0.009 A 
HETATM   24  C   UNL     1     -42.599  58.197 -59.670  1.00  0.00     0.032 A 
HETATM   25  N   UNL     1     -42.077  59.201 -57.419  1.00  0.00    -0.277 N 
HETATM   26  H   UNL     1     -41.688  60.103 -57.664  1.00  0.00     0.189 HD
HETATM   27  N   UNL     1     -42.177  58.882 -56.116  1.00  0.00    -0.168 NA
ENDBRANCH   1  17
TORSDOF 5
ENDMDL
MODEL 2
REMARK VINA RESULT:      -7.8      1.631      2.455
REMARK  5 active torsions:
REMARK  status: ('A' for Active; 'I' for Inactive)
REMARK    1  A    between atoms: C_9  and  C_10 
REMARK       I    between atoms: C_10  and  N_11 
REMARK    2  A    between atoms: N_11  and  C_12 
REMARK    3  A    between atoms: C_12  and  C_13 
REMARK    4  A    between atoms: C_12  and  C_16 
REMARK    5  A    between atoms: C_19  and  O_20 
ROOT
HETATM    1  C   UNL     1     -43.015  56.584 -55.904  1.00  0.00     0.273 C 
HETATM    2  N   UNL     1     -41.839  56.139 -55.349  1.00  0.00    -0.346 N 
HETATM    3  O   UNL     1     -44.019  56.860 -55.257  1.00  0.00    -0.266 OA
HETATM    4  H   UNL     1     -41.077  56.014 -56.005  1.00  0.00     0.163 HD
ENDROOT
BRANCH   2   5
HETATM    5  C   UNL     1     -41.609  56.018 -53.930  1.00  0.00     0.122 C 
BRANCH   5   6
HETATM    6  C   UNL     1     -40.695  57.106 -53.408  1.00  0.00     0.013 A 
HETATM    7  C   UNL     1     -41.032  58.580 -53.477  1.00  0.00     0.007 A 
HETATM    8  C   UNL     1     -40.989  57.883 -52.144  1.00  0.00     0.007 A 
ENDBRANCH   5   6
BRANCH   5   9
HETATM    9  C   UNL     1     -41.034  54.658 -53.561  1.00  0.00    -0.035 A 
HETATM   10  C   UNL     1     -40.679  53.760 -54.579  1.00  0.00     0.012 A 
HETATM   11  C   UNL     1     -40.173  52.494 -54.270  1.00  0.00     0.037 A 
HETATM   12  C   UNL     1     -40.002  52.098 -52.944  1.00  0.00     0.068 A 
HETATM   13  C   UNL     1     -40.366  52.973 -51.923  1.00  0.00     0.037 A 
HETATM   14  C   UNL     1     -40.883  54.239 -52.229  1.00  0.00     0.012 A 
BRANCH  12  15
HETATM   15  O   UNL     1     -39.489  50.841 -52.781  1.00  0.00    -0.356 OA
HETATM   16  C   UNL     1     -39.681  49.929 -53.855  1.00  0.00     0.210 C 
ENDBRANCH  12  15
ENDBRANCH   5   9
ENDBRANCH   2   5
BRANCH   1  17
HETATM   17  C   UNL     1     -42.932  56.712 -57.369  1.00  0.00     0.157 A 
HETATM   18  C   UNL     1     -42.556  57.865 -58.120  1.00  0.00     0.029 A 
HETATM   19  C   UNL     1     -42.165  59.187 -57.826  1.00  0.00     0.023 A 
HETATM   20  C   UNL     1     -42.628  57.470 -59.450  1.00  0.00     0.063 A 
HETATM   21  C   UNL     1     -41.855  60.068 -58.876  1.00  0.00    -0.061 A 
HETATM   22  C   UNL     1     -41.439  61.481 -58.587  1.00  0.00     0.048 C 
HETATM   23  C   UNL     1     -41.943  59.627 -60.203  1.00  0.00     0.009 A 
HETATM   24  C   UNL     1     -42.331  58.320 -60.518  1.00  0.00     0.032 A 
HETATM   25  N   UNL     1     -43.026  56.162 -59.417  1.00  0.00    -0.277 N 
HETATM   26  H   UNL     1     -43.183  55.551 -60.209  1.00  0.00     0.189 HD
HETATM   27  N   UNL     1     -43.215  55.667 -58.181  1.00  0.00    -0.168 NA
ENDBRANCH   1  17
TORSDOF 5
ENDMDL
MODEL 3
REMARK VINA RESULT:      -7.8      2.345      6.908
REMARK  5 active torsions:
REMARK  status: ('A' for Active; 'I' for Inactive)
REMARK    1  A    between atoms: C_9  and  C_10 
REMARK       I    between atoms: C_10  and  N_11 
REMARK    2  A    between atoms: N_11  and  C_12 
REMARK    3  A    between atoms: C_12  and  C_13 
REMARK    4  A    between atoms: C_12  and  C_16 
REMARK    5  A    between atoms: C_19  and  O_20 
ROOT
HETATM    1  C   UNL     1     -41.039  55.372 -53.215  1.00  0.00     0.273 C 
HETATM    2  N   UNL     1     -42.336  55.812 -53.101  1.00  0.00    -0.346 N 
HETATM    3  O   UNL     1     -40.233  55.813 -54.027  1.00  0.00    -0.266 OA
HETATM    4  H   UNL     1     -42.863  55.397 -52.342  1.00  0.00     0.163 HD
ENDROOT
BRANCH   2   5
HETATM    5  C   UNL     1     -42.890  56.903 -53.865  1.00  0.00     0.122 C 
BRANCH   5   6
HETATM    6  C   UNL     1     -44.310  57.223 -53.449  1.00  0.00     0.013 A 
HETATM    7  C   UNL     1     -44.653  58.144 -52.299  1.00  0.00     0.007 A 
HETATM    8  C   UNL     1     -44.956  58.565 -53.712  1.00  0.00     0.007 A 
ENDBRANCH   5   6
BRANCH   5   9
HETATM    9  C   UNL     1     -42.854  56.626 -55.361  1.00  0.00    -0.035 A 
HETATM   10  C   UNL     1     -42.524  57.664 -56.247  1.00  0.00     0.012 A 
HETATM   11  C   UNL     1     -42.507  57.448 -57.628  1.00  0.00     0.037 A 
HETATM   12  C   UNL     1     -42.812  56.193 -58.157  1.00  0.00     0.068 A 
HETATM   13  C   UNL     1     -43.158  55.159 -57.290  1.00  0.00     0.037 A 
HETATM   14  C   UNL     1     -43.185  55.375 -55.906  1.00  0.00     0.012 A 
BRANCH  12  15
HETATM   15  O   UNL     1     -42.749  56.114 -59.520  1.00  0.00    -0.356 OA
HETATM   16  C   UNL     1     -42.195  57.234 -60.199  1.00  0.00     0.210 C 
ENDBRANCH  12  15
ENDBRANCH   5   9
ENDBRANCH   2   5
BRANCH   1  17
HETATM   17  C   UNL     1     -40.715  54.319 -52.237  1.00  0.00     0.157 A 
HETATM   18  C   UNL     1     -40.358  52.965 -52.506  1.00  0.00     0.029 A 
HETATM   19  C   UNL     1     -40.192  52.166 -53.655  1.00  0.00     0.023 A 
HETATM   20  C   UNL     1     -40.144  52.393 -51.258  1.00  0.00     0.063 A 
HETATM   21  C   UNL     1     -39.813  50.820 -53.515  1.00  0.00    -0.061 A 
HETATM   22  C   UNL     1     -39.634  49.950 -54.725  1.00  0.00     0.048 C 
HETATM   23  C   UNL     1     -39.610  50.284 -52.237  1.00  0.00     0.009 A 
HETATM   24  C   UNL     1     -39.771  51.058 -51.082  1.00  0.00     0.032 A 
HETATM   25  N   UNL     1     -40.376  53.394 -50.357  1.00  0.00    -0.277 N 
HETATM   26  H   UNL     1     -40.314  53.335 -49.348  1.00  0.00     0.189 HD
HETATM   27  N   UNL     1     -40.718  54.573 -50.907  1.00  0.00    -0.168 NA
ENDBRANCH   1  17
TORSDOF 5
ENDMDL
MODEL 4
REMARK VINA RESULT:      -7.6      2.374      6.798
REMARK  5 active torsions:
REMARK  status: ('A' for Active; 'I' for Inactive)
REMARK    1  A    between atoms: C_9  and  C_10 
REMARK       I    between atoms: C_10  and  N_11 
REMARK    2  A    between atoms: N_11  and  C_12 
REMARK    3  A    between atoms: C_12  and  C_13 
REMARK    4  A    between atoms: C_12  and  C_16 
REMARK    5  A    between atoms: C_19  and  O_20 
ROOT
HETATM    1  C   UNL     1     -41.313  58.462 -53.575  1.00  0.00     0.273 C 
HETATM    2  N   UNL     1     -42.158  58.213 -54.629  1.00  0.00    -0.346 N 
HETATM    3  O   UNL     1     -40.505  59.384 -53.544  1.00  0.00    -0.266 OA
HETATM    4  H   UNL     1     -42.812  57.454 -54.483  1.00  0.00     0.163 HD
ENDROOT
BRANCH   2   5
HETATM    5  C   UNL     1     -42.261  59.052 -55.798  1.00  0.00     0.122 C 
BRANCH   5   6
HETATM    6  C   UNL     1     -43.360  60.083 -55.661  1.00  0.00     0.013 A 
HETATM    7  C   UNL     1     -43.140  61.461 -55.076  1.00  0.00     0.007 A 
HETATM    8  C   UNL     1     -43.444  61.310 -56.542  1.00  0.00     0.007 A 
ENDBRANCH   5   6
BRANCH   5   9
HETATM    9  C   UNL     1     -42.489  58.238 -57.064  1.00  0.00    -0.035 A 
HETATM   10  C   UNL     1     -43.258  57.065 -57.002  1.00  0.00     0.012 A 
HETATM   11  C   UNL     1     -43.464  56.284 -58.142  1.00  0.00     0.037 A 
HETATM   12  C   UNL     1     -42.916  56.655 -59.370  1.00  0.00     0.068 A 
HETATM   13  C   UNL     1     -42.137  57.808 -59.443  1.00  0.00     0.037 A 
HETATM   14  C   UNL     1     -41.921  58.588 -58.300  1.00  0.00     0.012 A 
BRANCH  12  15
HETATM   15  O   UNL     1     -43.202  55.810 -60.406  1.00  0.00    -0.356 OA
HETATM   16  C   UNL     1     -44.378  55.021 -60.280  1.00  0.00     0.210 C 
ENDBRANCH  12  15
ENDBRANCH   5   9
ENDBRANCH   2   5
BRANCH   1  17
HETATM   17  C   UNL     1     -41.496  57.505 -52.470  1.00  0.00     0.157 A 
HETATM   18  C   UNL     1     -41.301  56.092 -52.503  1.00  0.00     0.029 A 
HETATM   19  C   UNL     1     -40.913  55.142 -53.469  1.00  0.00     0.023 A 
HETATM   20  C   UNL     1     -41.594  55.656 -51.218  1.00  0.00     0.063 A 
HETATM   21  C   UNL     1     -40.826  53.786 -53.112  1.00  0.00    -0.061 A 
HETATM   22  C   UNL     1     -40.418  52.756 -54.125  1.00  0.00     0.048 C 
HETATM   23  C   UNL     1     -41.133  53.390 -51.804  1.00  0.00     0.009 A 
HETATM   24  C   UNL     1     -41.523  54.316 -50.829  1.00  0.00     0.032 A 
HETATM   25  N   UNL     1     -41.932  56.783 -50.522  1.00  0.00    -0.277 N 
HETATM   26  H   UNL     1     -42.206  56.842 -49.548  1.00  0.00     0.189 HD
HETATM   27  N   UNL     1     -41.881  57.919 -51.240  1.00  0.00    -0.168 NA
ENDBRANCH   1  17
TORSDOF 5
ENDMDL
MODEL 5
REMARK VINA RESULT:      -7.4      2.615      5.527
REMARK  5 active torsions:
REMARK  status: ('A' for Active; 'I' for Inactive)
REMARK    1  A    between atoms: C_9  and  C_10 
REMARK       I    between atoms: C_10  and  N_11 
REMARK    2  A    between atoms: N_11  and  C_12 
REMARK    3  A    between atoms: C_12  and  C_13 
REMARK    4  A    between atoms: C_12  and  C_16 
REMARK    5  A    between atoms: C_19  and  O_20 
ROOT
HETATM    1  C   UNL     1     -41.491  57.929 -53.663  1.00  0.00     0.273 C 
HETATM    2  N   UNL     1     -41.319  56.605 -53.340  1.00  0.00    -0.346 N 
HETATM    3  O   UNL     1     -41.596  58.349 -54.810  1.00  0.00    -0.266 OA
HETATM    4  H   UNL     1     -41.312  56.404 -52.348  1.00  0.00     0.163 HD
ENDROOT
BRANCH   2   5
HETATM    5  C   UNL     1     -41.322  55.531 -54.303  1.00  0.00     0.122 C 
BRANCH   5   6
HETATM    6  C   UNL     1     -42.694  55.311 -54.904  1.00  0.00     0.013 A 
HETATM    7  C   UNL     1     -42.957  55.297 -56.394  1.00  0.00     0.007 A 
HETATM    8  C   UNL     1     -43.085  54.025 -55.599  1.00  0.00     0.007 A 
ENDBRANCH   5   6
BRANCH   5   9
HETATM    9  C   UNL     1     -40.821  54.225 -53.701  1.00  0.00    -0.035 A 
HETATM   10  C   UNL     1     -40.875  54.041 -52.311  1.00  0.00     0.012 A 
HETATM   11  C   UNL     1     -40.399  52.864 -51.727  1.00  0.00     0.037 A 
HETATM   12  C   UNL     1     -39.867  51.842 -52.513  1.00  0.00     0.068 A 
HETATM   13  C   UNL     1     -39.792  52.018 -53.893  1.00  0.00     0.037 A 
HETATM   14  C   UNL     1     -40.259  53.201 -54.481  1.00  0.00     0.012 A 
BRANCH  12  15
HETATM   15  O   UNL     1     -39.447  50.741 -51.819  1.00  0.00    -0.356 OA
HETATM   16  C   UNL     1     -39.614  49.482 -52.459  1.00  0.00     0.210 C 
ENDBRANCH  12  15
ENDBRANCH   5   9
ENDBRANCH   2   5
BRANCH   1  17
HETATM   17  C   UNL     1     -41.555  58.794 -52.473  1.00  0.00     0.157 A 
HETATM   18  C   UNL     1     -42.705  59.436 -51.925  1.00  0.00     0.029 A 
HETATM   19  C   UNL     1     -44.076  59.513 -52.246  1.00  0.00     0.023 A 
HETATM   20  C   UNL     1     -42.241  60.121 -50.810  1.00  0.00     0.063 A 
HETATM   21  C   UNL     1     -44.936  60.270 -51.435  1.00  0.00    -0.061 A 
HETATM   22  C   UNL     1     -46.398  60.369 -51.759  1.00  0.00     0.048 C 
HETATM   23  C   UNL     1     -44.425  60.947 -50.320  1.00  0.00     0.009 A 
HETATM   24  C   UNL     1     -43.067  60.887 -49.984  1.00  0.00     0.032 A 
HETATM   25  N   UNL     1     -40.900  59.860 -50.758  1.00  0.00    -0.277 N 
HETATM   26  H   UNL     1     -40.237  60.199 -50.070  1.00  0.00     0.189 HD
HETATM   27  N   UNL     1     -40.448  59.060 -51.739  1.00  0.00    -0.168 NA
ENDBRANCH   1  17
TORSDOF 5
ENDMDL
MODEL 6
REMARK VINA RESULT:      -7.3      2.460      7.637
REMARK  5 active torsions:
REMARK  status: ('A' for Active; 'I' for Inactive)
REMARK    1  A    between atoms: C_9  and  C_10 
REMARK       I    between atoms: C_10  and  N_11 
REMARK    2  A    between atoms: N_11  and  C_12 
REMARK    3  A    between atoms: C_12  and  C_13 
REMARK    4  A    between atoms: C_12  and  C_16 
REMARK    5  A    between atoms: C_19  and  O_20 
ROOT
HETATM    1  C   UNL     1     -42.708  56.157 -56.342  1.00  0.00     0.273 C 
HETATM    2  N   UNL     1     -42.851  57.483 -56.671  1.00  0.00    -0.346 N 
HETATM    3  O   UNL     1     -42.762  55.238 -57.152  1.00  0.00    -0.266 OA
HETATM    4  H   UNL     1     -42.719  58.131 -55.903  1.00  0.00     0.163 HD
ENDROOT
BRANCH   2   5
HETATM    5  C   UNL     1     -43.002  57.970 -58.020  1.00  0.00     0.122 C 
BRANCH   5   6
HETATM    6  C   UNL     1     -42.924  59.481 -58.091  1.00  0.00     0.013 A 
HETATM    7  C   UNL     1     -41.745  60.226 -58.677  1.00  0.00     0.007 A 
HETATM    8  C   UNL     1     -43.072  60.247 -59.386  1.00  0.00     0.007 A 
ENDBRANCH   5   6
BRANCH   5   9
HETATM    9  C   UNL     1     -44.306  57.504 -58.652  1.00  0.00    -0.035 A 
HETATM   10  C   UNL     1     -44.268  56.708 -59.806  1.00  0.00     0.012 A 
HETATM   11  C   UNL     1     -45.449  56.285 -60.423  1.00  0.00     0.037 A 
HETATM   12  C   UNL     1     -46.692  56.640 -59.901  1.00  0.00     0.068 A 
HETATM   13  C   UNL     1     -46.746  57.444 -58.765  1.00  0.00     0.037 A 
HETATM   14  C   UNL     1     -45.564  57.877 -58.150  1.00  0.00     0.012 A 
BRANCH  12  15
HETATM   15  O   UNL     1     -47.767  56.153 -60.593  1.00  0.00    -0.356 OA
HETATM   16  C   UNL     1     -48.024  56.737 -61.864  1.00  0.00     0.210 C 
ENDBRANCH  12  15
ENDBRANCH   5   9
ENDBRANCH   2   5
BRANCH   1  17
HETATM   17  C   UNL     1     -42.462  55.958 -54.903  1.00  0.00     0.157 A 
HETATM   18  C   UNL     1     -41.816  54.851 -54.277  1.00  0.00     0.029 A 
HETATM   19  C   UNL     1     -41.229  53.643 -54.703  1.00  0.00     0.023 A 
HETATM   20  C   UNL     1     -41.828  55.146 -52.920  1.00  0.00     0.063 A 
HETATM   21  C   UNL     1     -40.668  52.772 -53.754  1.00  0.00    -0.061 A 
HETATM   22  C   UNL     1     -40.039  51.479 -54.185  1.00  0.00     0.048 C 
HETATM   23  C   UNL     1     -40.703  53.109 -52.394  1.00  0.00     0.009 A 
HETATM   24  C   UNL     1     -41.284  54.302 -51.949  1.00  0.00     0.032 A 
HETATM   25  N   UNL     1     -42.452  56.358 -52.819  1.00  0.00    -0.277 N 
HETATM   26  H   UNL     1     -42.638  56.881 -51.971  1.00  0.00     0.189 HD
HETATM   27  N   UNL     1     -42.845  56.884 -53.992  1.00  0.00    -0.168 NA
ENDBRANCH   1  17
TORSDOF 5
ENDMDL
MODEL 7
REMARK VINA RESULT:      -7.2      2.883      5.625
REMARK  5 active torsions:
REMARK  status: ('A' for Active; 'I' for Inactive)
REMARK    1  A    between atoms: C_9  and  C_10 
REMARK       I    between atoms: C_10  and  N_11 
REMARK    2  A    between atoms: N_11  and  C_12 
REMARK    3  A    between atoms: C_12  and  C_13 
REMARK    4  A    between atoms: C_12  and  C_16 
REMARK    5  A    between atoms: C_19  and  O_20 
ROOT
HETATM    1  C   UNL     1     -41.424  58.569 -53.187  1.00  0.00     0.273 C 
HETATM    2  N   UNL     1     -41.749  57.234 -53.195  1.00  0.00    -0.346 N 
HETATM    3  O   UNL     1     -40.861  59.144 -54.112  1.00  0.00    -0.266 OA
HETATM    4  H   UNL     1     -42.269  56.916 -52.385  1.00  0.00     0.163 HD
ENDROOT
BRANCH   2   5
HETATM    5  C   UNL     1     -41.545  56.358 -54.322  1.00  0.00     0.122 C 
BRANCH   5   6
HETATM    6  C   UNL     1     -42.800  56.200 -55.153  1.00  0.00     0.013 A 
HETATM    7  C   UNL     1     -43.423  57.330 -55.943  1.00  0.00     0.007 A 
HETATM    8  C   UNL     1     -42.781  56.176 -56.666  1.00  0.00     0.007 A 
ENDBRANCH   5   6
BRANCH   5   9
HETATM    9  C   UNL     1     -41.048  54.984 -53.893  1.00  0.00    -0.035 A 
HETATM   10  C   UNL     1     -40.616  54.072 -54.868  1.00  0.00     0.012 A 
HETATM   11  C   UNL     1     -40.179  52.794 -54.507  1.00  0.00     0.037 A 
HETATM   12  C   UNL     1     -40.156  52.399 -53.170  1.00  0.00     0.068 A 
HETATM   13  C   UNL     1     -40.599  53.289 -52.193  1.00  0.00     0.037 A 
HETATM   14  C   UNL     1     -41.047  54.567 -52.553  1.00  0.00     0.012 A 
BRANCH  12  15
HETATM   15  O   UNL     1     -39.698  51.130 -52.952  1.00  0.00    -0.356 OA
HETATM   16  C   UNL     1     -39.682  50.257 -54.075  1.00  0.00     0.210 C 
ENDBRANCH  12  15
ENDBRANCH   5   9
ENDBRANCH   2   5
BRANCH   1  17
HETATM   17  C   UNL     1     -41.844  59.242 -51.946  1.00  0.00     0.157 A 
HETATM   18  C   UNL     1     -43.083  59.903 -51.693  1.00  0.00     0.029 A 
HETATM   19  C   UNL     1     -44.263  60.164 -52.419  1.00  0.00     0.023 A 
HETATM   20  C   UNL     1     -42.989  60.359 -50.385  1.00  0.00     0.063 A 
HETATM   21  C   UNL     1     -45.312  60.869 -51.806  1.00  0.00    -0.061 A 
HETATM   22  C   UNL     1     -46.576  61.160 -52.560  1.00  0.00     0.048 C 
HETATM   23  C   UNL     1     -45.173  61.312 -50.484  1.00  0.00     0.009 A 
HETATM   24  C   UNL     1     -44.010  61.067 -49.746  1.00  0.00     0.032 A 
HETATM   25  N   UNL     1     -41.754  59.963 -49.952  1.00  0.00    -0.277 N 
HETATM   26  H   UNL     1     -41.345  60.125 -49.039  1.00  0.00     0.189 HD
HETATM   27  N   UNL     1     -41.035  59.282 -50.861  1.00  0.00    -0.168 NA
ENDBRANCH   1  17
TORSDOF 5
ENDMDL
MODEL 8
REMARK VINA RESULT:      -7.2      2.354      7.684
REMARK  5 active torsions:
REMARK  status: ('A' for Active; 'I' for Inactive)
REMARK    1  A    between atoms: C_9  and  C_10 
REMARK       I    between atoms: C_10  and  N_11 
REMARK    2  A    between atoms: N_11  and  C_12 
REMARK    3  A    between atoms: C_12  and  C_13 
REMARK    4  A    between atoms: C_12  and  C_16 
REMARK    5  A    between atoms: C_19  and  O_20 
ROOT
HETATM    1  C   UNL     1     -41.369  56.261 -54.131  1.00  0.00     0.273 C 
HETATM    2  N   UNL     1     -42.023  56.523 -55.310  1.00  0.00    -0.346 N 
HETATM    3  O   UNL     1     -41.228  57.078 -53.227  1.00  0.00    -0.266 OA
HETATM    4  H   UNL     1     -42.114  55.730 -55.934  1.00  0.00     0.163 HD
ENDROOT
BRANCH   2   5
HETATM    5  C   UNL     1     -42.698  57.764 -55.603  1.00  0.00     0.122 C 
BRANCH   5   6
HETATM    6  C   UNL     1     -44.182  57.685 -55.311  1.00  0.00     0.013 A 
HETATM    7  C   UNL     1     -44.805  58.184 -54.026  1.00  0.00     0.007 A 
HETATM    8  C   UNL     1     -45.082  58.901 -55.321  1.00  0.00     0.007 A 
ENDBRANCH   5   6
BRANCH   5   9
HETATM    9  C   UNL     1     -42.491  58.198 -57.047  1.00  0.00    -0.035 A 
HETATM   10  C   UNL     1     -42.644  57.259 -58.078  1.00  0.00     0.012 A 
HETATM   11  C   UNL     1     -42.435  57.622 -59.412  1.00  0.00     0.037 A 
HETATM   12  C   UNL     1     -42.078  58.928 -59.748  1.00  0.00     0.068 A 
HETATM   13  C   UNL     1     -41.906  59.866 -58.733  1.00  0.00     0.037 A 
HETATM   14  C   UNL     1     -42.105  59.503 -57.395  1.00  0.00     0.012 A 
BRANCH  12  15
HETATM   15  O   UNL     1     -41.915  59.152 -61.087  1.00  0.00    -0.356 OA
HETATM   16  C   UNL     1     -41.917  60.510 -61.511  1.00  0.00     0.210 C 
ENDBRANCH  12  15
ENDBRANCH   5   9
ENDBRANCH   2   5
BRANCH   1  17
HETATM   17  C   UNL     1     -40.867  54.878 -54.062  1.00  0.00     0.157 A 
HETATM   18  C   UNL     1     -40.633  54.096 -52.892  1.00  0.00     0.029 A 
HETATM   19  C   UNL     1     -40.756  54.287 -51.500  1.00  0.00     0.023 A 
HETATM   20  C   UNL     1     -40.175  52.872 -53.360  1.00  0.00     0.063 A 
HETATM   21  C   UNL     1     -40.421  53.240 -50.625  1.00  0.00    -0.061 A 
HETATM   22  C   UNL     1     -40.542  53.421 -49.140  1.00  0.00     0.048 C 
HETATM   23  C   UNL     1     -39.961  52.021 -51.142  1.00  0.00     0.009 A 
HETATM   24  C   UNL     1     -39.829  51.811 -52.519  1.00  0.00     0.032 A 
HETATM   25  N   UNL     1     -40.163  52.988 -54.722  1.00  0.00    -0.277 N 
HETATM   26  H   UNL     1     -39.883  52.283 -55.394  1.00  0.00     0.189 HD
HETATM   27  N   UNL     1     -40.578  54.180 -55.185  1.00  0.00    -0.168 NA
ENDBRANCH   1  17
TORSDOF 5
ENDMDL
MODEL 9
REMARK VINA RESULT:      -7.1      2.730      7.797
REMARK  5 active torsions:
REMARK  status: ('A' for Active; 'I' for Inactive)
REMARK    1  A    between atoms: C_9  and  C_10 
REMARK       I    between atoms: C_10  and  N_11 
REMARK    2  A    between atoms: N_11  and  C_12 
REMARK    3  A    between atoms: C_12  and  C_13 
REMARK    4  A    between atoms: C_12  and  C_16 
REMARK    5  A    between atoms: C_19  and  O_20 
ROOT
HETATM    1  C   UNL     1     -42.853  55.201 -53.946  1.00  0.00     0.273 C 
HETATM    2  N   UNL     1     -42.661  56.544 -54.163  1.00  0.00    -0.346 N 
HETATM    3  O   UNL     1     -43.688  54.522 -54.533  1.00  0.00    -0.266 OA
HETATM    4  H   UNL     1     -41.891  56.955 -53.649  1.00  0.00     0.163 HD
ENDROOT
BRANCH   2   5
HETATM    5  C   UNL     1     -43.360  57.309 -55.167  1.00  0.00     0.122 C 
BRANCH   5   6
HETATM    6  C   UNL     1     -42.587  57.380 -56.467  1.00  0.00     0.013 A 
HETATM    7  C   UNL     1     -42.841  56.456 -57.638  1.00  0.00     0.007 A 
HETATM    8  C   UNL     1     -43.188  57.917 -57.747  1.00  0.00     0.007 A 
ENDBRANCH   5   6
BRANCH   5   9
HETATM    9  C   UNL     1     -43.674  58.720 -54.691  1.00  0.00    -0.035 A 
HETATM   10  C   UNL     1     -45.008  59.087 -54.455  1.00  0.00     0.012 A 
HETATM   11  C   UNL     1     -45.331  60.383 -54.041  1.00  0.00     0.037 A 
HETATM   12  C   UNL     1     -44.333  61.338 -53.848  1.00  0.00     0.068 A 
HETATM   13  C   UNL     1     -43.006  60.993 -54.094  1.00  0.00     0.037 A 
HETATM   14  C   UNL     1     -42.681  59.698 -54.518  1.00  0.00     0.012 A 
BRANCH  12  15
HETATM   15  O   UNL     1     -44.782  62.562 -53.433  1.00  0.00    -0.356 OA
HETATM   16  C   UNL     1     -45.851  62.565 -52.496  1.00  0.00     0.210 C 
ENDBRANCH  12  15
ENDBRANCH   5   9
ENDBRANCH   2   5
BRANCH   1  17
HETATM   17  C   UNL     1     -41.928  54.657 -52.937  1.00  0.00     0.157 A 
HETATM   18  C   UNL     1     -41.166  53.453 -53.015  1.00  0.00     0.029 A 
HETATM   19  C   UNL     1     -41.001  52.414 -53.953  1.00  0.00     0.023 A 
HETATM   20  C   UNL     1     -40.454  53.397 -51.824  1.00  0.00     0.063 A 
HETATM   21  C   UNL     1     -40.124  51.355 -53.667  1.00  0.00    -0.061 A 
HETATM   22  C   UNL     1     -39.934  50.237 -54.650  1.00  0.00     0.048 C 
HETATM   23  C   UNL     1     -39.427  51.338 -52.452  1.00  0.00     0.009 A 
HETATM   24  C   UNL     1     -39.577  52.358 -51.506  1.00  0.00     0.032 A 
HETATM   25  N   UNL     1     -40.816  54.520 -51.134  1.00  0.00    -0.277 N 
HETATM   26  H   UNL     1     -40.490  54.807 -50.219  1.00  0.00     0.189 HD
HETATM   27  N   UNL     1     -41.698  55.309 -51.773  1.00  0.00    -0.168 NA
ENDBRANCH   1  17
TORSDOF 5
ENDMDL
MODEL 10
REMARK VINA RESULT:      -7.1      2.993      5.331
REMARK  5 active torsions:
REMARK  status: ('A' for Active; 'I' for Inactive)
REMARK    1  A    between atoms: C_9  and  C_10 
REMARK       I    between atoms: C_10  and  N_11 
REMARK    2  A    between atoms: N_11  and  C_12 
REMARK    3  A    between atoms: C_12  and  C_13 
REMARK    4  A    between atoms: C_12  and  C_16 
REMARK    5  A    between atoms: C_19  and  O_20 
ROOT
HETATM    1  C   UNL     1     -43.078  56.153 -57.846  1.00  0.00     0.273 C 
HETATM    2  N   UNL     1     -43.007  55.272 -56.794  1.00  0.00    -0.346 N 
HETATM    3  O   UNL     1     -42.399  57.171 -57.938  1.00  0.00    -0.266 OA
HETATM    4  H   UNL     1     -43.583  54.445 -56.889  1.00  0.00     0.163 HD
ENDROOT
BRANCH   2   5
HETATM    5  C   UNL     1     -42.068  55.387 -55.705  1.00  0.00     0.122 C 
BRANCH   5   6
HETATM    6  C   UNL     1     -41.782  54.048 -55.059  1.00  0.00     0.013 A 
HETATM    7  C   UNL     1     -40.390  53.470 -54.925  1.00  0.00     0.007 A 
HETATM    8  C   UNL     1     -41.136  53.920 -53.697  1.00  0.00     0.007 A 
ENDBRANCH   5   6
BRANCH   5   9
HETATM    9  C   UNL     1     -42.547  56.367 -54.642  1.00  0.00    -0.035 A 
HETATM   10  C   UNL     1     -43.843  56.238 -54.119  1.00  0.00     0.012 A 
HETATM   11  C   UNL     1     -44.320  57.137 -53.161  1.00  0.00     0.037 A 
HETATM   12  C   UNL     1     -43.516  58.179 -52.698  1.00  0.00     0.068 A 
HETATM   13  C   UNL     1     -42.233  58.328 -53.221  1.00  0.00     0.037 A 
HETATM   14  C   UNL     1     -41.756  57.435 -54.188  1.00  0.00     0.012 A 
BRANCH  12  15
HETATM   15  O   UNL     1     -44.098  58.979 -51.754  1.00  0.00    -0.356 OA
HETATM   16  C   UNL     1     -45.287  58.488 -51.148  1.00  0.00     0.210 C 
ENDBRANCH  12  15
ENDBRANCH   5   9
ENDBRANCH   2   5
BRANCH   1  17
HETATM   17  C   UNL     1     -44.051  55.731 -58.868  1.00  0.00     0.157 A 
HETATM   18  C   UNL     1     -45.135  56.489 -59.401  1.00  0.00     0.029 A 
HETATM   19  C   UNL     1     -45.668  57.779 -59.203  1.00  0.00     0.023 A 
HETATM   20  C   UNL     1     -45.740  55.653 -60.331  1.00  0.00     0.063 A 
HETATM   21  C   UNL     1     -46.786  58.189 -59.948  1.00  0.00    -0.061 A 
HETATM   22  C   UNL     1     -47.372  59.557 -59.751  1.00  0.00     0.048 C 
HETATM   23  C   UNL     1     -47.366  57.312 -60.874  1.00  0.00     0.009 A 
HETATM   24  C   UNL     1     -46.855  56.026 -61.085  1.00  0.00     0.032 A 
HETATM   25  N   UNL     1     -45.014  54.495 -60.300  1.00  0.00    -0.277 N 
HETATM   26  H   UNL     1     -45.171  53.659 -60.851  1.00  0.00     0.189 HD
HETATM   27  N   UNL     1     -43.985  54.503 -59.435  1.00  0.00    -0.168 NA
ENDBRANCH   1  17
TORSDOF 5
ENDMDL
