MODEL 1
REMARK VINA RESULT:      -8.8      0.000      0.000
REMARK  3 active torsions:
REMARK  status: ('A' for Active; 'I' for Inactive)
REMARK    1  A    between atoms: C_2  and  C_3 
REMARK    2  A    between atoms: C_6  and  C_7 
REMARK       I    between atoms: C_7  and  N_8 
REMARK    3  A    between atoms: N_8  and  N_9 
ROOT
HETATM    1  C   UNL     1     -44.252  57.309 -57.496  1.00  0.00    -0.021 A 
HETATM    2  C   UNL     1     -44.018  57.876 -56.229  1.00  0.00     0.011 A 
HETATM    3  C   UNL     1     -43.062  57.343 -55.350  1.00  0.00     0.018 A 
HETATM    4  C   UNL     1     -42.311  56.223 -55.720  1.00  0.00     0.033 A 
HETATM    5  C   UNL     1     -42.524  55.664 -56.986  1.00  0.00     0.018 A 
HETATM    6  C   UNL     1     -43.470  56.203 -57.862  1.00  0.00     0.011 A 
ENDROOT
BRANCH   4   7
HETATM    7  C   UNL     1     -41.256  55.603 -54.858  1.00  0.00     0.266 C 
HETATM    8  N   UNL     1     -41.187  54.211 -54.831  1.00  0.00    -0.284 N 
HETATM    9  H   UNL     1     -41.757  53.645 -55.447  1.00  0.00     0.184 HD
HETATM   10  O   UNL     1     -40.504  56.341 -54.224  1.00  0.00    -0.266 OA
BRANCH   8  11
HETATM   11  N   UNL     1     -40.231  53.513 -54.052  1.00  0.00    -0.220 NA
HETATM   12  C   UNL     1     -40.509  53.533 -52.590  1.00  0.00     0.153 C 
HETATM   13  C   UNL     1     -40.173  52.161 -52.099  1.00  0.00    -0.036 A 
HETATM   14  C   UNL     1     -39.899  51.326 -53.180  1.00  0.00    -0.036 A 
HETATM   15  C   UNL     1     -40.158  51.680 -50.800  1.00  0.00     0.009 A 
HETATM   16  C   UNL     1     -40.023  52.096 -54.457  1.00  0.00     0.153 C 
HETATM   17  C   UNL     1     -39.607  49.986 -52.995  1.00  0.00     0.009 A 
HETATM   18  C   UNL     1     -39.587  49.488 -51.690  1.00  0.00     0.001 A 
HETATM   19  C   UNL     1     -39.860  50.330 -50.600  1.00  0.00     0.001 A 
ENDBRANCH   8  11
ENDBRANCH   4   7
BRANCH   1  20
HETATM   20  C   UNL     1     -45.253  57.924 -58.471  1.00  0.00     0.139 A 
HETATM   21  C   UNL     1     -45.638  59.342 -58.054  1.00  0.00     0.054 C 
HETATM   22  N   UNL     1     -46.437  57.098 -58.634  1.00  0.00    -0.321 N 
HETATM   23  C   UNL     1     -46.612  56.656 -59.920  1.00  0.00     0.324 A 
HETATM   24  H   UNL     1     -47.127  56.901 -57.925  1.00  0.00     0.165 HD
HETATM   25  O   UNL     1     -47.557  55.992 -60.302  1.00  0.00    -0.247 OA
HETATM   26  N   UNL     1     -45.592  57.108 -60.678  1.00  0.00    -0.277 N 
HETATM   27  C   UNL     1     -44.781  57.923 -59.951  1.00  0.00     0.258 A 
HETATM   28  H   UNL     1     -45.520  56.965 -61.670  1.00  0.00     0.173 HD
HETATM   29  O   UNL     1     -43.854  58.563 -60.428  1.00  0.00    -0.270 OA
ENDBRANCH   1  20
TORSDOF 3
ENDMDL
MODEL 2
REMARK VINA RESULT:      -8.3      4.934      6.625
REMARK  3 active torsions:
REMARK  status: ('A' for Active; 'I' for Inactive)
REMARK    1  A    between atoms: C_2  and  C_3 
REMARK    2  A    between atoms: C_6  and  C_7 
REMARK       I    between atoms: C_7  and  N_8 
REMARK    3  A    between atoms: N_8  and  N_9 
ROOT
HETATM    1  C   UNL     1     -44.262  59.383 -51.468  1.00  0.00    -0.021 A 
HETATM    2  C   UNL     1     -44.684  58.211 -52.125  1.00  0.00     0.011 A 
HETATM    3  C   UNL     1     -43.764  57.269 -52.612  1.00  0.00     0.018 A 
HETATM    4  C   UNL     1     -42.391  57.476 -52.451  1.00  0.00     0.033 A 
HETATM    5  C   UNL     1     -41.963  58.629 -51.781  1.00  0.00     0.018 A 
HETATM    6  C   UNL     1     -42.882  59.561 -51.290  1.00  0.00     0.011 A 
ENDROOT
BRANCH   4   7
HETATM    7  C   UNL     1     -41.341  56.517 -52.915  1.00  0.00     0.266 C 
HETATM    8  N   UNL     1     -41.284  55.274 -52.288  1.00  0.00    -0.284 N 
HETATM    9  H   UNL     1     -41.989  54.991 -51.618  1.00  0.00     0.184 HD
HETATM   10  O   UNL     1     -40.586  56.863 -53.823  1.00  0.00    -0.266 OA
BRANCH   8  11
HETATM   11  N   UNL     1     -40.332  54.286 -52.642  1.00  0.00    -0.220 NA
HETATM   12  C   UNL     1     -40.010  53.332 -51.545  1.00  0.00     0.153 C 
HETATM   13  C   UNL     1     -39.900  51.992 -52.199  1.00  0.00    -0.036 A 
HETATM   14  C   UNL     1     -40.299  52.082 -53.530  1.00  0.00    -0.036 A 
HETATM   15  C   UNL     1     -39.519  50.782 -51.644  1.00  0.00     0.009 A 
HETATM   16  C   UNL     1     -40.688  53.491 -53.848  1.00  0.00     0.153 C 
HETATM   17  C   UNL     1     -40.335  50.963 -54.344  1.00  0.00     0.009 A 
HETATM   18  C   UNL     1     -39.952  49.735 -53.798  1.00  0.00     0.001 A 
HETATM   19  C   UNL     1     -39.546  49.646 -52.456  1.00  0.00     0.001 A 
ENDBRANCH   8  11
ENDBRANCH   4   7
BRANCH   1  20
HETATM   20  C   UNL     1     -45.266  60.378 -50.891  1.00  0.00     0.139 A 
HETATM   21  C   UNL     1     -46.596  60.326 -51.642  1.00  0.00     0.054 C 
HETATM   22  N   UNL     1     -44.743  61.732 -50.867  1.00  0.00    -0.321 N 
HETATM   23  C   UNL     1     -44.653  62.253 -49.603  1.00  0.00     0.324 A 
HETATM   24  H   UNL     1     -44.522  62.299 -51.673  1.00  0.00     0.165 HD
HETATM   25  O   UNL     1     -44.290  63.384 -49.342  1.00  0.00    -0.247 OA
HETATM   26  N   UNL     1     -45.065  61.321 -48.719  1.00  0.00    -0.277 N 
HETATM   27  C   UNL     1     -45.519  60.214 -49.367  1.00  0.00     0.258 A 
HETATM   28  H   UNL     1     -45.146  61.478 -47.729  1.00  0.00     0.173 HD
HETATM   29  O   UNL     1     -46.062  59.272 -48.808  1.00  0.00    -0.270 OA
ENDBRANCH   1  20
TORSDOF 3
ENDMDL
MODEL 3
REMARK VINA RESULT:      -7.9      5.833      7.461
REMARK  3 active torsions:
REMARK  status: ('A' for Active; 'I' for Inactive)
REMARK    1  A    between atoms: C_2  and  C_3 
REMARK    2  A    between atoms: C_6  and  C_7 
REMARK       I    between atoms: C_7  and  N_8 
REMARK    3  A    between atoms: N_8  and  N_9 
ROOT
HETATM    1  C   UNL     1     -44.485  60.867 -51.179  1.00  0.00    -0.021 A 
HETATM    2  C   UNL     1     -45.624  60.044 -51.098  1.00  0.00     0.011 A 
HETATM    3  C   UNL     1     -45.521  58.644 -51.101  1.00  0.00     0.018 A 
HETATM    4  C   UNL     1     -44.269  58.029 -51.185  1.00  0.00     0.033 A 
HETATM    5  C   UNL     1     -43.128  58.839 -51.246  1.00  0.00     0.018 A 
HETATM    6  C   UNL     1     -43.233  60.233 -51.234  1.00  0.00     0.011 A 
ENDROOT
BRANCH   4   7
HETATM    7  C   UNL     1     -44.063  56.546 -51.171  1.00  0.00     0.266 C 
HETATM    8  N   UNL     1     -43.133  56.020 -52.065  1.00  0.00    -0.284 N 
HETATM    9  H   UNL     1     -42.544  56.622 -52.627  1.00  0.00     0.184 HD
HETATM   10  O   UNL     1     -44.713  55.868 -50.378  1.00  0.00    -0.266 OA
BRANCH   8  11
HETATM   11  N   UNL     1     -42.854  54.632 -52.143  1.00  0.00    -0.220 NA
HETATM   12  C   UNL     1     -42.446  54.170 -53.498  1.00  0.00     0.153 C 
HETATM   13  C   UNL     1     -41.349  53.180 -53.270  1.00  0.00    -0.036 A 
HETATM   14  C   UNL     1     -40.990  53.174 -51.925  1.00  0.00    -0.036 A 
HETATM   15  C   UNL     1     -40.692  52.382 -54.192  1.00  0.00     0.009 A 
HETATM   16  C   UNL     1     -41.834  54.152 -51.171  1.00  0.00     0.153 C 
HETATM   17  C   UNL     1     -39.959  52.375 -51.462  1.00  0.00     0.009 A 
HETATM   18  C   UNL     1     -39.288  51.563 -52.381  1.00  0.00     0.001 A 
HETATM   19  C   UNL     1     -39.653  51.567 -53.737  1.00  0.00     0.001 A 
ENDBRANCH   8  11
ENDBRANCH   4   7
BRANCH   1  20
HETATM   20  C   UNL     1     -44.595  62.388 -51.120  1.00  0.00     0.139 A 
HETATM   21  C   UNL     1     -45.406  62.934 -52.294  1.00  0.00     0.054 C 
HETATM   22  N   UNL     1     -43.294  63.030 -51.053  1.00  0.00    -0.321 N 
HETATM   23  C   UNL     1     -43.112  63.759 -49.907  1.00  0.00     0.324 A 
HETATM   24  H   UNL     1     -42.592  63.029 -51.778  1.00  0.00     0.165 HD
HETATM   25  O   UNL     1     -42.122  64.421 -49.656  1.00  0.00    -0.247 OA
HETATM   26  N   UNL     1     -44.215  63.646 -49.140  1.00  0.00    -0.277 N 
HETATM   27  C   UNL     1     -45.176  62.931 -49.786  1.00  0.00     0.258 A 
HETATM   28  H   UNL     1     -44.351  64.134 -48.271  1.00  0.00     0.173 HD
HETATM   29  O   UNL     1     -46.315  62.786 -49.365  1.00  0.00    -0.270 OA
ENDBRANCH   1  20
TORSDOF 3
ENDMDL
MODEL 4
REMARK VINA RESULT:      -7.8      2.715      9.601
REMARK  3 active torsions:
REMARK  status: ('A' for Active; 'I' for Inactive)
REMARK    1  A    between atoms: C_2  and  C_3 
REMARK    2  A    between atoms: C_6  and  C_7 
REMARK       I    between atoms: C_7  and  N_8 
REMARK    3  A    between atoms: N_8  and  N_9 
ROOT
HETATM    1  C   UNL     1     -42.702  55.384 -53.945  1.00  0.00    -0.021 A 
HETATM    2  C   UNL     1     -42.301  54.617 -55.055  1.00  0.00     0.011 A 
HETATM    3  C   UNL     1     -42.573  55.028 -56.370  1.00  0.00     0.018 A 
HETATM    4  C   UNL     1     -43.257  56.224 -56.607  1.00  0.00     0.033 A 
HETATM    5  C   UNL     1     -43.643  57.003 -55.509  1.00  0.00     0.018 A 
HETATM    6  C   UNL     1     -43.363  56.595 -54.202  1.00  0.00     0.011 A 
ENDROOT
BRANCH   4   7
HETATM    7  C   UNL     1     -43.569  56.751 -57.973  1.00  0.00     0.266 C 
HETATM    8  N   UNL     1     -44.872  56.591 -58.439  1.00  0.00    -0.284 N 
HETATM    9  H   UNL     1     -45.604  56.228 -57.841  1.00  0.00     0.184 HD
HETATM   10  O   UNL     1     -42.673  57.299 -58.612  1.00  0.00    -0.266 OA
BRANCH   8  11
HETATM   11  N   UNL     1     -45.284  57.048 -59.716  1.00  0.00    -0.220 NA
HETATM   12  C   UNL     1     -46.177  56.103 -60.441  1.00  0.00     0.153 C 
HETATM   13  C   UNL     1     -47.211  56.956 -61.103  1.00  0.00    -0.036 A 
HETATM   14  C   UNL     1     -47.081  58.275 -60.674  1.00  0.00    -0.036 A 
HETATM   15  C   UNL     1     -48.216  56.582 -61.979  1.00  0.00     0.009 A 
HETATM   16  C   UNL     1     -45.943  58.383 -59.710  1.00  0.00     0.153 C 
HETATM   17  C   UNL     1     -47.955  59.257 -61.105  1.00  0.00     0.009 A 
HETATM   18  C   UNL     1     -48.973  58.895 -61.991  1.00  0.00     0.001 A 
HETATM   19  C   UNL     1     -49.102  57.566 -62.425  1.00  0.00     0.001 A 
ENDBRANCH   8  11
ENDBRANCH   4   7
BRANCH   1  20
HETATM   20  C   UNL     1     -42.357  54.962 -52.519  1.00  0.00     0.139 A 
HETATM   21  C   UNL     1     -41.207  53.956 -52.498  1.00  0.00     0.054 C 
HETATM   22  N   UNL     1     -43.510  54.437 -51.808  1.00  0.00    -0.321 N 
HETATM   23  C   UNL     1     -43.839  55.172 -50.700  1.00  0.00     0.324 A 
HETATM   24  H   UNL     1     -44.006  53.586 -52.026  1.00  0.00     0.165 HD
HETATM   25  O   UNL     1     -44.736  54.896 -49.925  1.00  0.00    -0.247 OA
HETATM   26  N   UNL     1     -42.989  56.214 -50.600  1.00  0.00    -0.277 N 
HETATM   27  C   UNL     1     -42.034  56.146 -51.567  1.00  0.00     0.258 A 
HETATM   28  H   UNL     1     -42.988  56.871 -49.840  1.00  0.00     0.173 HD
HETATM   29  O   UNL     1     -41.070  56.897 -51.627  1.00  0.00    -0.270 OA
ENDBRANCH   1  20
TORSDOF 3
ENDMDL
MODEL 5
REMARK VINA RESULT:      -7.7      1.384      2.100
REMARK  3 active torsions:
REMARK  status: ('A' for Active; 'I' for Inactive)
REMARK    1  A    between atoms: C_2  and  C_3 
REMARK    2  A    between atoms: C_6  and  C_7 
REMARK       I    between atoms: C_7  and  N_8 
REMARK    3  A    between atoms: N_8  and  N_9 
ROOT
HETATM    1  C   UNL     1     -44.675  57.301 -58.466  1.00  0.00    -0.021 A 
HETATM    2  C   UNL     1     -44.630  58.045 -57.271  1.00  0.00     0.011 A 
HETATM    3  C   UNL     1     -43.729  57.731 -56.242  1.00  0.00     0.018 A 
HETATM    4  C   UNL     1     -42.844  56.658 -56.383  1.00  0.00     0.033 A 
HETATM    5  C   UNL     1     -42.867  55.924 -57.575  1.00  0.00     0.018 A 
HETATM    6  C   UNL     1     -43.760  56.245 -58.602  1.00  0.00     0.011 A 
ENDROOT
BRANCH   4   7
HETATM    7  C   UNL     1     -41.835  56.266 -55.349  1.00  0.00     0.266 C 
HETATM    8  N   UNL     1     -41.496  54.917 -55.264  1.00  0.00    -0.284 N 
HETATM    9  H   UNL     1     -41.838  54.245 -55.940  1.00  0.00     0.184 HD
HETATM   10  O   UNL     1     -41.353  57.142 -54.633  1.00  0.00    -0.266 OA
BRANCH   8  11
HETATM   11  N   UNL     1     -40.555  54.427 -54.324  1.00  0.00    -0.220 NA
HETATM   12  C   UNL     1     -41.010  54.510 -52.909  1.00  0.00     0.153 C 
HETATM   13  C   UNL     1     -40.548  53.243 -52.265  1.00  0.00    -0.036 A 
HETATM   14  C   UNL     1     -40.027  52.384 -53.230  1.00  0.00    -0.036 A 
HETATM   15  C   UNL     1     -40.625  52.864 -50.935  1.00  0.00     0.009 A 
HETATM   16  C   UNL     1     -40.100  53.033 -54.576  1.00  0.00     0.153 C 
HETATM   17  C   UNL     1     -39.574  51.120 -52.895  1.00  0.00     0.009 A 
HETATM   18  C   UNL     1     -39.645  50.725 -51.557  1.00  0.00     0.001 A 
HETATM   19  C   UNL     1     -40.167  51.592 -50.583  1.00  0.00     0.001 A 
ENDBRANCH   8  11
ENDBRANCH   4   7
BRANCH   1  20
HETATM   20  C   UNL     1     -45.617  57.679 -59.605  1.00  0.00     0.139 A 
HETATM   21  C   UNL     1     -46.361  56.458 -60.142  1.00  0.00     0.054 C 
HETATM   22  N   UNL     1     -44.928  58.373 -60.679  1.00  0.00    -0.321 N 
HETATM   23  C   UNL     1     -45.394  59.645 -60.886  1.00  0.00     0.324 A 
HETATM   24  H   UNL     1     -44.223  57.980 -61.285  1.00  0.00     0.165 HD
HETATM   25  O   UNL     1     -45.003  60.394 -61.761  1.00  0.00    -0.247 OA
HETATM   26  N   UNL     1     -46.370  59.901 -59.990  1.00  0.00    -0.277 N 
HETATM   27  C   UNL     1     -46.635  58.795 -59.243  1.00  0.00     0.258 A 
HETATM   28  H   UNL     1     -46.910  60.748 -59.971  1.00  0.00     0.173 HD
HETATM   29  O   UNL     1     -47.558  58.718 -58.444  1.00  0.00    -0.270 OA
ENDBRANCH   1  20
TORSDOF 3
ENDMDL
MODEL 6
REMARK VINA RESULT:      -7.6      3.774      4.836
REMARK  3 active torsions:
REMARK  status: ('A' for Active; 'I' for Inactive)
REMARK    1  A    between atoms: C_2  and  C_3 
REMARK    2  A    between atoms: C_6  and  C_7 
REMARK       I    between atoms: C_7  and  N_8 
REMARK    3  A    between atoms: N_8  and  N_9 
ROOT
HETATM    1  C   UNL     1     -41.819  60.190 -58.543  1.00  0.00    -0.021 A 
HETATM    2  C   UNL     1     -42.000  58.910 -59.101  1.00  0.00     0.011 A 
HETATM    3  C   UNL     1     -42.271  57.790 -58.299  1.00  0.00     0.018 A 
HETATM    4  C   UNL     1     -42.369  57.924 -56.911  1.00  0.00     0.033 A 
HETATM    5  C   UNL     1     -42.210  59.197 -56.349  1.00  0.00     0.018 A 
HETATM    6  C   UNL     1     -41.949  60.311 -57.151  1.00  0.00     0.011 A 
ENDROOT
BRANCH   4   7
HETATM    7  C   UNL     1     -42.678  56.792 -55.982  1.00  0.00     0.266 C 
HETATM    8  N   UNL     1     -41.648  55.898 -55.696  1.00  0.00    -0.284 N 
HETATM    9  H   UNL     1     -40.703  56.064 -56.018  1.00  0.00     0.184 HD
HETATM   10  O   UNL     1     -43.813  56.705 -55.516  1.00  0.00    -0.266 OA
BRANCH   8  11
HETATM   11  N   UNL     1     -41.823  54.788 -54.832  1.00  0.00    -0.220 NA
HETATM   12  C   UNL     1     -40.994  53.604 -55.189  1.00  0.00     0.153 C 
HETATM   13  C   UNL     1     -40.513  53.044 -53.889  1.00  0.00    -0.036 A 
HETATM   14  C   UNL     1     -40.855  53.905 -52.849  1.00  0.00    -0.036 A 
HETATM   15  C   UNL     1     -39.791  51.886 -53.653  1.00  0.00     0.009 A 
HETATM   16  C   UNL     1     -41.595  55.086 -53.392  1.00  0.00     0.153 C 
HETATM   17  C   UNL     1     -40.480  53.637 -51.544  1.00  0.00     0.009 A 
HETATM   18  C   UNL     1     -39.752  52.472 -51.291  1.00  0.00     0.001 A 
HETATM   19  C   UNL     1     -39.410  51.602 -52.340  1.00  0.00     0.001 A 
ENDBRANCH   8  11
ENDBRANCH   4   7
BRANCH   1  20
HETATM   20  C   UNL     1     -41.579  61.415 -59.422  1.00  0.00     0.139 A 
HETATM   21  C   UNL     1     -41.563  61.044 -60.903  1.00  0.00     0.054 C 
HETATM   22  N   UNL     1     -40.363  62.121 -59.057  1.00  0.00    -0.321 N 
HETATM   23  C   UNL     1     -40.591  63.407 -58.643  1.00  0.00     0.324 A 
HETATM   24  H   UNL     1     -39.422  61.771 -59.149  1.00  0.00     0.165 HD
HETATM   25  O   UNL     1     -39.723  64.202 -58.335  1.00  0.00    -0.247 OA
HETATM   26  N   UNL     1     -41.919  63.644 -58.670  1.00  0.00    -0.277 N 
HETATM   27  C   UNL     1     -42.585  62.575 -59.183  1.00  0.00     0.258 A 
HETATM   28  H   UNL     1     -42.338  64.534 -58.463  1.00  0.00     0.173 HD
HETATM   29  O   UNL     1     -43.782  62.573 -59.433  1.00  0.00    -0.270 OA
ENDBRANCH   1  20
TORSDOF 3
ENDMDL
MODEL 7
REMARK VINA RESULT:      -7.6      5.662      6.871
REMARK  3 active torsions:
REMARK  status: ('A' for Active; 'I' for Inactive)
REMARK    1  A    between atoms: C_2  and  C_3 
REMARK    2  A    between atoms: C_6  and  C_7 
REMARK       I    between atoms: C_7  and  N_8 
REMARK    3  A    between atoms: N_8  and  N_9 
ROOT
HETATM    1  C   UNL     1     -44.074  61.185 -51.158  1.00  0.00    -0.021 A 
HETATM    2  C   UNL     1     -45.251  60.446 -50.932  1.00  0.00     0.011 A 
HETATM    3  C   UNL     1     -45.250  59.042 -50.936  1.00  0.00     0.018 A 
HETATM    4  C   UNL     1     -44.065  58.338 -51.168  1.00  0.00     0.033 A 
HETATM    5  C   UNL     1     -42.885  59.065 -51.375  1.00  0.00     0.018 A 
HETATM    6  C   UNL     1     -42.888  60.463 -51.361  1.00  0.00     0.011 A 
ENDROOT
BRANCH   4   7
HETATM    7  C   UNL     1     -43.965  56.845 -51.167  1.00  0.00     0.266 C 
HETATM    8  N   UNL     1     -42.967  56.269 -51.950  1.00  0.00    -0.284 N 
HETATM    9  H   UNL     1     -42.272  56.837 -52.418  1.00  0.00     0.184 HD
HETATM   10  O   UNL     1     -44.757  56.202 -50.481  1.00  0.00    -0.266 OA
BRANCH   8  11
HETATM   11  N   UNL     1     -42.778  54.866 -52.030  1.00  0.00    -0.220 NA
HETATM   12  C   UNL     1     -42.499  54.368 -53.405  1.00  0.00     0.153 C 
HETATM   13  C   UNL     1     -41.449  53.316 -53.245  1.00  0.00    -0.036 A 
HETATM   14  C   UNL     1     -40.992  53.301 -51.929  1.00  0.00    -0.036 A 
HETATM   15  C   UNL     1     -40.910  52.471 -54.201  1.00  0.00     0.009 A 
HETATM   16  C   UNL     1     -41.720  54.335 -51.129  1.00  0.00     0.153 C 
HETATM   17  C   UNL     1     -39.979  52.445 -51.533  1.00  0.00     0.009 A 
HETATM   18  C   UNL     1     -39.427  51.587 -52.486  1.00  0.00     0.001 A 
HETATM   19  C   UNL     1     -39.891  51.600 -53.812  1.00  0.00     0.001 A 
ENDBRANCH   8  11
ENDBRANCH   4   7
BRANCH   1  20
HETATM   20  C   UNL     1     -44.067  62.710 -51.098  1.00  0.00     0.139 A 
HETATM   21  C   UNL     1     -42.897  63.231 -50.267  1.00  0.00     0.054 C 
HETATM   22  N   UNL     1     -45.325  63.245 -50.604  1.00  0.00    -0.321 N 
HETATM   23  C   UNL     1     -45.967  64.041 -51.515  1.00  0.00     0.324 A 
HETATM   24  H   UNL     1     -45.695  63.129 -49.672  1.00  0.00     0.165 HD
HETATM   25  O   UNL     1     -47.008  64.635 -51.306  1.00  0.00    -0.247 OA
HETATM   26  N   UNL     1     -45.237  64.080 -52.649  1.00  0.00    -0.277 N 
HETATM   27  C   UNL     1     -44.069  63.401 -52.490  1.00  0.00     0.258 A 
HETATM   28  H   UNL     1     -45.468  64.642 -53.450  1.00  0.00     0.173 HD
HETATM   29  O   UNL     1     -43.172  63.383 -53.321  1.00  0.00    -0.270 OA
ENDBRANCH   1  20
TORSDOF 3
ENDMDL
MODEL 8
REMARK VINA RESULT:      -7.6     16.452     21.309
REMARK  3 active torsions:
REMARK  status: ('A' for Active; 'I' for Inactive)
REMARK    1  A    between atoms: C_2  and  C_3 
REMARK    2  A    between atoms: C_6  and  C_7 
REMARK       I    between atoms: C_7  and  N_8 
REMARK    3  A    between atoms: N_8  and  N_9 
ROOT
HETATM    1  C   UNL     1     -31.539  38.822 -47.022  1.00  0.00    -0.021 A 
HETATM    2  C   UNL     1     -32.637  37.944 -47.074  1.00  0.00     0.011 A 
HETATM    3  C   UNL     1     -33.574  37.997 -48.118  1.00  0.00     0.018 A 
HETATM    4  C   UNL     1     -33.433  38.936 -49.144  1.00  0.00     0.033 A 
HETATM    5  C   UNL     1     -32.332  39.801 -49.112  1.00  0.00     0.018 A 
HETATM    6  C   UNL     1     -31.396  39.739 -48.075  1.00  0.00     0.011 A 
ENDROOT
BRANCH   4   7
HETATM    7  C   UNL     1     -34.367  39.050 -50.308  1.00  0.00     0.266 C 
HETATM    8  N   UNL     1     -33.843  39.526 -51.507  1.00  0.00    -0.284 N 
HETATM    9  H   UNL     1     -32.850  39.690 -51.619  1.00  0.00     0.184 HD
HETATM   10  O   UNL     1     -35.541  38.717 -50.155  1.00  0.00    -0.266 OA
BRANCH   8  11
HETATM   11  N   UNL     1     -34.632  39.678 -52.675  1.00  0.00    -0.220 NA
HETATM   12  C   UNL     1     -35.181  41.049 -52.862  1.00  0.00     0.153 C 
HETATM   13  C   UNL     1     -35.066  41.330 -54.326  1.00  0.00    -0.036 A 
HETATM   14  C   UNL     1     -34.345  40.313 -54.948  1.00  0.00    -0.036 A 
HETATM   15  C   UNL     1     -35.525  42.424 -55.041  1.00  0.00     0.009 A 
HETATM   16  C   UNL     1     -33.947  39.285 -53.937  1.00  0.00     0.153 C 
HETATM   17  C   UNL     1     -34.058  40.363 -56.300  1.00  0.00     0.009 A 
HETATM   18  C   UNL     1     -34.515  41.460 -57.034  1.00  0.00     0.001 A 
HETATM   19  C   UNL     1     -35.244  42.484 -56.408  1.00  0.00     0.001 A 
ENDBRANCH   8  11
ENDBRANCH   4   7
BRANCH   1  20
HETATM   20  C   UNL     1     -30.492  38.725 -45.915  1.00  0.00     0.139 A 
HETATM   21  C   UNL     1     -30.430  37.316 -45.328  1.00  0.00     0.054 C 
HETATM   22  N   UNL     1     -30.710  39.707 -44.868  1.00  0.00    -0.321 N 
HETATM   23  C   UNL     1     -29.669  40.588 -44.730  1.00  0.00     0.324 A 
HETATM   24  H   UNL     1     -31.495  39.737 -44.234  1.00  0.00     0.165 HD
HETATM   25  O   UNL     1     -29.609  41.464 -43.888  1.00  0.00    -0.247 OA
HETATM   26  N   UNL     1     -28.727  40.295 -45.649  1.00  0.00    -0.277 N 
HETATM   27  C   UNL     1     -29.069  39.176 -46.345  1.00  0.00     0.258 A 
HETATM   28  H   UNL     1     -27.840  40.762 -45.717  1.00  0.00     0.173 HD
HETATM   29  O   UNL     1     -28.334  38.624 -47.151  1.00  0.00    -0.270 OA
ENDBRANCH   1  20
TORSDOF 3
ENDMDL
MODEL 9
REMARK VINA RESULT:      -7.4      3.861      4.773
REMARK  3 active torsions:
REMARK  status: ('A' for Active; 'I' for Inactive)
REMARK    1  A    between atoms: C_2  and  C_3 
REMARK    2  A    between atoms: C_6  and  C_7 
REMARK       I    between atoms: C_7  and  N_8 
REMARK    3  A    between atoms: N_8  and  N_9 
ROOT
HETATM    1  C   UNL     1     -44.463  59.340 -52.902  1.00  0.00    -0.021 A 
HETATM    2  C   UNL     1     -43.836  58.758 -51.784  1.00  0.00     0.011 A 
HETATM    3  C   UNL     1     -42.814  57.806 -51.925  1.00  0.00     0.018 A 
HETATM    4  C   UNL     1     -42.391  57.410 -53.197  1.00  0.00     0.033 A 
HETATM    5  C   UNL     1     -42.996  57.998 -54.316  1.00  0.00     0.018 A 
HETATM    6  C   UNL     1     -44.006  58.952 -54.171  1.00  0.00     0.011 A 
ENDROOT
BRANCH   4   7
HETATM    7  C   UNL     1     -41.296  56.421 -53.444  1.00  0.00     0.266 C 
HETATM    8  N   UNL     1     -41.263  55.286 -52.637  1.00  0.00    -0.284 N 
HETATM    9  H   UNL     1     -42.008  55.085 -51.982  1.00  0.00     0.184 HD
HETATM   10  O   UNL     1     -40.485  56.651 -54.340  1.00  0.00    -0.266 OA
BRANCH   8  11
HETATM   11  N   UNL     1     -40.272  54.282 -52.777  1.00  0.00    -0.220 NA
HETATM   12  C   UNL     1     -40.133  53.396 -51.588  1.00  0.00     0.153 C 
HETATM   13  C   UNL     1     -39.928  52.020 -52.135  1.00  0.00    -0.036 A 
HETATM   14  C   UNL     1     -40.112  52.028 -53.516  1.00  0.00    -0.036 A 
HETATM   15  C   UNL     1     -39.647  50.847 -51.456  1.00  0.00     0.009 A 
HETATM   16  C   UNL     1     -40.439  53.414 -53.975  1.00  0.00     0.153 C 
HETATM   17  C   UNL     1     -40.025  50.863 -54.257  1.00  0.00     0.009 A 
HETATM   18  C   UNL     1     -39.740  49.672 -53.585  1.00  0.00     0.001 A 
HETATM   19  C   UNL     1     -39.552  49.664 -52.193  1.00  0.00     0.001 A 
ENDBRANCH   8  11
ENDBRANCH   4   7
BRANCH   1  20
HETATM   20  C   UNL     1     -45.535  60.415 -52.744  1.00  0.00     0.139 A 
HETATM   21  C   UNL     1     -46.396  60.167 -51.507  1.00  0.00     0.054 C 
HETATM   22  N   UNL     1     -46.365  60.539 -53.930  1.00  0.00    -0.321 N 
HETATM   23  C   UNL     1     -46.288  61.777 -54.514  1.00  0.00     0.324 A 
HETATM   24  H   UNL     1     -47.002  59.842 -54.286  1.00  0.00     0.165 HD
HETATM   25  O   UNL     1     -46.931  62.126 -55.486  1.00  0.00    -0.247 OA
HETATM   26  N   UNL     1     -45.421  62.535 -53.813  1.00  0.00    -0.277 N 
HETATM   27  C   UNL     1     -44.980  61.866 -52.714  1.00  0.00     0.258 A 
HETATM   28  H   UNL     1     -45.232  63.503 -54.008  1.00  0.00     0.173 HD
HETATM   29  O   UNL     1     -44.282  62.369 -51.844  1.00  0.00    -0.270 OA
ENDBRANCH   1  20
TORSDOF 3
ENDMDL
MODEL 10
REMARK VINA RESULT:      -7.4      2.650      9.637
REMARK  3 active torsions:
REMARK  status: ('A' for Active; 'I' for Inactive)
REMARK    1  A    between atoms: C_2  and  C_3 
REMARK    2  A    between atoms: C_6  and  C_7 
REMARK       I    between atoms: C_7  and  N_8 
REMARK    3  A    between atoms: N_8  and  N_9 
ROOT
HETATM    1  C   UNL     1     -42.524  55.714 -53.481  1.00  0.00    -0.021 A 
HETATM    2  C   UNL     1     -42.582  54.701 -54.457  1.00  0.00     0.011 A 
HETATM    3  C   UNL     1     -42.841  54.993 -55.806  1.00  0.00     0.018 A 
HETATM    4  C   UNL     1     -43.049  56.314 -56.214  1.00  0.00     0.033 A 
HETATM    5  C   UNL     1     -42.973  57.330 -55.253  1.00  0.00     0.018 A 
HETATM    6  C   UNL     1     -42.707  57.037 -53.913  1.00  0.00     0.011 A 
ENDROOT
BRANCH   4   7
HETATM    7  C   UNL     1     -43.307  56.721 -57.631  1.00  0.00     0.266 C 
HETATM    8  N   UNL     1     -44.607  56.577 -58.112  1.00  0.00    -0.284 N 
HETATM    9  H   UNL     1     -45.367  56.308 -57.501  1.00  0.00     0.184 HD
HETATM   10  O   UNL     1     -42.373  57.162 -58.297  1.00  0.00    -0.266 OA
BRANCH   8  11
HETATM   11  N   UNL     1     -44.970  56.927 -59.437  1.00  0.00    -0.220 NA
HETATM   12  C   UNL     1     -45.967  56.011 -60.055  1.00  0.00     0.153 C 
HETATM   13  C   UNL     1     -46.901  56.893 -60.820  1.00  0.00    -0.036 A 
HETATM   14  C   UNL     1     -46.621  58.229 -60.546  1.00  0.00    -0.036 A 
HETATM   15  C   UNL     1     -47.946  56.537 -61.657  1.00  0.00     0.009 A 
HETATM   16  C   UNL     1     -45.473  58.319 -59.590  1.00  0.00     0.153 C 
HETATM   17  C   UNL     1     -47.380  59.248 -61.095  1.00  0.00     0.009 A 
HETATM   18  C   UNL     1     -48.436  58.903 -61.941  1.00  0.00     0.001 A 
HETATM   19  C   UNL     1     -48.717  57.555 -62.221  1.00  0.00     0.001 A 
ENDBRANCH   8  11
ENDBRANCH   4   7
BRANCH   1  20
HETATM   20  C   UNL     1     -42.187  55.398 -52.026  1.00  0.00     0.139 A 
HETATM   21  C   UNL     1     -42.620  56.530 -51.096  1.00  0.00     0.054 C 
HETATM   22  N   UNL     1     -40.779  55.094 -51.843  1.00  0.00    -0.321 N 
HETATM   23  C   UNL     1     -40.559  53.825 -51.374  1.00  0.00     0.324 A 
HETATM   24  H   UNL     1     -40.011  55.736 -51.965  1.00  0.00     0.165 HD
HETATM   25  O   UNL     1     -39.466  53.366 -51.100  1.00  0.00    -0.247 OA
HETATM   26  N   UNL     1     -41.746  53.200 -51.238  1.00  0.00    -0.277 N 
HETATM   27  C   UNL     1     -42.770  54.051 -51.517  1.00  0.00     0.258 A 
HETATM   28  H   UNL     1     -41.857  52.276 -50.857  1.00  0.00     0.173 HD
HETATM   29  O   UNL     1     -43.950  53.775 -51.352  1.00  0.00    -0.270 OA
ENDBRANCH   1  20
TORSDOF 3
ENDMDL
