MODEL 1
REMARK VINA RESULT:      -8.3      0.000      0.000
REMARK  4 active torsions:
REMARK  status: ('A' for Active; 'I' for Inactive)
REMARK    1  A    between atoms: C_4  and  C_5 
REMARK       I    between atoms: C_5  and  N_6 
REMARK    2  A    between atoms: N_6  and  C_7 
REMARK    3  A    between atoms: C_20  and  C_21 
REMARK    4  A    between atoms: C_24  and  O_25 
ROOT
HETATM    1  C   UNL     1     -43.454  56.560 -57.707  1.00  0.00     0.263 C 
HETATM    2  N   UNL     1     -44.687  57.189 -57.613  1.00  0.00    -0.323 N 
HETATM    3  O   UNL     1     -42.950  56.209 -58.771  1.00  0.00    -0.267 OA
HETATM    4  H   UNL     1     -45.043  57.291 -56.668  1.00  0.00     0.169 HD
ENDROOT
BRANCH   1   5
HETATM    5  C   UNL     1     -42.793  56.319 -56.428  1.00  0.00     0.074 A 
HETATM    6  S   UNL     1     -42.403  57.588 -55.352  1.00  0.00    -0.089 SA
HETATM    7  C   UNL     1     -41.583  56.538 -54.272  1.00  0.00    -0.009 A 
HETATM    8  C   UNL     1     -40.883  57.131 -53.089  1.00  0.00     0.057 C 
HETATM    9  C   UNL     1     -41.684  55.214 -54.673  1.00  0.00    -0.012 A 
HETATM   10  C   UNL     1     -42.360  55.105 -55.933  1.00  0.00     0.038 A 
BRANCH   9  11
HETATM   11  C   UNL     1     -41.094  54.107 -53.924  1.00  0.00    -0.025 A 
HETATM   12  C   UNL     1     -40.473  53.055 -54.605  1.00  0.00     0.015 A 
HETATM   13  C   UNL     1     -39.897  51.997 -53.894  1.00  0.00     0.037 A 
HETATM   14  C   UNL     1     -39.926  51.978 -52.499  1.00  0.00     0.068 A 
HETATM   15  C   UNL     1     -40.567  53.010 -51.815  1.00  0.00     0.037 A 
HETATM   16  C   UNL     1     -41.155  54.065 -52.525  1.00  0.00     0.015 A 
BRANCH  14  17
HETATM   17  O   UNL     1     -39.310  50.899 -51.928  1.00  0.00    -0.356 OA
HETATM   18  C   UNL     1     -39.593  49.626 -52.498  1.00  0.00     0.210 C 
ENDBRANCH  14  17
ENDBRANCH   9  11
ENDBRANCH   1   5
BRANCH   2  19
HETATM   19  C   UNL     1     -45.489  57.686 -58.658  1.00  0.00     0.035 A 
HETATM   20  C   UNL     1     -46.251  56.866 -59.495  1.00  0.00     0.039 A 
HETATM   21  C   UNL     1     -46.962  57.449 -60.534  1.00  0.00    -0.022 A 
HETATM   22  C   UNL     1     -46.947  58.832 -60.741  1.00  0.00    -0.025 A 
HETATM   23  C   UNL     1     -47.826  56.778 -61.547  1.00  0.00     0.274 C 
HETATM   24  C   UNL     1     -47.811  59.188 -61.904  1.00  0.00     0.273 C 
HETATM   25  C   UNL     1     -46.213  59.662 -59.913  1.00  0.00     0.012 A 
HETATM   26  N   UNL     1     -48.070  57.857 -62.596  1.00  0.00    -0.067 N 
HETATM   27  H   UNL     1     -47.313  57.748 -63.282  1.00  0.00     0.280 HD
HETATM   28  C   UNL     1     -49.370  57.757 -63.303  1.00  0.00     0.270 C 
HETATM   29  C   UNL     1     -45.473  59.077 -58.877  1.00  0.00     0.030 A 
ENDBRANCH   2  19
TORSDOF 4
ENDMDL
MODEL 2
REMARK VINA RESULT:      -8.2      5.864      8.964
REMARK  4 active torsions:
REMARK  status: ('A' for Active; 'I' for Inactive)
REMARK    1  A    between atoms: C_4  and  C_5 
REMARK       I    between atoms: C_5  and  N_6 
REMARK    2  A    between atoms: N_6  and  C_7 
REMARK    3  A    between atoms: C_20  and  C_21 
REMARK    4  A    between atoms: C_24  and  O_25 
ROOT
HETATM    1  C   UNL     1     -42.159  59.144 -51.042  1.00  0.00     0.263 C 
HETATM    2  N   UNL     1     -43.214  60.038 -51.149  1.00  0.00    -0.323 N 
HETATM    3  O   UNL     1     -41.180  59.330 -50.322  1.00  0.00    -0.267 OA
HETATM    4  H   UNL     1     -43.880  59.827 -51.885  1.00  0.00     0.169 HD
ENDROOT
BRANCH   1   5
HETATM    5  C   UNL     1     -42.283  57.952 -51.876  1.00  0.00     0.074 A 
HETATM    6  S   UNL     1     -43.613  57.705 -52.921  1.00  0.00    -0.089 SA
HETATM    7  C   UNL     1     -43.088  56.133 -53.360  1.00  0.00    -0.009 A 
HETATM    8  C   UNL     1     -43.966  55.308 -54.248  1.00  0.00     0.057 C 
HETATM    9  C   UNL     1     -41.859  55.828 -52.794  1.00  0.00    -0.012 A 
HETATM   10  C   UNL     1     -41.420  56.875 -51.917  1.00  0.00     0.038 A 
BRANCH   9  11
HETATM   11  C   UNL     1     -41.171  54.560 -53.020  1.00  0.00    -0.025 A 
HETATM   12  C   UNL     1     -40.857  53.733 -51.937  1.00  0.00     0.015 A 
HETATM   13  C   UNL     1     -40.207  52.513 -52.145  1.00  0.00     0.037 A 
HETATM   14  C   UNL     1     -39.868  52.098 -53.434  1.00  0.00     0.068 A 
HETATM   15  C   UNL     1     -40.154  52.930 -54.516  1.00  0.00     0.037 A 
HETATM   16  C   UNL     1     -40.794  54.159 -54.308  1.00  0.00     0.015 A 
BRANCH  14  17
HETATM   17  O   UNL     1     -39.255  50.878 -53.502  1.00  0.00    -0.356 OA
HETATM   18  C   UNL     1     -39.813  49.932 -54.405  1.00  0.00     0.210 C 
ENDBRANCH  14  17
ENDBRANCH   9  11
ENDBRANCH   1   5
BRANCH   2  19
HETATM   19  C   UNL     1     -43.457  61.189 -50.375  1.00  0.00     0.035 A 
HETATM   20  C   UNL     1     -44.279  61.193 -49.244  1.00  0.00     0.039 A 
HETATM   21  C   UNL     1     -44.500  62.393 -48.585  1.00  0.00    -0.022 A 
HETATM   22  C   UNL     1     -43.902  63.582 -49.014  1.00  0.00    -0.025 A 
HETATM   23  C   UNL     1     -45.339  62.636 -47.376  1.00  0.00     0.274 C 
HETATM   24  C   UNL     1     -44.290  64.707 -48.114  1.00  0.00     0.273 C 
HETATM   25  C   UNL     1     -43.072  63.595 -50.120  1.00  0.00     0.012 A 
HETATM   26  N   UNL     1     -45.458  64.154 -47.309  1.00  0.00    -0.067 N 
HETATM   27  H   UNL     1     -46.302  64.387 -47.847  1.00  0.00     0.280 HD
HETATM   28  C   UNL     1     -45.599  64.709 -45.941  1.00  0.00     0.270 C 
HETATM   29  C   UNL     1     -42.864  62.392 -50.806  1.00  0.00     0.030 A 
ENDBRANCH   2  19
TORSDOF 4
ENDMDL
MODEL 3
REMARK VINA RESULT:      -8.2      0.989      1.565
REMARK  4 active torsions:
REMARK  status: ('A' for Active; 'I' for Inactive)
REMARK    1  A    between atoms: C_4  and  C_5 
REMARK       I    between atoms: C_5  and  N_6 
REMARK    2  A    between atoms: N_6  and  C_7 
REMARK    3  A    between atoms: C_20  and  C_21 
REMARK    4  A    between atoms: C_24  and  O_25 
ROOT
HETATM    1  C   UNL     1     -43.667  56.845 -58.275  1.00  0.00     0.263 C 
HETATM    2  N   UNL     1     -45.053  56.886 -58.226  1.00  0.00    -0.323 N 
HETATM    3  O   UNL     1     -43.019  56.957 -59.313  1.00  0.00    -0.267 OA
HETATM    4  H   UNL     1     -45.456  56.638 -57.329  1.00  0.00     0.169 HD
ENDROOT
BRANCH   1   5
HETATM    5  C   UNL     1     -43.017  56.636 -56.984  1.00  0.00     0.074 A 
HETATM    6  S   UNL     1     -42.617  57.933 -55.945  1.00  0.00    -0.089 SA
HETATM    7  C   UNL     1     -41.819  56.905 -54.827  1.00  0.00    -0.009 A 
HETATM    8  C   UNL     1     -41.119  57.526 -53.659  1.00  0.00     0.057 C 
HETATM    9  C   UNL     1     -41.936  55.571 -55.187  1.00  0.00    -0.012 A 
HETATM   10  C   UNL     1     -42.605  55.432 -56.448  1.00  0.00     0.038 A 
BRANCH   9  11
HETATM   11  C   UNL     1     -41.367  54.481 -54.399  1.00  0.00    -0.025 A 
HETATM   12  C   UNL     1     -40.475  53.581 -54.993  1.00  0.00     0.015 A 
HETATM   13  C   UNL     1     -39.919  52.541 -54.243  1.00  0.00     0.037 A 
HETATM   14  C   UNL     1     -40.236  52.387 -52.893  1.00  0.00     0.068 A 
HETATM   15  C   UNL     1     -41.144  53.265 -52.302  1.00  0.00     0.037 A 
HETATM   16  C   UNL     1     -41.712  54.301 -53.054  1.00  0.00     0.015 A 
BRANCH  14  17
HETATM   17  O   UNL     1     -39.608  51.344 -52.271  1.00  0.00    -0.356 OA
HETATM   18  C   UNL     1     -39.647  50.087 -52.937  1.00  0.00     0.210 C 
ENDBRANCH  14  17
ENDBRANCH   9  11
ENDBRANCH   1   5
BRANCH   2  19
HETATM   19  C   UNL     1     -45.946  57.218 -59.262  1.00  0.00     0.035 A 
HETATM   20  C   UNL     1     -46.413  58.517 -59.486  1.00  0.00     0.039 A 
HETATM   21  C   UNL     1     -47.337  58.729 -60.498  1.00  0.00    -0.022 A 
HETATM   22  C   UNL     1     -47.789  57.680 -61.304  1.00  0.00    -0.025 A 
HETATM   23  C   UNL     1     -47.974  60.014 -60.907  1.00  0.00     0.274 C 
HETATM   24  C   UNL     1     -48.754  58.190 -62.320  1.00  0.00     0.273 C 
HETATM   25  C   UNL     1     -47.326  56.391 -61.110  1.00  0.00     0.012 A 
HETATM   26  N   UNL     1     -49.111  59.585 -61.827  1.00  0.00    -0.067 N 
HETATM   27  H   UNL     1     -49.928  59.464 -61.216  1.00  0.00     0.280 HD
HETATM   28  C   UNL     1     -49.454  60.561 -62.891  1.00  0.00     0.270 C 
HETATM   29  C   UNL     1     -46.411  56.165 -60.074  1.00  0.00     0.030 A 
ENDBRANCH   2  19
TORSDOF 4
ENDMDL
MODEL 4
REMARK VINA RESULT:      -8.0      3.915     10.251
REMARK  4 active torsions:
REMARK  status: ('A' for Active; 'I' for Inactive)
REMARK    1  A    between atoms: C_4  and  C_5 
REMARK       I    between atoms: C_5  and  N_6 
REMARK    2  A    between atoms: N_6  and  C_7 
REMARK    3  A    between atoms: C_20  and  C_21 
REMARK    4  A    between atoms: C_24  and  O_25 
ROOT
HETATM    1  C   UNL     1     -42.622  55.978 -56.585  1.00  0.00     0.263 C 
HETATM    2  N   UNL     1     -41.602  55.988 -55.644  1.00  0.00    -0.323 N 
HETATM    3  O   UNL     1     -43.222  54.961 -56.927  1.00  0.00    -0.267 OA
HETATM    4  H   UNL     1     -41.101  56.867 -55.567  1.00  0.00     0.169 HD
ENDROOT
BRANCH   1   5
HETATM    5  C   UNL     1     -42.926  57.281 -57.169  1.00  0.00     0.074 A 
HETATM    6  S   UNL     1     -44.429  58.058 -56.926  1.00  0.00    -0.089 SA
HETATM    7  C   UNL     1     -44.035  59.342 -57.993  1.00  0.00    -0.009 A 
HETATM    8  C   UNL     1     -45.081  60.371 -58.290  1.00  0.00     0.057 C 
HETATM    9  C   UNL     1     -42.734  59.237 -58.460  1.00  0.00    -0.012 A 
HETATM   10  C   UNL     1     -42.115  58.028 -58.000  1.00  0.00     0.038 A 
BRANCH   9  11
HETATM   11  C   UNL     1     -42.133  60.210 -59.369  1.00  0.00    -0.025 A 
HETATM   12  C   UNL     1     -42.307  60.075 -60.750  1.00  0.00     0.015 A 
HETATM   13  C   UNL     1     -41.743  61.008 -61.627  1.00  0.00     0.037 A 
HETATM   14  C   UNL     1     -41.006  62.088 -61.139  1.00  0.00     0.068 A 
HETATM   15  C   UNL     1     -40.806  62.213 -59.764  1.00  0.00     0.037 A 
HETATM   16  C   UNL     1     -41.360  61.273 -58.885  1.00  0.00     0.015 A 
BRANCH  14  17
HETATM   17  O   UNL     1     -40.527  62.936 -62.099  1.00  0.00    -0.356 OA
HETATM   18  C   UNL     1     -39.138  63.237 -62.050  1.00  0.00     0.210 C 
ENDBRANCH  14  17
ENDBRANCH   9  11
ENDBRANCH   1   5
BRANCH   2  19
HETATM   19  C   UNL     1     -41.184  54.936 -54.808  1.00  0.00     0.035 A 
HETATM   20  C   UNL     1     -41.466  54.885 -53.439  1.00  0.00     0.039 A 
HETATM   21  C   UNL     1     -40.958  53.833 -52.692  1.00  0.00    -0.022 A 
HETATM   22  C   UNL     1     -40.196  52.821 -53.282  1.00  0.00    -0.025 A 
HETATM   23  C   UNL     1     -41.120  53.582 -51.231  1.00  0.00     0.274 C 
HETATM   24  C   UNL     1     -39.802  51.810 -52.258  1.00  0.00     0.273 C 
HETATM   25  C   UNL     1     -39.921  52.843 -54.637  1.00  0.00     0.012 A 
HETATM   26  N   UNL     1     -40.099  52.491 -50.929  1.00  0.00    -0.067 N 
HETATM   27  H   UNL     1     -39.237  52.985 -50.671  1.00  0.00     0.280 HD
HETATM   28  C   UNL     1     -40.473  51.576 -49.823  1.00  0.00     0.270 C 
HETATM   29  C   UNL     1     -40.410  53.915 -55.394  1.00  0.00     0.030 A 
ENDBRANCH   2  19
TORSDOF 4
ENDMDL
MODEL 5
REMARK VINA RESULT:      -8.0      3.540      4.191
REMARK  4 active torsions:
REMARK  status: ('A' for Active; 'I' for Inactive)
REMARK    1  A    between atoms: C_4  and  C_5 
REMARK       I    between atoms: C_5  and  N_6 
REMARK    2  A    between atoms: N_6  and  C_7 
REMARK    3  A    between atoms: C_20  and  C_21 
REMARK    4  A    between atoms: C_24  and  O_25 
ROOT
HETATM    1  C   UNL     1     -43.386  57.284 -56.413  1.00  0.00     0.263 C 
HETATM    2  N   UNL     1     -42.226  57.820 -56.952  1.00  0.00    -0.323 N 
HETATM    3  O   UNL     1     -44.510  57.513 -56.855  1.00  0.00    -0.267 OA
HETATM    4  H   UNL     1     -41.388  57.664 -56.402  1.00  0.00     0.169 HD
ENDROOT
BRANCH   1   5
HETATM    5  C   UNL     1     -43.179  56.429 -55.248  1.00  0.00     0.074 A 
HETATM    6  S   UNL     1     -44.035  56.660 -53.786  1.00  0.00    -0.089 SA
HETATM    7  C   UNL     1     -43.149  55.437 -52.973  1.00  0.00    -0.009 A 
HETATM    8  C   UNL     1     -43.400  55.222 -51.513  1.00  0.00     0.057 C 
HETATM    9  C   UNL     1     -42.272  54.787 -53.829  1.00  0.00    -0.012 A 
HETATM   10  C   UNL     1     -42.279  55.389 -55.131  1.00  0.00     0.038 A 
BRANCH   9  11
HETATM   11  C   UNL     1     -41.409  53.689 -53.402  1.00  0.00    -0.025 A 
HETATM   12  C   UNL     1     -40.858  53.692 -52.117  1.00  0.00     0.015 A 
HETATM   13  C   UNL     1     -40.039  52.640 -51.697  1.00  0.00     0.037 A 
HETATM   14  C   UNL     1     -39.765  51.568 -52.549  1.00  0.00     0.068 A 
HETATM   15  C   UNL     1     -40.289  51.572 -53.840  1.00  0.00     0.037 A 
HETATM   16  C   UNL     1     -41.101  52.631 -54.267  1.00  0.00     0.015 A 
BRANCH  14  17
HETATM   17  O   UNL     1     -38.968  50.597 -52.009  1.00  0.00    -0.356 OA
HETATM   18  C   UNL     1     -39.497  49.881 -50.899  1.00  0.00     0.210 C 
ENDBRANCH  14  17
ENDBRANCH   9  11
ENDBRANCH   1   5
BRANCH   2  19
HETATM   19  C   UNL     1     -42.082  58.549 -58.147  1.00  0.00     0.035 A 
HETATM   20  C   UNL     1     -41.885  59.933 -58.183  1.00  0.00     0.039 A 
HETATM   21  C   UNL     1     -41.814  60.566 -59.415  1.00  0.00    -0.022 A 
HETATM   22  C   UNL     1     -41.911  59.847 -60.610  1.00  0.00    -0.025 A 
HETATM   23  C   UNL     1     -41.621  62.018 -59.693  1.00  0.00     0.274 C 
HETATM   24  C   UNL     1     -41.779  60.767 -61.777  1.00  0.00     0.273 C 
HETATM   25  C   UNL     1     -42.089  58.475 -60.597  1.00  0.00     0.012 A 
HETATM   26  N   UNL     1     -41.944  62.156 -61.176  1.00  0.00    -0.067 N 
HETATM   27  H   UNL     1     -42.950  62.360 -61.219  1.00  0.00     0.280 HD
HETATM   28  C   UNL     1     -41.209  63.237 -61.877  1.00  0.00     0.270 C 
HETATM   29  C   UNL     1     -42.186  57.833 -59.356  1.00  0.00     0.030 A 
ENDBRANCH   2  19
TORSDOF 4
ENDMDL
MODEL 6
REMARK VINA RESULT:      -7.9      6.314      8.821
REMARK  4 active torsions:
REMARK  status: ('A' for Active; 'I' for Inactive)
REMARK    1  A    between atoms: C_4  and  C_5 
REMARK       I    between atoms: C_5  and  N_6 
REMARK    2  A    between atoms: N_6  and  C_7 
REMARK    3  A    between atoms: C_20  and  C_21 
REMARK    4  A    between atoms: C_24  and  O_25 
ROOT
HETATM    1  C   UNL     1     -44.767  58.383 -51.015  1.00  0.00     0.263 C 
HETATM    2  N   UNL     1     -44.370  59.648 -50.609  1.00  0.00    -0.323 N 
HETATM    3  O   UNL     1     -45.833  57.865 -50.688  1.00  0.00    -0.267 OA
HETATM    4  H   UNL     1     -43.410  59.888 -50.834  1.00  0.00     0.169 HD
ENDROOT
BRANCH   1   5
HETATM    5  C   UNL     1     -43.802  57.683 -51.859  1.00  0.00     0.074 A 
HETATM    6  S   UNL     1     -43.312  58.291 -53.379  1.00  0.00    -0.089 SA
HETATM    7  C   UNL     1     -42.373  56.900 -53.731  1.00  0.00    -0.009 A 
HETATM    8  C   UNL     1     -41.725  56.796 -55.076  1.00  0.00     0.057 C 
HETATM    9  C   UNL     1     -42.351  56.015 -52.663  1.00  0.00    -0.012 A 
HETATM   10  C   UNL     1     -43.203  56.466 -51.601  1.00  0.00     0.038 A 
BRANCH   9  11
HETATM   11  C   UNL     1     -41.609  54.757 -52.686  1.00  0.00    -0.025 A 
HETATM   12  C   UNL     1     -41.687  53.921 -53.804  1.00  0.00     0.015 A 
HETATM   13  C   UNL     1     -40.972  52.720 -53.838  1.00  0.00     0.037 A 
HETATM   14  C   UNL     1     -40.167  52.340 -52.763  1.00  0.00     0.068 A 
HETATM   15  C   UNL     1     -40.107  53.156 -51.634  1.00  0.00     0.037 A 
HETATM   16  C   UNL     1     -40.831  54.354 -51.593  1.00  0.00     0.015 A 
BRANCH  14  17
HETATM   17  O   UNL     1     -39.507  51.154 -52.931  1.00  0.00    -0.356 OA
HETATM   18  C   UNL     1     -39.887  50.366 -54.053  1.00  0.00     0.210 C 
ENDBRANCH  14  17
ENDBRANCH   9  11
ENDBRANCH   1   5
BRANCH   2  19
HETATM   19  C   UNL     1     -45.130  60.616 -49.926  1.00  0.00     0.035 A 
HETATM   20  C   UNL     1     -45.242  60.662 -48.533  1.00  0.00     0.039 A 
HETATM   21  C   UNL     1     -46.063  61.621 -47.960  1.00  0.00    -0.022 A 
HETATM   22  C   UNL     1     -46.757  62.549 -48.742  1.00  0.00    -0.025 A 
HETATM   23  C   UNL     1     -46.339  61.847 -46.512  1.00  0.00     0.274 C 
HETATM   24  C   UNL     1     -47.540  63.473 -47.872  1.00  0.00     0.273 C 
HETATM   25  C   UNL     1     -46.646  62.532 -50.121  1.00  0.00     0.012 A 
HETATM   26  N   UNL     1     -47.533  62.796 -46.509  1.00  0.00    -0.067 N 
HETATM   27  H   UNL     1     -48.363  62.191 -46.494  1.00  0.00     0.280 HD
HETATM   28  C   UNL     1     -47.594  63.717 -45.347  1.00  0.00     0.270 C 
HETATM   29  C   UNL     1     -45.838  61.551 -50.708  1.00  0.00     0.030 A 
ENDBRANCH   2  19
TORSDOF 4
ENDMDL
MODEL 7
REMARK VINA RESULT:      -7.8      1.855      2.516
REMARK  4 active torsions:
REMARK  status: ('A' for Active; 'I' for Inactive)
REMARK    1  A    between atoms: C_4  and  C_5 
REMARK       I    between atoms: C_5  and  N_6 
REMARK    2  A    between atoms: N_6  and  C_7 
REMARK    3  A    between atoms: C_20  and  C_21 
REMARK    4  A    between atoms: C_24  and  O_25 
ROOT
HETATM    1  C   UNL     1     -42.848  56.484 -57.207  1.00  0.00     0.263 C 
HETATM    2  N   UNL     1     -42.930  57.858 -57.377  1.00  0.00    -0.323 N 
HETATM    3  O   UNL     1     -43.145  55.671 -58.080  1.00  0.00    -0.267 OA
HETATM    4  H   UNL     1     -42.793  58.402 -56.532  1.00  0.00     0.169 HD
ENDROOT
BRANCH   1   5
HETATM    5  C   UNL     1     -42.393  56.059 -55.886  1.00  0.00     0.074 A 
HETATM    6  S   UNL     1     -42.447  57.095 -54.528  1.00  0.00    -0.089 SA
HETATM    7  C   UNL     1     -41.653  55.958 -53.519  1.00  0.00    -0.009 A 
HETATM    8  C   UNL     1     -41.301  56.364 -52.122  1.00  0.00     0.057 C 
HETATM    9  C   UNL     1     -41.431  54.759 -54.179  1.00  0.00    -0.012 A 
HETATM   10  C   UNL     1     -41.837  54.840 -55.552  1.00  0.00     0.038 A 
BRANCH   9  11
HETATM   11  C   UNL     1     -40.789  53.609 -53.547  1.00  0.00    -0.025 A 
HETATM   12  C   UNL     1     -40.670  53.554 -52.154  1.00  0.00     0.015 A 
HETATM   13  C   UNL     1     -40.065  52.452 -51.541  1.00  0.00     0.037 A 
HETATM   14  C   UNL     1     -39.579  51.390 -52.305  1.00  0.00     0.068 A 
HETATM   15  C   UNL     1     -39.670  51.451 -53.695  1.00  0.00     0.037 A 
HETATM   16  C   UNL     1     -40.265  52.559 -54.312  1.00  0.00     0.015 A 
BRANCH  14  17
HETATM   17  O   UNL     1     -39.030  50.367 -51.582  1.00  0.00    -0.356 OA
HETATM   18  C   UNL     1     -39.880  49.725 -50.639  1.00  0.00     0.210 C 
ENDBRANCH  14  17
ENDBRANCH   9  11
ENDBRANCH   1   5
BRANCH   2  19
HETATM   19  C   UNL     1     -43.186  58.570 -58.564  1.00  0.00     0.035 A 
HETATM   20  C   UNL     1     -44.475  58.857 -59.024  1.00  0.00     0.039 A 
HETATM   21  C   UNL     1     -44.621  59.514 -60.236  1.00  0.00    -0.022 A 
HETATM   22  C   UNL     1     -43.511  59.911 -60.988  1.00  0.00    -0.025 A 
HETATM   23  C   UNL     1     -45.885  59.910 -60.921  1.00  0.00     0.274 C 
HETATM   24  C   UNL     1     -43.954  60.613 -62.227  1.00  0.00     0.273 C 
HETATM   25  C   UNL     1     -42.228  59.653 -60.543  1.00  0.00     0.012 A 
HETATM   26  N   UNL     1     -45.439  60.293 -62.327  1.00  0.00    -0.067 N 
HETATM   27  H   UNL     1     -45.501  59.429 -62.879  1.00  0.00     0.280 HD
HETATM   28  C   UNL     1     -46.266  61.337 -62.981  1.00  0.00     0.270 C 
HETATM   29  C   UNL     1     -42.073  58.967 -59.331  1.00  0.00     0.030 A 
ENDBRANCH   2  19
TORSDOF 4
ENDMDL
MODEL 8
REMARK VINA RESULT:      -7.8      6.616     10.950
REMARK  4 active torsions:
REMARK  status: ('A' for Active; 'I' for Inactive)
REMARK    1  A    between atoms: C_4  and  C_5 
REMARK       I    between atoms: C_5  and  N_6 
REMARK    2  A    between atoms: N_6  and  C_7 
REMARK    3  A    between atoms: C_20  and  C_21 
REMARK    4  A    between atoms: C_24  and  O_25 
ROOT
HETATM    1  C   UNL     1     -43.156  57.272 -52.046  1.00  0.00     0.263 C 
HETATM    2  N   UNL     1     -41.837  56.845 -52.088  1.00  0.00    -0.323 N 
HETATM    3  O   UNL     1     -44.109  56.574 -52.386  1.00  0.00    -0.267 OA
HETATM    4  H   UNL     1     -41.148  57.569 -51.918  1.00  0.00     0.169 HD
ENDROOT
BRANCH   1   5
HETATM    5  C   UNL     1     -43.338  58.644 -51.582  1.00  0.00     0.074 A 
HETATM    6  S   UNL     1     -42.100  59.817 -51.697  1.00  0.00    -0.089 SA
HETATM    7  C   UNL     1     -43.017  60.995 -50.855  1.00  0.00    -0.009 A 
HETATM    8  C   UNL     1     -42.374  62.308 -50.534  1.00  0.00     0.057 C 
HETATM    9  C   UNL     1     -44.295  60.539 -50.569  1.00  0.00    -0.012 A 
HETATM   10  C   UNL     1     -44.457  59.171 -50.968  1.00  0.00     0.038 A 
BRANCH   9  11
HETATM   11  C   UNL     1     -45.294  61.349 -49.875  1.00  0.00    -0.025 A 
HETATM   12  C   UNL     1     -46.126  62.206 -50.602  1.00  0.00     0.015 A 
HETATM   13  C   UNL     1     -47.091  62.977 -49.947  1.00  0.00     0.037 A 
HETATM   14  C   UNL     1     -47.244  62.898 -48.562  1.00  0.00     0.068 A 
HETATM   15  C   UNL     1     -46.400  62.066 -47.828  1.00  0.00     0.037 A 
HETATM   16  C   UNL     1     -45.424  61.302 -48.481  1.00  0.00     0.015 A 
BRANCH  14  17
HETATM   17  O   UNL     1     -48.236  63.688 -48.049  1.00  0.00    -0.356 OA
HETATM   18  C   UNL     1     -49.335  63.969 -48.907  1.00  0.00     0.210 C 
ENDBRANCH  14  17
ENDBRANCH   9  11
ENDBRANCH   1   5
BRANCH   2  19
HETATM   19  C   UNL     1     -41.355  55.548 -52.344  1.00  0.00     0.035 A 
HETATM   20  C   UNL     1     -41.111  54.607 -51.338  1.00  0.00     0.039 A 
HETATM   21  C   UNL     1     -40.580  53.375 -51.690  1.00  0.00    -0.022 A 
HETATM   22  C   UNL     1     -40.308  53.053 -53.023  1.00  0.00    -0.025 A 
HETATM   23  C   UNL     1     -40.233  52.234 -50.795  1.00  0.00     0.274 C 
HETATM   24  C   UNL     1     -39.768  51.666 -53.118  1.00  0.00     0.273 C 
HETATM   25  C   UNL     1     -40.558  53.963 -54.035  1.00  0.00     0.012 A 
HETATM   26  N   UNL     1     -39.411  51.307 -51.682  1.00  0.00    -0.067 N 
HETATM   27  H   UNL     1     -38.435  51.602 -51.556  1.00  0.00     0.280 HD
HETATM   28  C   UNL     1     -39.519  49.866 -51.347  1.00  0.00     0.270 C 
HETATM   29  C   UNL     1     -41.071  55.218 -53.684  1.00  0.00     0.030 A 
ENDBRANCH   2  19
TORSDOF 4
ENDMDL
MODEL 9
REMARK VINA RESULT:      -7.6     16.680     21.827
REMARK  4 active torsions:
REMARK  status: ('A' for Active; 'I' for Inactive)
REMARK    1  A    between atoms: C_4  and  C_5 
REMARK       I    between atoms: C_5  and  N_6 
REMARK    2  A    between atoms: N_6  and  C_7 
REMARK    3  A    between atoms: C_20  and  C_21 
REMARK    4  A    between atoms: C_24  and  O_25 
ROOT
HETATM    1  C   UNL     1     -33.411  40.351 -51.345  1.00  0.00     0.263 C 
HETATM    2  N   UNL     1     -32.800  39.276 -50.717  1.00  0.00    -0.323 N 
HETATM    3  O   UNL     1     -33.925  41.290 -50.741  1.00  0.00    -0.267 OA
HETATM    4  H   UNL     1     -32.549  38.508 -51.331  1.00  0.00     0.169 HD
ENDROOT
BRANCH   1   5
HETATM    5  C   UNL     1     -33.423  40.279 -52.804  1.00  0.00     0.074 A 
HETATM    6  S   UNL     1     -32.012  39.952 -53.710  1.00  0.00    -0.089 SA
HETATM    7  C   UNL     1     -32.814  40.187 -55.208  1.00  0.00    -0.009 A 
HETATM    8  C   UNL     1     -32.009  40.126 -56.468  1.00  0.00     0.057 C 
HETATM    9  C   UNL     1     -34.170  40.418 -55.030  1.00  0.00    -0.012 A 
HETATM   10  C   UNL     1     -34.502  40.498 -53.637  1.00  0.00     0.038 A 
BRANCH   9  11
HETATM   11  C   UNL     1     -35.094  40.631 -56.140  1.00  0.00    -0.025 A 
HETATM   12  C   UNL     1     -35.297  41.920 -56.644  1.00  0.00     0.015 A 
HETATM   13  C   UNL     1     -36.173  42.130 -57.713  1.00  0.00     0.037 A 
HETATM   14  C   UNL     1     -36.851  41.060 -58.299  1.00  0.00     0.068 A 
HETATM   15  C   UNL     1     -36.674  39.777 -57.784  1.00  0.00     0.037 A 
HETATM   16  C   UNL     1     -35.806  39.565 -56.705  1.00  0.00     0.015 A 
BRANCH  14  17
HETATM   17  O   UNL     1     -37.660  41.400 -59.347  1.00  0.00    -0.356 OA
HETATM   18  C   UNL     1     -37.334  42.596 -60.044  1.00  0.00     0.210 C 
ENDBRANCH  14  17
ENDBRANCH   9  11
ENDBRANCH   1   5
BRANCH   2  19
HETATM   19  C   UNL     1     -32.500  39.128 -49.350  1.00  0.00     0.035 A 
HETATM   20  C   UNL     1     -31.465  39.818 -48.711  1.00  0.00     0.039 A 
HETATM   21  C   UNL     1     -31.215  39.557 -47.373  1.00  0.00    -0.022 A 
HETATM   22  C   UNL     1     -31.987  38.641 -46.652  1.00  0.00    -0.025 A 
HETATM   23  C   UNL     1     -30.168  40.160 -46.499  1.00  0.00     0.274 C 
HETATM   24  C   UNL     1     -31.518  38.573 -45.238  1.00  0.00     0.273 C 
HETATM   25  C   UNL     1     -33.026  37.961 -47.260  1.00  0.00     0.012 A 
HETATM   26  N   UNL     1     -30.166  39.273 -45.260  1.00  0.00    -0.067 N 
HETATM   27  H   UNL     1     -29.475  38.538 -45.450  1.00  0.00     0.280 HD
HETATM   28  C   UNL     1     -29.793  39.962 -44.000  1.00  0.00     0.270 C 
HETATM   29  C   UNL     1     -33.269  38.201 -48.618  1.00  0.00     0.030 A 
ENDBRANCH   2  19
TORSDOF 4
ENDMDL
MODEL 10
REMARK VINA RESULT:      -7.5      2.964     10.197
REMARK  4 active torsions:
REMARK  status: ('A' for Active; 'I' for Inactive)
REMARK    1  A    between atoms: C_4  and  C_5 
REMARK       I    between atoms: C_5  and  N_6 
REMARK    2  A    between atoms: N_6  and  C_7 
REMARK    3  A    between atoms: C_20  and  C_21 
REMARK    4  A    between atoms: C_24  and  O_25 
ROOT
HETATM    1  C   UNL     1     -42.233  57.030 -55.637  1.00  0.00     0.263 C 
HETATM    2  N   UNL     1     -42.364  55.684 -55.330  1.00  0.00    -0.323 N 
HETATM    3  O   UNL     1     -41.728  57.855 -54.878  1.00  0.00    -0.267 OA
HETATM    4  H   UNL     1     -42.926  55.149 -55.984  1.00  0.00     0.169 HD
ENDROOT
BRANCH   1   5
HETATM    5  C   UNL     1     -42.764  57.413 -56.942  1.00  0.00     0.074 A 
HETATM    6  S   UNL     1     -42.017  58.601 -57.916  1.00  0.00    -0.089 SA
HETATM    7  C   UNL     1     -43.265  58.548 -59.091  1.00  0.00    -0.009 A 
HETATM    8  C   UNL     1     -43.216  59.515 -60.232  1.00  0.00     0.057 C 
HETATM    9  C   UNL     1     -44.200  57.566 -58.799  1.00  0.00    -0.012 A 
HETATM   10  C   UNL     1     -43.914  56.938 -57.541  1.00  0.00     0.038 A 
BRANCH   9  11
HETATM   11  C   UNL     1     -45.358  57.291 -59.645  1.00  0.00    -0.025 A 
HETATM   12  C   UNL     1     -46.326  58.279 -59.846  1.00  0.00     0.015 A 
HETATM   13  C   UNL     1     -47.433  58.027 -60.663  1.00  0.00     0.037 A 
HETATM   14  C   UNL     1     -47.584  56.792 -61.295  1.00  0.00     0.068 A 
HETATM   15  C   UNL     1     -46.636  55.793 -61.077  1.00  0.00     0.037 A 
HETATM   16  C   UNL     1     -45.533  56.039 -60.250  1.00  0.00     0.015 A 
BRANCH  14  17
HETATM   17  O   UNL     1     -48.698  56.683 -62.081  1.00  0.00    -0.356 OA
HETATM   18  C   UNL     1     -49.282  57.898 -62.533  1.00  0.00     0.210 C 
ENDBRANCH  14  17
ENDBRANCH   9  11
ENDBRANCH   1   5
BRANCH   2  19
HETATM   19  C   UNL     1     -41.825  54.989 -54.231  1.00  0.00     0.035 A 
HETATM   20  C   UNL     1     -42.000  55.396 -52.905  1.00  0.00     0.039 A 
HETATM   21  C   UNL     1     -41.378  54.674 -51.897  1.00  0.00    -0.022 A 
HETATM   22  C   UNL     1     -40.604  53.545 -52.180  1.00  0.00    -0.025 A 
HETATM   23  C   UNL     1     -41.416  54.927 -50.428  1.00  0.00     0.274 C 
HETATM   24  C   UNL     1     -40.077  52.952 -50.917  1.00  0.00     0.273 C 
HETATM   25  C   UNL     1     -40.432  53.116 -53.484  1.00  0.00     0.012 A 
HETATM   26  N   UNL     1     -40.315  54.033 -49.871  1.00  0.00    -0.067 N 
HETATM   27  H   UNL     1     -39.466  54.611 -49.871  1.00  0.00     0.280 HD
HETATM   28  C   UNL     1     -40.551  53.535 -48.494  1.00  0.00     0.270 C 
HETATM   29  C   UNL     1     -41.037  53.854 -54.509  1.00  0.00     0.030 A 
ENDBRANCH   2  19
TORSDOF 4
ENDMDL
