MODEL 1
REMARK VINA RESULT:      -9.8      0.000      0.000
REMARK  9 active torsions:
REMARK  status: ('A' for Active; 'I' for Inactive)
REMARK    1  A    between atoms: C_2  and  C_3 
REMARK    2  A    between atoms: C_4  and  N_5 
REMARK       I    between atoms: N_5  and  C_6 
REMARK    3  A    between atoms: C_6  and  C_7 
REMARK    4  A    between atoms: C_7  and  N_8 
REMARK    5  A    between atoms: N_12  and  C_13 
REMARK    6  A    between atoms: C_15  and  N_16 
REMARK    7  A    between atoms: N_16  and  C_17 
REMARK    8  A    between atoms: C_24  and  N_25 
REMARK    9  A    between atoms: N_25  and  C_26 
ROOT
HETATM    1  C   UNL     1     -43.026  55.481 -53.012  1.00  0.00     0.240 A 
HETATM    2  N   UNL     1     -41.913  54.776 -52.910  1.00  0.00    -0.030 NA
HETATM    3  C   UNL     1     -41.383  54.327 -54.043  1.00  0.00     0.745 A 
HETATM    4  N   UNL     1     -41.913  54.540 -55.238  1.00  0.00     0.131 NA
HETATM    5  C   UNL     1     -42.997  55.307 -55.263  1.00  0.00     0.745 A 
HETATM    6  N   UNL     1     -43.610  55.735 -54.167  1.00  0.00    -0.030 NA
ENDROOT
BRANCH   1   7
HETATM    7  N   UNL     1     -43.649  55.936 -51.847  1.00  0.00    -0.247 NA
HETATM    8  C   UNL     1     -44.527  57.105 -52.008  1.00  0.00     0.126 C 
HETATM    9  C   UNL     1     -43.730  58.427 -52.060  1.00  0.00     0.250 C 
HETATM   10  N   UNL     1     -42.791  58.519 -50.866  1.00  0.00    -0.060 N 
HETATM   11  H   UNL     1     -43.357  58.506 -49.999  1.00  0.00     0.280 HD
HETATM   12  C   UNL     1     -41.876  57.292 -50.761  1.00  0.00     0.250 C 
HETATM   13  C   UNL     1     -42.727  56.002 -50.700  1.00  0.00     0.126 C 
BRANCH  10  14
HETATM   14  C   UNL     1     -42.031  59.840 -50.800  1.00  0.00     0.337 C 
BRANCH  14  15
HETATM   15  C   UNL     1     -42.946  60.952 -50.280  1.00  0.00     0.248 C 
HETATM   16  N   UNL     1     -44.152  60.512 -49.770  1.00  0.00    -0.325 N 
HETATM   17  H   UNL     1     -44.482  59.619 -50.115  1.00  0.00     0.169 HD
HETATM   18  O   UNL     1     -42.568  62.118 -50.402  1.00  0.00    -0.271 OA
BRANCH  16  19
HETATM   19  C   UNL     1     -45.183  61.405 -49.379  1.00  0.00     0.047 A 
HETATM   20  C   UNL     1     -45.397  61.774 -48.032  1.00  0.00    -0.031 A 
HETATM   21  C   UNL     1     -46.417  62.700 -47.739  1.00  0.00     0.009 A 
HETATM   22  C   UNL     1     -47.226  63.224 -48.742  1.00  0.00     0.001 A 
HETATM   23  C   UNL     1     -47.051  62.813 -50.057  1.00  0.00     0.009 A 
HETATM   24  C   UNL     1     -46.043  61.896 -50.392  1.00  0.00    -0.035 A 
HETATM   25  C   UNL     1     -45.898  61.507 -51.840  1.00  0.00     0.050 C 
BRANCH  20  26
HETATM   26  C   UNL     1     -44.714  61.123 -46.845  1.00  0.00     0.036 C 
HETATM   27  C   UNL     1     -45.713  60.433 -45.925  1.00  0.00     0.010 C 
ENDBRANCH  20  26
ENDBRANCH  16  19
ENDBRANCH  14  15
ENDBRANCH  10  14
ENDBRANCH   1   7
BRANCH   3  28
HETATM   28  N   UNL     1     -40.254  53.510 -54.005  1.00  0.00    -0.188 N 
HETATM   29  H   UNL     1     -39.411  54.065 -54.064  1.00  0.00     0.184 HD
BRANCH  28  30
HETATM   30  C   UNL     1     -40.081  52.189 -53.568  1.00  0.00     0.049 A 
HETATM   31  C   UNL     1     -39.735  51.964 -52.227  1.00  0.00     0.030 A 
HETATM   32  C   UNL     1     -39.499  50.672 -51.749  1.00  0.00     0.002 A 
HETATM   33  C   UNL     1     -39.600  49.583 -52.608  1.00  0.00     0.000 A 
HETATM   34  C   UNL     1     -39.934  49.785 -53.944  1.00  0.00     0.002 A 
HETATM   35  C   UNL     1     -40.161  51.080 -54.419  1.00  0.00     0.030 A 
ENDBRANCH  28  30
ENDBRANCH   3  28
BRANCH   5  36
HETATM   36  N   UNL     1     -43.512  55.609 -56.524  1.00  0.00    -0.188 N 
HETATM   37  H   UNL     1     -44.128  54.866 -56.829  1.00  0.00     0.184 HD
BRANCH  36  38
HETATM   38  C   UNL     1     -42.955  56.357 -57.578  1.00  0.00     0.049 A 
HETATM   39  C   UNL     1     -42.423  57.642 -57.421  1.00  0.00     0.030 A 
HETATM   40  C   UNL     1     -41.905  58.350 -58.511  1.00  0.00     0.002 A 
HETATM   41  C   UNL     1     -41.934  57.791 -59.783  1.00  0.00     0.000 A 
HETATM   42  C   UNL     1     -42.484  56.527 -59.968  1.00  0.00     0.002 A 
HETATM   43  C   UNL     1     -42.995  55.820 -58.874  1.00  0.00     0.030 A 
ENDBRANCH  36  38
ENDBRANCH   5  36
TORSDOF 9
ENDMDL
MODEL 2
REMARK VINA RESULT:      -9.7      0.102      5.173
REMARK  9 active torsions:
REMARK  status: ('A' for Active; 'I' for Inactive)
REMARK    1  A    between atoms: C_2  and  C_3 
REMARK    2  A    between atoms: C_4  and  N_5 
REMARK       I    between atoms: N_5  and  C_6 
REMARK    3  A    between atoms: C_6  and  C_7 
REMARK    4  A    between atoms: C_7  and  N_8 
REMARK    5  A    between atoms: N_12  and  C_13 
REMARK    6  A    between atoms: C_15  and  N_16 
REMARK    7  A    between atoms: N_16  and  C_17 
REMARK    8  A    between atoms: C_24  and  N_25 
REMARK    9  A    between atoms: N_25  and  C_26 
ROOT
HETATM    1  C   UNL     1     -43.122  55.404 -53.043  1.00  0.00     0.240 A 
HETATM    2  N   UNL     1     -43.673  55.635 -54.222  1.00  0.00    -0.030 NA
HETATM    3  C   UNL     1     -43.009  55.197 -55.288  1.00  0.00     0.745 A 
HETATM    4  N   UNL     1     -41.847  54.566 -55.223  1.00  0.00     0.131 NA
HETATM    5  C   UNL     1     -41.390  54.318 -54.001  1.00  0.00     0.745 A 
HETATM    6  N   UNL     1     -41.970  54.779 -52.900  1.00  0.00    -0.030 NA
ENDROOT
BRANCH   1   7
HETATM    7  N   UNL     1     -43.755  55.884 -51.894  1.00  0.00    -0.247 NA
HETATM    8  C   UNL     1     -44.598  57.075 -52.079  1.00  0.00     0.126 C 
HETATM    9  C   UNL     1     -43.765  58.374 -52.124  1.00  0.00     0.250 C 
HETATM   10  N   UNL     1     -42.847  58.450 -50.913  1.00  0.00    -0.060 N 
HETATM   11  H   UNL     1     -43.430  58.459 -50.058  1.00  0.00     0.280 HD
HETATM   12  C   UNL     1     -41.967  57.200 -50.783  1.00  0.00     0.250 C 
HETATM   13  C   UNL     1     -42.854  55.934 -50.730  1.00  0.00     0.126 C 
BRANCH  10  14
HETATM   14  C   UNL     1     -42.053  59.750 -50.841  1.00  0.00     0.337 C 
BRANCH  14  15
HETATM   15  C   UNL     1     -42.939  60.883 -50.316  1.00  0.00     0.248 C 
HETATM   16  N   UNL     1     -44.162  60.474 -49.821  1.00  0.00    -0.325 N 
HETATM   17  H   UNL     1     -44.515  59.594 -50.180  1.00  0.00     0.169 HD
HETATM   18  O   UNL     1     -42.526  62.039 -50.420  1.00  0.00    -0.271 OA
BRANCH  16  19
HETATM   19  C   UNL     1     -45.169  61.392 -49.427  1.00  0.00     0.047 A 
HETATM   20  C   UNL     1     -45.357  61.782 -48.082  1.00  0.00    -0.031 A 
HETATM   21  C   UNL     1     -46.354  62.732 -47.788  1.00  0.00     0.009 A 
HETATM   22  C   UNL     1     -47.166  63.260 -48.786  1.00  0.00     0.001 A 
HETATM   23  C   UNL     1     -47.017  62.830 -50.098  1.00  0.00     0.009 A 
HETATM   24  C   UNL     1     -46.032  61.888 -50.435  1.00  0.00    -0.035 A 
HETATM   25  C   UNL     1     -45.915  61.479 -51.880  1.00  0.00     0.050 C 
BRANCH  20  26
HETATM   26  C   UNL     1     -44.672  61.131 -46.897  1.00  0.00     0.036 C 
HETATM   27  C   UNL     1     -45.673  60.466 -45.960  1.00  0.00     0.010 C 
ENDBRANCH  20  26
ENDBRANCH  16  19
ENDBRANCH  14  15
ENDBRANCH  10  14
ENDBRANCH   1   7
BRANCH   3  28
HETATM   28  N   UNL     1     -43.489  55.476 -56.567  1.00  0.00    -0.188 N 
HETATM   29  H   UNL     1     -44.483  55.297 -56.621  1.00  0.00     0.184 HD
BRANCH  28  30
HETATM   30  C   UNL     1     -42.955  56.246 -57.610  1.00  0.00     0.049 A 
HETATM   31  C   UNL     1     -42.446  57.519 -57.313  1.00  0.00     0.030 A 
HETATM   32  C   UNL     1     -41.950  58.351 -58.322  1.00  0.00     0.002 A 
HETATM   33  C   UNL     1     -41.959  57.923 -59.645  1.00  0.00     0.000 A 
HETATM   34  C   UNL     1     -42.468  56.666 -59.961  1.00  0.00     0.002 A 
HETATM   35  C   UNL     1     -42.970  55.842 -58.950  1.00  0.00     0.030 A 
ENDBRANCH  28  30
ENDBRANCH   3  28
BRANCH   5  36
HETATM   36  N   UNL     1     -40.210  53.577 -53.921  1.00  0.00    -0.188 N 
HETATM   37  H   UNL     1     -39.546  53.913 -54.607  1.00  0.00     0.184 HD
BRANCH  36  38
HETATM   38  C   UNL     1     -40.001  52.240 -53.533  1.00  0.00     0.049 A 
HETATM   39  C   UNL     1     -40.136  51.150 -54.400  1.00  0.00     0.030 A 
HETATM   40  C   UNL     1     -39.940  49.839 -53.953  1.00  0.00     0.002 A 
HETATM   41  C   UNL     1     -39.629  49.596 -52.620  1.00  0.00     0.000 A 
HETATM   42  C   UNL     1     -39.518  50.662 -51.733  1.00  0.00     0.002 A 
HETATM   43  C   UNL     1     -39.708  51.972 -52.187  1.00  0.00     0.030 A 
ENDBRANCH  36  38
ENDBRANCH   5  36
TORSDOF 9
ENDMDL
MODEL 3
REMARK VINA RESULT:      -9.7      3.347      7.903
REMARK  9 active torsions:
REMARK  status: ('A' for Active; 'I' for Inactive)
REMARK    1  A    between atoms: C_2  and  C_3 
REMARK    2  A    between atoms: C_4  and  N_5 
REMARK       I    between atoms: N_5  and  C_6 
REMARK    3  A    between atoms: C_6  and  C_7 
REMARK    4  A    between atoms: C_7  and  N_8 
REMARK    5  A    between atoms: N_12  and  C_13 
REMARK    6  A    between atoms: C_15  and  N_16 
REMARK    7  A    between atoms: N_16  and  C_17 
REMARK    8  A    between atoms: C_24  and  N_25 
REMARK    9  A    between atoms: N_25  and  C_26 
ROOT
HETATM    1  C   UNL     1     -43.534  59.138 -55.786  1.00  0.00     0.240 A 
HETATM    2  N   UNL     1     -43.359  58.013 -56.458  1.00  0.00    -0.030 NA
HETATM    3  C   UNL     1     -42.534  58.060 -57.499  1.00  0.00     0.745 A 
HETATM    4  N   UNL     1     -41.903  59.157 -57.888  1.00  0.00     0.131 NA
HETATM    5  C   UNL     1     -42.082  60.230 -57.127  1.00  0.00     0.745 A 
HETATM    6  N   UNL     1     -42.937  60.267 -56.113  1.00  0.00    -0.030 NA
ENDROOT
BRANCH   1   7
HETATM    7  N   UNL     1     -44.428  59.154 -54.712  1.00  0.00    -0.247 NA
HETATM    8  C   UNL     1     -44.022  59.967 -53.556  1.00  0.00     0.126 C 
HETATM    9  C   UNL     1     -43.005  59.230 -52.657  1.00  0.00     0.250 C 
HETATM   10  N   UNL     1     -43.535  57.852 -52.288  1.00  0.00    -0.060 N 
HETATM   11  H   UNL     1     -44.419  57.969 -51.762  1.00  0.00     0.280 HD
HETATM   12  C   UNL     1     -43.914  57.033 -53.528  1.00  0.00     0.250 C 
HETATM   13  C   UNL     1     -44.941  57.813 -54.382  1.00  0.00     0.126 C 
BRANCH  10  14
HETATM   14  C   UNL     1     -42.624  57.096 -51.327  1.00  0.00     0.337 C 
BRANCH  14  15
HETATM   15  C   UNL     1     -41.759  56.093 -52.096  1.00  0.00     0.248 C 
HETATM   16  N   UNL     1     -42.066  54.767 -51.856  1.00  0.00    -0.325 N 
HETATM   17  H   UNL     1     -42.518  54.568 -50.971  1.00  0.00     0.169 HD
HETATM   18  O   UNL     1     -40.853  56.532 -52.805  1.00  0.00    -0.271 OA
BRANCH  16  19
HETATM   19  C   UNL     1     -41.280  53.701 -52.364  1.00  0.00     0.047 A 
HETATM   20  C   UNL     1     -41.362  53.271 -53.707  1.00  0.00    -0.031 A 
HETATM   21  C   UNL     1     -40.514  52.233 -54.137  1.00  0.00     0.009 A 
HETATM   22  C   UNL     1     -39.630  51.612 -53.260  1.00  0.00     0.001 A 
HETATM   23  C   UNL     1     -39.595  51.998 -51.927  1.00  0.00     0.009 A 
HETATM   24  C   UNL     1     -40.420  53.032 -51.459  1.00  0.00    -0.035 A 
HETATM   25  C   UNL     1     -40.318  53.411 -50.004  1.00  0.00     0.050 C 
BRANCH  20  26
HETATM   26  C   UNL     1     -42.417  53.733 -54.693  1.00  0.00     0.036 C 
HETATM   27  C   UNL     1     -41.862  54.754 -55.679  1.00  0.00     0.010 C 
ENDBRANCH  20  26
ENDBRANCH  16  19
ENDBRANCH  14  15
ENDBRANCH  10  14
ENDBRANCH   1   7
BRANCH   3  28
HETATM   28  N   UNL     1     -42.364  56.932 -58.301  1.00  0.00    -0.188 N 
HETATM   29  H   UNL     1     -41.516  56.441 -58.051  1.00  0.00     0.184 HD
BRANCH  28  30
HETATM   30  C   UNL     1     -43.273  56.209 -59.086  1.00  0.00     0.049 A 
HETATM   31  C   UNL     1     -43.954  56.876 -60.114  1.00  0.00     0.030 A 
HETATM   32  C   UNL     1     -44.909  56.217 -60.894  1.00  0.00     0.002 A 
HETATM   33  C   UNL     1     -45.202  54.879 -60.654  1.00  0.00     0.000 A 
HETATM   34  C   UNL     1     -44.543  54.201 -59.632  1.00  0.00     0.002 A 
HETATM   35  C   UNL     1     -43.595  54.866 -58.850  1.00  0.00     0.030 A 
ENDBRANCH  28  30
ENDBRANCH   3  28
BRANCH   5  36
HETATM   36  N   UNL     1     -41.353  61.367 -57.479  1.00  0.00    -0.188 N 
HETATM   37  H   UNL     1     -41.492  62.091 -56.785  1.00  0.00     0.184 HD
BRANCH  36  38
HETATM   38  C   UNL     1     -40.986  61.855 -58.747  1.00  0.00     0.049 A 
HETATM   39  C   UNL     1     -41.647  61.511 -59.932  1.00  0.00     0.030 A 
HETATM   40  C   UNL     1     -41.222  62.007 -61.169  1.00  0.00     0.002 A 
HETATM   41  C   UNL     1     -40.111  62.839 -61.243  1.00  0.00     0.000 A 
HETATM   42  C   UNL     1     -39.422  63.171 -60.081  1.00  0.00     0.002 A 
HETATM   43  C   UNL     1     -39.854  62.678 -58.845  1.00  0.00     0.030 A 
ENDBRANCH  36  38
ENDBRANCH   5  36
TORSDOF 9
ENDMDL
MODEL 4
REMARK VINA RESULT:      -9.6      3.288      7.257
REMARK  9 active torsions:
REMARK  status: ('A' for Active; 'I' for Inactive)
REMARK    1  A    between atoms: C_2  and  C_3 
REMARK    2  A    between atoms: C_4  and  N_5 
REMARK       I    between atoms: N_5  and  C_6 
REMARK    3  A    between atoms: C_6  and  C_7 
REMARK    4  A    between atoms: C_7  and  N_8 
REMARK    5  A    between atoms: N_12  and  C_13 
REMARK    6  A    between atoms: C_15  and  N_16 
REMARK    7  A    between atoms: N_16  and  C_17 
REMARK    8  A    between atoms: C_24  and  N_25 
REMARK    9  A    between atoms: N_25  and  C_26 
ROOT
HETATM    1  C   UNL     1     -42.392  55.852 -53.478  1.00  0.00     0.240 A 
HETATM    2  N   UNL     1     -43.115  55.994 -54.575  1.00  0.00    -0.030 NA
HETATM    3  C   UNL     1     -42.759  55.259 -55.625  1.00  0.00     0.745 A 
HETATM    4  N   UNL     1     -41.735  54.420 -55.622  1.00  0.00     0.131 NA
HETATM    5  C   UNL     1     -41.096  54.289 -54.465  1.00  0.00     0.745 A 
HETATM    6  N   UNL     1     -41.360  55.035 -53.400  1.00  0.00    -0.030 NA
ENDROOT
BRANCH   1   7
HETATM    7  N   UNL     1     -42.695  56.636 -52.362  1.00  0.00    -0.247 NA
HETATM    8  C   UNL     1     -43.954  57.393 -52.434  1.00  0.00     0.126 C 
HETATM    9  C   UNL     1     -43.806  58.687 -53.263  1.00  0.00     0.250 C 
HETATM   10  N   UNL     1     -42.624  59.502 -52.756  1.00  0.00    -0.060 N 
HETATM   11  H   UNL     1     -42.800  59.758 -51.769  1.00  0.00     0.280 HD
HETATM   12  C   UNL     1     -41.330  58.678 -52.730  1.00  0.00     0.250 C 
HETATM   13  C   UNL     1     -41.534  57.403 -51.878  1.00  0.00     0.126 C 
BRANCH  10  14
HETATM   14  C   UNL     1     -42.467  60.840 -53.470  1.00  0.00     0.337 C 
BRANCH  14  15
HETATM   15  C   UNL     1     -42.583  60.650 -54.985  1.00  0.00     0.248 C 
HETATM   16  N   UNL     1     -43.698  61.235 -55.554  1.00  0.00    -0.325 N 
HETATM   17  H   UNL     1     -44.488  61.381 -54.936  1.00  0.00     0.169 HD
HETATM   18  O   UNL     1     -41.728  59.967 -55.551  1.00  0.00    -0.271 OA
BRANCH  16  19
HETATM   19  C   UNL     1     -44.047  61.041 -56.915  1.00  0.00     0.047 A 
HETATM   20  C   UNL     1     -44.937  60.026 -57.333  1.00  0.00    -0.031 A 
HETATM   21  C   UNL     1     -45.260  59.933 -58.700  1.00  0.00     0.009 A 
HETATM   22  C   UNL     1     -44.698  60.795 -59.636  1.00  0.00     0.001 A 
HETATM   23  C   UNL     1     -43.779  61.752 -59.228  1.00  0.00     0.009 A 
HETATM   24  C   UNL     1     -43.433  61.882 -57.875  1.00  0.00    -0.035 A 
HETATM   25  C   UNL     1     -42.441  62.953 -57.501  1.00  0.00     0.050 C 
BRANCH  20  26
HETATM   26  C   UNL     1     -45.452  58.915 -56.439  1.00  0.00     0.036 C 
HETATM   27  C   UNL     1     -46.464  58.033 -57.159  1.00  0.00     0.010 C 
ENDBRANCH  20  26
ENDBRANCH  16  19
ENDBRANCH  14  15
ENDBRANCH  10  14
ENDBRANCH   1   7
BRANCH   3  28
HETATM   28  N   UNL     1     -43.426  55.415 -56.839  1.00  0.00    -0.188 N 
HETATM   29  H   UNL     1     -44.363  55.040 -56.783  1.00  0.00     0.184 HD
BRANCH  28  30
HETATM   30  C   UNL     1     -43.177  56.261 -57.929  1.00  0.00     0.049 A 
HETATM   31  C   UNL     1     -43.741  55.940 -59.173  1.00  0.00     0.030 A 
HETATM   32  C   UNL     1     -43.484  56.718 -60.305  1.00  0.00     0.002 A 
HETATM   33  C   UNL     1     -42.654  57.830 -60.212  1.00  0.00     0.000 A 
HETATM   34  C   UNL     1     -42.078  58.162 -58.989  1.00  0.00     0.002 A 
HETATM   35  C   UNL     1     -42.331  57.375 -57.862  1.00  0.00     0.030 A 
ENDBRANCH  28  30
ENDBRANCH   3  28
BRANCH   5  36
HETATM   36  N   UNL     1     -40.071  53.343 -54.428  1.00  0.00    -0.188 N 
HETATM   37  H   UNL     1     -39.602  53.311 -55.324  1.00  0.00     0.184 HD
BRANCH  36  38
HETATM   38  C   UNL     1     -39.955  52.156 -53.682  1.00  0.00     0.049 A 
HETATM   39  C   UNL     1     -39.718  52.126 -52.302  1.00  0.00     0.030 A 
HETATM   40  C   UNL     1     -39.587  50.914 -51.615  1.00  0.00     0.002 A 
HETATM   41  C   UNL     1     -39.667  49.709 -52.305  1.00  0.00     0.000 A 
HETATM   42  C   UNL     1     -39.874  49.716 -53.680  1.00  0.00     0.002 A 
HETATM   43  C   UNL     1     -40.011  50.930 -54.362  1.00  0.00     0.030 A 
ENDBRANCH  36  38
ENDBRANCH   5  36
TORSDOF 9
ENDMDL
MODEL 5
REMARK VINA RESULT:      -9.5      3.177      5.057
REMARK  9 active torsions:
REMARK  status: ('A' for Active; 'I' for Inactive)
REMARK    1  A    between atoms: C_2  and  C_3 
REMARK    2  A    between atoms: C_4  and  N_5 
REMARK       I    between atoms: N_5  and  C_6 
REMARK    3  A    between atoms: C_6  and  C_7 
REMARK    4  A    between atoms: C_7  and  N_8 
REMARK    5  A    between atoms: N_12  and  C_13 
REMARK    6  A    between atoms: C_15  and  N_16 
REMARK    7  A    between atoms: N_16  and  C_17 
REMARK    8  A    between atoms: C_24  and  N_25 
REMARK    9  A    between atoms: N_25  and  C_26 
ROOT
HETATM    1  C   UNL     1     -42.396  56.037 -53.157  1.00  0.00     0.240 A 
HETATM    2  N   UNL     1     -41.336  55.271 -52.968  1.00  0.00    -0.030 NA
HETATM    3  C   UNL     1     -40.993  54.466 -53.970  1.00  0.00     0.745 A 
HETATM    4  N   UNL     1     -41.656  54.393 -55.114  1.00  0.00     0.131 NA
HETATM    5  C   UNL     1     -42.672  55.237 -55.250  1.00  0.00     0.745 A 
HETATM    6  N   UNL     1     -43.103  56.020 -54.270  1.00  0.00    -0.030 NA
ENDROOT
BRANCH   1   7
HETATM    7  N   UNL     1     -42.826  56.866 -52.118  1.00  0.00    -0.247 NA
HETATM    8  C   UNL     1     -44.100  57.565 -52.345  1.00  0.00     0.126 C 
HETATM    9  C   UNL     1     -43.925  58.818 -53.230  1.00  0.00     0.250 C 
HETATM   10  N   UNL     1     -42.824  59.707 -52.668  1.00  0.00    -0.060 N 
HETATM   11  H   UNL     1     -43.098  60.008 -51.716  1.00  0.00     0.280 HD
HETATM   12  C   UNL     1     -41.509  58.940 -52.480  1.00  0.00     0.250 C 
HETATM   13  C   UNL     1     -41.743  57.705 -51.578  1.00  0.00     0.126 C 
BRANCH  10  14
HETATM   14  C   UNL     1     -42.652  61.010 -53.440  1.00  0.00     0.337 C 
BRANCH  14  15
HETATM   15  C   UNL     1     -42.685  60.742 -54.948  1.00  0.00     0.248 C 
HETATM   16  N   UNL     1     -43.764  61.299 -55.607  1.00  0.00    -0.325 N 
HETATM   17  H   UNL     1     -44.586  61.478 -55.042  1.00  0.00     0.169 HD
HETATM   18  O   UNL     1     -41.804  60.029 -55.430  1.00  0.00    -0.271 OA
BRANCH  16  19
HETATM   19  C   UNL     1     -44.039  61.035 -56.973  1.00  0.00     0.047 A 
HETATM   20  C   UNL     1     -44.922  60.013 -57.386  1.00  0.00    -0.031 A 
HETATM   21  C   UNL     1     -45.169  59.850 -58.763  1.00  0.00     0.009 A 
HETATM   22  C   UNL     1     -44.539  60.650 -59.710  1.00  0.00     0.001 A 
HETATM   23  C   UNL     1     -43.626  61.613 -59.302  1.00  0.00     0.009 A 
HETATM   24  C   UNL     1     -43.355  61.812 -57.940  1.00  0.00    -0.035 A 
HETATM   25  C   UNL     1     -42.366  62.886 -57.568  1.00  0.00     0.050 C 
BRANCH  20  26
HETATM   26  C   UNL     1     -45.508  58.961 -56.464  1.00  0.00     0.036 C 
HETATM   27  C   UNL     1     -46.506  58.067 -57.189  1.00  0.00     0.010 C 
ENDBRANCH  20  26
ENDBRANCH  16  19
ENDBRANCH  14  15
ENDBRANCH  10  14
ENDBRANCH   1   7
BRANCH   3  28
HETATM   28  N   UNL     1     -39.935  53.573 -53.811  1.00  0.00    -0.188 N 
HETATM   29  H   UNL     1     -39.065  54.071 -53.681  1.00  0.00     0.184 HD
BRANCH  28  30
HETATM   30  C   UNL     1     -39.913  52.215 -53.461  1.00  0.00     0.049 A 
HETATM   31  C   UNL     1     -39.640  51.867 -52.130  1.00  0.00     0.030 A 
HETATM   32  C   UNL     1     -39.554  50.528 -51.737  1.00  0.00     0.002 A 
HETATM   33  C   UNL     1     -39.736  49.515 -52.672  1.00  0.00     0.000 A 
HETATM   34  C   UNL     1     -40.000  49.839 -53.999  1.00  0.00     0.002 A 
HETATM   35  C   UNL     1     -40.076  51.179 -54.389  1.00  0.00     0.030 A 
ENDBRANCH  28  30
ENDBRANCH   3  28
BRANCH   5  36
HETATM   36  N   UNL     1     -43.322  55.228 -56.485  1.00  0.00    -0.188 N 
HETATM   37  H   UNL     1     -43.686  54.303 -56.674  1.00  0.00     0.184 HD
BRANCH  36  38
HETATM   38  C   UNL     1     -43.087  55.996 -57.641  1.00  0.00     0.049 A 
HETATM   39  C   UNL     1     -43.469  55.598 -58.928  1.00  0.00     0.030 A 
HETATM   40  C   UNL     1     -43.187  56.390 -60.046  1.00  0.00     0.002 A 
HETATM   41  C   UNL     1     -42.494  57.587 -59.895  1.00  0.00     0.000 A 
HETATM   42  C   UNL     1     -42.080  57.988 -58.629  1.00  0.00     0.002 A 
HETATM   43  C   UNL     1     -42.370  57.195 -57.514  1.00  0.00     0.030 A 
ENDBRANCH  36  38
ENDBRANCH   5  36
TORSDOF 9
ENDMDL
MODEL 6
REMARK VINA RESULT:      -9.5      1.942      2.675
REMARK  9 active torsions:
REMARK  status: ('A' for Active; 'I' for Inactive)
REMARK    1  A    between atoms: C_2  and  C_3 
REMARK    2  A    between atoms: C_4  and  N_5 
REMARK       I    between atoms: N_5  and  C_6 
REMARK    3  A    between atoms: C_6  and  C_7 
REMARK    4  A    between atoms: C_7  and  N_8 
REMARK    5  A    between atoms: N_12  and  C_13 
REMARK    6  A    between atoms: C_15  and  N_16 
REMARK    7  A    between atoms: N_16  and  C_17 
REMARK    8  A    between atoms: C_24  and  N_25 
REMARK    9  A    between atoms: N_25  and  C_26 
ROOT
HETATM    1  C   UNL     1     -41.880  57.444 -54.519  1.00  0.00     0.240 A 
HETATM    2  N   UNL     1     -41.878  56.249 -53.956  1.00  0.00    -0.030 NA
HETATM    3  C   UNL     1     -42.152  55.215 -54.745  1.00  0.00     0.745 A 
HETATM    4  N   UNL     1     -42.428  55.327 -56.035  1.00  0.00     0.131 NA
HETATM    5  C   UNL     1     -42.350  56.553 -56.540  1.00  0.00     0.745 A 
HETATM    6  N   UNL     1     -42.143  57.634 -55.797  1.00  0.00    -0.030 NA
ENDROOT
BRANCH   1   7
HETATM    7  N   UNL     1     -41.645  58.569 -53.724  1.00  0.00    -0.247 NA
HETATM    8  C   UNL     1     -41.385  58.303 -52.301  1.00  0.00     0.126 C 
HETATM    9  C   UNL     1     -42.688  58.055 -51.510  1.00  0.00     0.250 C 
HETATM   10  N   UNL     1     -43.673  59.188 -51.756  1.00  0.00    -0.060 N 
HETATM   11  H   UNL     1     -43.248  60.072 -51.426  1.00  0.00     0.280 HD
HETATM   12  C   UNL     1     -43.935  59.404 -53.252  1.00  0.00     0.250 C 
HETATM   13  C   UNL     1     -42.600  59.659 -53.989  1.00  0.00     0.126 C 
BRANCH  10  14
HETATM   14  C   UNL     1     -44.953  59.058 -50.937  1.00  0.00     0.337 C 
BRANCH  14  15
HETATM   15  C   UNL     1     -45.274  60.384 -50.241  1.00  0.00     0.248 C 
HETATM   16  N   UNL     1     -44.306  60.817 -49.356  1.00  0.00    -0.325 N 
HETATM   17  H   UNL     1     -43.709  60.098 -48.964  1.00  0.00     0.169 HD
HETATM   18  O   UNL     1     -46.359  60.917 -50.481  1.00  0.00    -0.271 OA
BRANCH  16  19
HETATM   19  C   UNL     1     -44.495  61.944 -48.515  1.00  0.00     0.047 A 
HETATM   20  C   UNL     1     -45.110  61.851 -47.247  1.00  0.00    -0.031 A 
HETATM   21  C   UNL     1     -45.218  63.014 -46.461  1.00  0.00     0.009 A 
HETATM   22  C   UNL     1     -44.761  64.243 -46.925  1.00  0.00     0.001 A 
HETATM   23  C   UNL     1     -44.212  64.342 -48.196  1.00  0.00     0.009 A 
HETATM   24  C   UNL     1     -44.081  63.205 -49.009  1.00  0.00    -0.035 A 
HETATM   25  C   UNL     1     -43.460  63.381 -50.370  1.00  0.00     0.050 C 
BRANCH  20  26
HETATM   26  C   UNL     1     -45.817  60.615 -46.725  1.00  0.00     0.036 C 
HETATM   27  C   UNL     1     -47.172  60.952 -46.117  1.00  0.00     0.010 C 
ENDBRANCH  20  26
ENDBRANCH  16  19
ENDBRANCH  14  15
ENDBRANCH  10  14
ENDBRANCH   1   7
BRANCH   3  28
HETATM   28  N   UNL     1     -42.246  53.934 -54.203  1.00  0.00    -0.188 N 
HETATM   29  H   UNL     1     -43.071  53.461 -54.546  1.00  0.00     0.184 HD
BRANCH  28  30
HETATM   30  C   UNL     1     -41.285  53.112 -53.598  1.00  0.00     0.049 A 
HETATM   31  C   UNL     1     -40.940  53.352 -52.259  1.00  0.00     0.030 A 
HETATM   32  C   UNL     1     -39.951  52.597 -51.622  1.00  0.00     0.002 A 
HETATM   33  C   UNL     1     -39.287  51.591 -52.315  1.00  0.00     0.000 A 
HETATM   34  C   UNL     1     -39.608  51.343 -53.647  1.00  0.00     0.002 A 
HETATM   35  C   UNL     1     -40.592  52.106 -54.282  1.00  0.00     0.030 A 
ENDBRANCH  28  30
ENDBRANCH   3  28
BRANCH   5  36
HETATM   36  N   UNL     1     -42.554  56.670 -57.915  1.00  0.00    -0.188 N 
HETATM   37  H   UNL     1     -42.015  57.446 -58.277  1.00  0.00     0.184 HD
BRANCH  36  38
HETATM   38  C   UNL     1     -43.676  56.342 -58.699  1.00  0.00     0.049 A 
HETATM   39  C   UNL     1     -43.747  55.205 -59.514  1.00  0.00     0.030 A 
HETATM   40  C   UNL     1     -44.879  54.941 -60.293  1.00  0.00     0.002 A 
HETATM   41  C   UNL     1     -45.951  55.826 -60.287  1.00  0.00     0.000 A 
HETATM   42  C   UNL     1     -45.891  56.976 -59.507  1.00  0.00     0.002 A 
HETATM   43  C   UNL     1     -44.759  57.233 -58.725  1.00  0.00     0.030 A 
ENDBRANCH  36  38
ENDBRANCH   5  36
TORSDOF 9
ENDMDL
MODEL 7
REMARK VINA RESULT:      -9.4      1.307      5.520
REMARK  9 active torsions:
REMARK  status: ('A' for Active; 'I' for Inactive)
REMARK    1  A    between atoms: C_2  and  C_3 
REMARK    2  A    between atoms: C_4  and  N_5 
REMARK       I    between atoms: N_5  and  C_6 
REMARK    3  A    between atoms: C_6  and  C_7 
REMARK    4  A    between atoms: C_7  and  N_8 
REMARK    5  A    between atoms: N_12  and  C_13 
REMARK    6  A    between atoms: C_15  and  N_16 
REMARK    7  A    between atoms: N_16  and  C_17 
REMARK    8  A    between atoms: C_24  and  N_25 
REMARK    9  A    between atoms: N_25  and  C_26 
ROOT
HETATM    1  C   UNL     1     -43.035  55.477 -53.067  1.00  0.00     0.240 A 
HETATM    2  N   UNL     1     -43.600  55.630 -54.252  1.00  0.00    -0.030 NA
HETATM    3  C   UNL     1     -42.965  55.096 -55.291  1.00  0.00     0.745 A 
HETATM    4  N   UNL     1     -41.818  54.442 -55.195  1.00  0.00     0.131 NA
HETATM    5  C   UNL     1     -41.346  54.278 -53.965  1.00  0.00     0.745 A 
HETATM    6  N   UNL     1     -41.896  54.836 -52.894  1.00  0.00    -0.030 NA
ENDROOT
BRANCH   1   7
HETATM    7  N   UNL     1     -43.637  56.060 -51.949  1.00  0.00    -0.247 NA
HETATM    8  C   UNL     1     -44.471  57.242 -52.216  1.00  0.00     0.126 C 
HETATM    9  C   UNL     1     -43.624  58.522 -52.388  1.00  0.00     0.250 C 
HETATM   10  N   UNL     1     -42.678  58.688 -51.208  1.00  0.00    -0.060 N 
HETATM   11  H   UNL     1     -43.241  58.776 -50.344  1.00  0.00     0.280 HD
HETATM   12  C   UNL     1     -41.809  57.442 -50.992  1.00  0.00     0.250 C 
HETATM   13  C   UNL     1     -42.708  56.196 -50.813  1.00  0.00     0.126 C 
BRANCH  10  14
HETATM   14  C   UNL     1     -41.869  59.980 -51.264  1.00  0.00     0.337 C 
BRANCH  14  15
HETATM   15  C   UNL     1     -42.805  61.186 -51.385  1.00  0.00     0.248 C 
HETATM   16  N   UNL     1     -43.525  61.471 -50.242  1.00  0.00    -0.325 N 
HETATM   17  H   UNL     1     -43.675  60.698 -49.605  1.00  0.00     0.169 HD
HETATM   18  O   UNL     1     -42.876  61.757 -52.475  1.00  0.00    -0.271 OA
BRANCH  16  19
HETATM   19  C   UNL     1     -44.544  62.458 -50.213  1.00  0.00     0.047 A 
HETATM   20  C   UNL     1     -45.883  62.177 -50.564  1.00  0.00    -0.031 A 
HETATM   21  C   UNL     1     -46.838  63.208 -50.465  1.00  0.00     0.009 A 
HETATM   22  C   UNL     1     -46.478  64.489 -50.061  1.00  0.00     0.001 A 
HETATM   23  C   UNL     1     -45.150  64.776 -49.775  1.00  0.00     0.009 A 
HETATM   24  C   UNL     1     -44.168  63.777 -49.856  1.00  0.00    -0.035 A 
HETATM   25  C   UNL     1     -42.750  64.153 -49.514  1.00  0.00     0.050 C 
BRANCH  20  26
HETATM   26  C   UNL     1     -46.350  60.883 -51.201  1.00  0.00     0.036 C 
HETATM   27  C   UNL     1     -46.378  60.978 -52.721  1.00  0.00     0.010 C 
ENDBRANCH  20  26
ENDBRANCH  16  19
ENDBRANCH  14  15
ENDBRANCH  10  14
ENDBRANCH   1   7
BRANCH   3  28
HETATM   28  N   UNL     1     -43.461  55.287 -56.580  1.00  0.00    -0.188 N 
HETATM   29  H   UNL     1     -44.394  54.908 -56.663  1.00  0.00     0.184 HD
BRANCH  28  30
HETATM   30  C   UNL     1     -43.072  56.165 -57.601  1.00  0.00     0.049 A 
HETATM   31  C   UNL     1     -43.253  55.770 -58.934  1.00  0.00     0.030 A 
HETATM   32  C   UNL     1     -42.835  56.583 -59.992  1.00  0.00     0.002 A 
HETATM   33  C   UNL     1     -42.224  57.805 -59.731  1.00  0.00     0.000 A 
HETATM   34  C   UNL     1     -42.028  58.213 -58.415  1.00  0.00     0.002 A 
HETATM   35  C   UNL     1     -42.440  57.392 -57.361  1.00  0.00     0.030 A 
ENDBRANCH  28  30
ENDBRANCH   3  28
BRANCH   5  36
HETATM   36  N   UNL     1     -40.183  53.515 -53.845  1.00  0.00    -0.188 N 
HETATM   37  H   UNL     1     -39.504  53.815 -54.532  1.00  0.00     0.184 HD
BRANCH  36  38
HETATM   38  C   UNL     1     -40.007  52.187 -53.412  1.00  0.00     0.049 A 
HETATM   39  C   UNL     1     -39.657  51.838 -52.103  1.00  0.00     0.030 A 
HETATM   40  C   UNL     1     -39.470  50.501 -51.734  1.00  0.00     0.002 A 
HETATM   41  C   UNL     1     -39.608  49.491 -52.681  1.00  0.00     0.000 A 
HETATM   42  C   UNL     1     -39.927  49.818 -53.994  1.00  0.00     0.002 A 
HETATM   43  C   UNL     1     -40.119  51.156 -54.356  1.00  0.00     0.030 A 
ENDBRANCH  36  38
ENDBRANCH   5  36
TORSDOF 9
ENDMDL
MODEL 8
REMARK VINA RESULT:      -9.3      3.291      5.766
REMARK  9 active torsions:
REMARK  status: ('A' for Active; 'I' for Inactive)
REMARK    1  A    between atoms: C_2  and  C_3 
REMARK    2  A    between atoms: C_4  and  N_5 
REMARK       I    between atoms: N_5  and  C_6 
REMARK    3  A    between atoms: C_6  and  C_7 
REMARK    4  A    between atoms: C_7  and  N_8 
REMARK    5  A    between atoms: N_12  and  C_13 
REMARK    6  A    between atoms: C_15  and  N_16 
REMARK    7  A    between atoms: N_16  and  C_17 
REMARK    8  A    between atoms: C_24  and  N_25 
REMARK    9  A    between atoms: N_25  and  C_26 
ROOT
HETATM    1  C   UNL     1     -43.062  56.169 -53.311  1.00  0.00     0.240 A 
HETATM    2  N   UNL     1     -42.025  55.527 -52.802  1.00  0.00    -0.030 NA
HETATM    3  C   UNL     1     -41.484  54.573 -53.554  1.00  0.00     0.745 A 
HETATM    4  N   UNL     1     -41.932  54.240 -54.754  1.00  0.00     0.131 NA
HETATM    5  C   UNL     1     -42.938  54.972 -55.221  1.00  0.00     0.745 A 
HETATM    6  N   UNL     1     -43.562  55.895 -54.500  1.00  0.00    -0.030 NA
ENDROOT
BRANCH   1   7
HETATM    7  N   UNL     1     -43.697  57.148 -52.543  1.00  0.00    -0.247 NA
HETATM    8  C   UNL     1     -44.733  57.931 -53.234  1.00  0.00     0.126 C 
HETATM    9  C   UNL     1     -44.127  59.053 -54.105  1.00  0.00     0.250 C 
HETATM   10  N   UNL     1     -43.165  59.895 -53.280  1.00  0.00    -0.060 N 
HETATM   11  H   UNL     1     -43.690  60.327 -52.500  1.00  0.00     0.280 HD
HETATM   12  C   UNL     1     -42.086  59.037 -52.606  1.00  0.00     0.250 C 
HETATM   13  C   UNL     1     -42.750  57.940 -51.740  1.00  0.00     0.126 C 
BRANCH  10  14
HETATM   14  C   UNL     1     -42.592  61.080 -54.050  1.00  0.00     0.337 C 
BRANCH  14  15
HETATM   15  C   UNL     1     -42.382  60.705 -55.520  1.00  0.00     0.248 C 
HETATM   16  N   UNL     1     -43.023  61.533 -56.421  1.00  0.00    -0.325 N 
HETATM   17  H   UNL     1     -43.835  62.028 -56.070  1.00  0.00     0.169 HD
HETATM   18  O   UNL     1     -41.720  59.697 -55.773  1.00  0.00    -0.271 OA
BRANCH  16  19
HETATM   19  C   UNL     1     -43.062  61.257 -57.812  1.00  0.00     0.047 A 
HETATM   20  C   UNL     1     -41.957  61.484 -58.662  1.00  0.00    -0.031 A 
HETATM   21  C   UNL     1     -42.071  61.141 -60.023  1.00  0.00     0.009 A 
HETATM   22  C   UNL     1     -43.251  60.619 -60.540  1.00  0.00     0.001 A 
HETATM   23  C   UNL     1     -44.354  60.454 -59.713  1.00  0.00     0.009 A 
HETATM   24  C   UNL     1     -44.282  60.778 -58.350  1.00  0.00    -0.035 A 
HETATM   25  C   UNL     1     -45.511  60.557 -57.507  1.00  0.00     0.050 C 
BRANCH  20  26
HETATM   26  C   UNL     1     -40.699  62.225 -58.254  1.00  0.00     0.036 C 
HETATM   27  C   UNL     1     -39.898  62.688 -59.464  1.00  0.00     0.010 C 
ENDBRANCH  20  26
ENDBRANCH  16  19
ENDBRANCH  14  15
ENDBRANCH  10  14
ENDBRANCH   1   7
BRANCH   3  28
HETATM   28  N   UNL     1     -40.439  53.801 -53.049  1.00  0.00    -0.188 N 
HETATM   29  H   UNL     1     -39.915  54.319 -52.357  1.00  0.00     0.184 HD
BRANCH  28  30
HETATM   30  C   UNL     1     -40.222  52.416 -53.061  1.00  0.00     0.049 A 
HETATM   31  C   UNL     1     -39.774  51.795 -51.886  1.00  0.00     0.030 A 
HETATM   32  C   UNL     1     -39.490  50.426 -51.855  1.00  0.00     0.002 A 
HETATM   33  C   UNL     1     -39.647  49.657 -53.003  1.00  0.00     0.000 A 
HETATM   34  C   UNL     1     -40.082  50.256 -54.182  1.00  0.00     0.002 A 
HETATM   35  C   UNL     1     -40.356  51.626 -54.210  1.00  0.00     0.030 A 
ENDBRANCH  28  30
ENDBRANCH   3  28
BRANCH   5  36
HETATM   36  N   UNL     1     -43.360  54.686 -56.520  1.00  0.00    -0.188 N 
HETATM   37  H   UNL     1     -43.323  53.687 -56.680  1.00  0.00     0.184 HD
BRANCH  36  38
HETATM   38  C   UNL     1     -43.270  55.455 -57.695  1.00  0.00     0.049 A 
HETATM   39  C   UNL     1     -43.775  55.041 -58.934  1.00  0.00     0.030 A 
HETATM   40  C   UNL     1     -43.635  55.837 -60.076  1.00  0.00     0.002 A 
HETATM   41  C   UNL     1     -42.963  57.053 -60.001  1.00  0.00     0.000 A 
HETATM   42  C   UNL     1     -42.429  57.470 -58.787  1.00  0.00     0.002 A 
HETATM   43  C   UNL     1     -42.577  56.674 -57.646  1.00  0.00     0.030 A 
ENDBRANCH  36  38
ENDBRANCH   5  36
TORSDOF 9
ENDMDL
MODEL 9
REMARK VINA RESULT:      -9.3      2.002      3.205
REMARK  9 active torsions:
REMARK  status: ('A' for Active; 'I' for Inactive)
REMARK    1  A    between atoms: C_2  and  C_3 
REMARK    2  A    between atoms: C_4  and  N_5 
REMARK       I    between atoms: N_5  and  C_6 
REMARK    3  A    between atoms: C_6  and  C_7 
REMARK    4  A    between atoms: C_7  and  N_8 
REMARK    5  A    between atoms: N_12  and  C_13 
REMARK    6  A    between atoms: C_15  and  N_16 
REMARK    7  A    between atoms: N_16  and  C_17 
REMARK    8  A    between atoms: C_24  and  N_25 
REMARK    9  A    between atoms: N_25  and  C_26 
ROOT
HETATM    1  C   UNL     1     -41.964  57.936 -54.192  1.00  0.00     0.240 A 
HETATM    2  N   UNL     1     -41.975  56.768 -53.573  1.00  0.00    -0.030 NA
HETATM    3  C   UNL     1     -42.178  55.693 -54.328  1.00  0.00     0.745 A 
HETATM    4  N   UNL     1     -42.373  55.739 -55.637  1.00  0.00     0.131 NA
HETATM    5  C   UNL     1     -42.287  56.942 -56.193  1.00  0.00     0.745 A 
HETATM    6  N   UNL     1     -42.148  58.060 -55.492  1.00  0.00    -0.030 NA
ENDROOT
BRANCH   1   7
HETATM    7  N   UNL     1     -41.802  59.101 -53.438  1.00  0.00    -0.247 NA
HETATM    8  C   UNL     1     -41.507  58.903 -52.011  1.00  0.00     0.126 C 
HETATM    9  C   UNL     1     -42.780  58.590 -51.194  1.00  0.00     0.250 C 
HETATM   10  N   UNL     1     -43.847  59.640 -51.464  1.00  0.00    -0.060 N 
HETATM   11  H   UNL     1     -43.483  60.564 -51.171  1.00  0.00     0.280 HD
HETATM   12  C   UNL     1     -44.141  59.786 -52.963  1.00  0.00     0.250 C 
HETATM   13  C   UNL     1     -42.835  60.110 -53.727  1.00  0.00     0.126 C 
BRANCH  10  14
HETATM   14  C   UNL     1     -45.106  59.448 -50.624  1.00  0.00     0.337 C 
BRANCH  14  15
HETATM   15  C   UNL     1     -45.449  60.741 -49.881  1.00  0.00     0.248 C 
HETATM   16  N   UNL     1     -44.569  61.073 -48.869  1.00  0.00    -0.325 N 
HETATM   17  H   UNL     1     -44.047  60.305 -48.463  1.00  0.00     0.169 HD
HETATM   18  O   UNL     1     -46.479  61.337 -50.199  1.00  0.00    -0.271 OA
BRANCH  16  19
HETATM   19  C   UNL     1     -44.806  62.153 -47.980  1.00  0.00     0.047 A 
HETATM   20  C   UNL     1     -44.590  63.500 -48.348  1.00  0.00    -0.031 A 
HETATM   21  C   UNL     1     -44.891  64.512 -47.416  1.00  0.00     0.009 A 
HETATM   22  C   UNL     1     -45.362  64.204 -46.144  1.00  0.00     0.001 A 
HETATM   23  C   UNL     1     -45.516  62.877 -45.766  1.00  0.00     0.009 A 
HETATM   24  C   UNL     1     -45.231  61.839 -46.666  1.00  0.00    -0.035 A 
HETATM   25  C   UNL     1     -45.437  60.423 -46.195  1.00  0.00     0.050 C 
BRANCH  20  26
HETATM   26  C   UNL     1     -43.900  63.941 -49.624  1.00  0.00     0.036 C 
HETATM   27  C   UNL     1     -42.484  64.436 -49.360  1.00  0.00     0.010 C 
ENDBRANCH  20  26
ENDBRANCH  16  19
ENDBRANCH  14  15
ENDBRANCH  10  14
ENDBRANCH   1   7
BRANCH   3  28
HETATM   28  N   UNL     1     -42.282  54.437 -53.733  1.00  0.00    -0.188 N 
HETATM   29  H   UNL     1     -43.208  54.054 -53.868  1.00  0.00     0.184 HD
BRANCH  28  30
HETATM   30  C   UNL     1     -41.302  53.521 -53.325  1.00  0.00     0.049 A 
HETATM   31  C   UNL     1     -40.847  52.567 -54.247  1.00  0.00     0.030 A 
HETATM   32  C   UNL     1     -39.910  51.597 -53.880  1.00  0.00     0.002 A 
HETATM   33  C   UNL     1     -39.415  51.564 -52.580  1.00  0.00     0.000 A 
HETATM   34  C   UNL     1     -39.860  52.496 -51.648  1.00  0.00     0.002 A 
HETATM   35  C   UNL     1     -40.803  53.459 -52.018  1.00  0.00     0.030 A 
ENDBRANCH  28  30
ENDBRANCH   3  28
BRANCH   5  36
HETATM   36  N   UNL     1     -42.405  56.990 -57.583  1.00  0.00    -0.188 N 
HETATM   37  H   UNL     1     -41.883  57.779 -57.944  1.00  0.00     0.184 HD
BRANCH  36  38
HETATM   38  C   UNL     1     -43.453  56.569 -58.422  1.00  0.00     0.049 A 
HETATM   39  C   UNL     1     -43.401  55.411 -59.207  1.00  0.00     0.030 A 
HETATM   40  C   UNL     1     -44.465  55.054 -60.043  1.00  0.00     0.002 A 
HETATM   41  C   UNL     1     -45.591  55.866 -60.125  1.00  0.00     0.000 A 
HETATM   42  C   UNL     1     -45.652  57.036 -59.375  1.00  0.00     0.002 A 
HETATM   43  C   UNL     1     -44.589  57.385 -58.535  1.00  0.00     0.030 A 
ENDBRANCH  36  38
ENDBRANCH   5  36
TORSDOF 9
ENDMDL
MODEL 10
REMARK VINA RESULT:      -9.3      3.278      8.663
REMARK  9 active torsions:
REMARK  status: ('A' for Active; 'I' for Inactive)
REMARK    1  A    between atoms: C_2  and  C_3 
REMARK    2  A    between atoms: C_4  and  N_5 
REMARK       I    between atoms: N_5  and  C_6 
REMARK    3  A    between atoms: C_6  and  C_7 
REMARK    4  A    between atoms: C_7  and  N_8 
REMARK    5  A    between atoms: N_12  and  C_13 
REMARK    6  A    between atoms: C_15  and  N_16 
REMARK    7  A    between atoms: N_16  and  C_17 
REMARK    8  A    between atoms: C_24  and  N_25 
REMARK    9  A    between atoms: N_25  and  C_26 
ROOT
HETATM    1  C   UNL     1     -43.733  59.461 -55.652  1.00  0.00     0.240 A 
HETATM    2  N   UNL     1     -43.095  60.587 -55.917  1.00  0.00    -0.030 NA
HETATM    3  C   UNL     1     -42.299  60.587 -56.983  1.00  0.00     0.745 A 
HETATM    4  N   UNL     1     -42.116  59.533 -57.764  1.00  0.00     0.131 NA
HETATM    5  C   UNL     1     -42.838  58.459 -57.467  1.00  0.00     0.745 A 
HETATM    6  N   UNL     1     -43.602  58.373 -56.386  1.00  0.00    -0.030 NA
ENDROOT
BRANCH   1   7
HETATM    7  N   UNL     1     -44.545  59.393 -54.517  1.00  0.00    -0.247 NA
HETATM    8  C   UNL     1     -44.088  60.173 -53.357  1.00  0.00     0.126 C 
HETATM    9  C   UNL     1     -42.978  59.443 -52.568  1.00  0.00     0.250 C 
HETATM   10  N   UNL     1     -43.424  58.029 -52.225  1.00  0.00    -0.060 N 
HETATM   11  H   UNL     1     -44.271  58.085 -51.632  1.00  0.00     0.280 HD
HETATM   12  C   UNL     1     -43.860  57.247 -53.471  1.00  0.00     0.250 C 
HETATM   13  C   UNL     1     -44.978  58.018 -54.212  1.00  0.00     0.126 C 
BRANCH  10  14
HETATM   14  C   UNL     1     -42.414  57.273 -51.367  1.00  0.00     0.337 C 
BRANCH  14  15
HETATM   15  C   UNL     1     -41.656  56.250 -52.219  1.00  0.00     0.248 C 
HETATM   16  N   UNL     1     -41.978  54.933 -51.955  1.00  0.00    -0.325 N 
HETATM   17  H   UNL     1     -42.348  54.742 -51.032  1.00  0.00     0.169 HD
HETATM   18  O   UNL     1     -40.810  56.668 -53.011  1.00  0.00    -0.271 OA
BRANCH  16  19
HETATM   19  C   UNL     1     -41.276  53.848 -52.540  1.00  0.00     0.047 A 
HETATM   20  C   UNL     1     -41.495  53.431 -53.872  1.00  0.00    -0.031 A 
HETATM   21  C   UNL     1     -40.723  52.371 -54.384  1.00  0.00     0.009 A 
HETATM   22  C   UNL     1     -39.781  51.717 -53.596  1.00  0.00     0.001 A 
HETATM   23  C   UNL     1     -39.611  52.091 -52.270  1.00  0.00     0.009 A 
HETATM   24  C   UNL     1     -40.357  53.145 -51.722  1.00  0.00    -0.035 A 
HETATM   25  C   UNL     1     -40.109  53.509 -50.281  1.00  0.00     0.050 C 
BRANCH  20  26
HETATM   26  C   UNL     1     -42.622  53.934 -54.753  1.00  0.00     0.036 C 
HETATM   27  C   UNL     1     -42.117  54.887 -55.829  1.00  0.00     0.010 C 
ENDBRANCH  20  26
ENDBRANCH  16  19
ENDBRANCH  14  15
ENDBRANCH  10  14
ENDBRANCH   1   7
BRANCH   3  28
HETATM   28  N   UNL     1     -41.534  61.714 -57.277  1.00  0.00    -0.188 N 
HETATM   29  H   UNL     1     -40.963  61.974 -56.484  1.00  0.00     0.184 HD
BRANCH  28  30
HETATM   30  C   UNL     1     -41.169  62.292 -58.501  1.00  0.00     0.049 A 
HETATM   31  C   UNL     1     -42.177  62.607 -59.424  1.00  0.00     0.030 A 
HETATM   32  C   UNL     1     -41.867  63.137 -60.680  1.00  0.00     0.002 A 
HETATM   33  C   UNL     1     -40.540  63.356 -61.035  1.00  0.00     0.000 A 
HETATM   34  C   UNL     1     -39.524  63.042 -60.136  1.00  0.00     0.002 A 
HETATM   35  C   UNL     1     -39.839  62.505 -58.885  1.00  0.00     0.030 A 
ENDBRANCH  28  30
ENDBRANCH   3  28
BRANCH   5  36
HETATM   36  N   UNL     1     -42.717  57.373 -58.335  1.00  0.00    -0.188 N 
HETATM   37  H   UNL     1     -41.826  57.414 -58.812  1.00  0.00     0.184 HD
BRANCH  36  38
HETATM   38  C   UNL     1     -43.705  56.653 -59.033  1.00  0.00     0.049 A 
HETATM   39  C   UNL     1     -43.641  55.273 -59.263  1.00  0.00     0.030 A 
HETATM   40  C   UNL     1     -44.640  54.612 -59.986  1.00  0.00     0.002 A 
HETATM   41  C   UNL     1     -45.710  55.328 -60.512  1.00  0.00     0.000 A 
HETATM   42  C   UNL     1     -45.779  56.704 -60.320  1.00  0.00     0.002 A 
HETATM   43  C   UNL     1     -44.781  57.359 -59.591  1.00  0.00     0.030 A 
ENDBRANCH  36  38
ENDBRANCH   5  36
TORSDOF 9
ENDMDL
