MODEL 1
REMARK VINA RESULT:      -7.8      0.000      0.000
REMARK  8 active torsions:
REMARK  status: ('A' for Active; 'I' for Inactive)
REMARK    1  A    between atoms: C_2  and  N_3 
REMARK    2  A    between atoms: C_2  and  C_17 
REMARK    3  A    between atoms: N_3  and  N_4 
REMARK       I    between atoms: N_4  and  C_5 
REMARK    4  A    between atoms: C_5  and  C_6 
REMARK    5  A    between atoms: C_6  and  N_7 
REMARK    6  A    between atoms: N_7  and  C_8 
REMARK    7  A    between atoms: C_9  and  O_10 
REMARK       I    between atoms: C_17  and  N_18 
REMARK    8  A    between atoms: N_18  and  C_19 
ROOT
HETATM    1  N   UNL     1     -42.551  56.198 -57.424  1.00  0.00    -0.225 NA
HETATM    2  H   UNL     1     -41.644  55.710 -57.459  1.00  0.00     0.147 HD
ENDROOT
BRANCH   1   3
HETATM    3  C   UNL     1     -42.953  56.204 -55.987  1.00  0.00     0.165 C 
HETATM    4  C   UNL     1     -42.230  57.260 -55.153  1.00  0.00     0.038 C 
BRANCH   3   5
HETATM    5  C   UNL     1     -42.646  54.809 -55.382  1.00  0.00     0.241 C 
HETATM    6  N   UNL     1     -41.503  54.804 -54.597  1.00  0.00    -0.326 N 
HETATM    7  H   UNL     1     -41.024  55.701 -54.572  1.00  0.00     0.169 HD
HETATM    8  O   UNL     1     -43.388  53.851 -55.582  1.00  0.00    -0.271 OA
BRANCH   6   9
HETATM    9  C   UNL     1     -40.907  53.730 -53.915  1.00  0.00     0.036 A 
HETATM   10  C   UNL     1     -40.520  52.537 -54.526  1.00  0.00     0.053 A 
HETATM   11  C   UNL     1     -39.927  51.527 -53.766  1.00  0.00     0.036 A 
HETATM   12 CL   UNL     1     -39.458  50.050 -54.520  1.00  0.00    -0.084 Cl
HETATM   13  C   UNL     1     -39.708  51.694 -52.399  1.00  0.00     0.024 A 
HETATM   14  C   UNL     1     -40.095  52.881 -51.783  1.00  0.00     0.004 A 
HETATM   15  C   UNL     1     -40.697  53.891 -52.538  1.00  0.00     0.029 A 
ENDBRANCH   6   9
ENDBRANCH   3   5
ENDBRANCH   1   3
BRANCH   1  16
HETATM   16  N   UNL     1     -43.438  55.452 -58.241  1.00  0.00    -0.290 N 
HETATM   17  C   UNL     1     -43.344  55.553 -59.627  1.00  0.00     0.245 C 
HETATM   18  O   UNL     1     -42.377  56.032 -60.215  1.00  0.00    -0.271 OA
HETATM   19  H   UNL     1     -44.395  55.291 -57.906  1.00  0.00     0.183 HD
BRANCH  17  20
HETATM   20  C   UNL     1     -44.579  54.994 -60.344  1.00  0.00     0.196 C 
BRANCH  20  21
HETATM   21  N   UNL     1     -45.819  55.348 -59.631  1.00  0.00    -0.282 NA
HETATM   22  H   UNL     1     -46.476  54.566 -59.559  1.00  0.00     0.128 HD
BRANCH  21  23
HETATM   23  C   UNL     1     -46.552  56.486 -60.041  1.00  0.00     0.042 A 
HETATM   24  C   UNL     1     -46.345  57.706 -59.350  1.00  0.00     0.089 A 
HETATM   25  C   UNL     1     -46.974  58.880 -59.780  1.00  0.00     0.038 A 
HETATM   26  C   UNL     1     -47.794  58.863 -60.908  1.00  0.00     0.003 A 
HETATM   27  C   UNL     1     -47.983  57.679 -61.612  1.00  0.00     0.002 A 
HETATM   28  C   UNL     1     -47.359  56.503 -61.188  1.00  0.00     0.026 A 
BRANCH  24  29
HETATM   29  O   UNL     1     -45.524  57.617 -58.248  1.00  0.00    -0.354 OA
HETATM   30  C   UNL     1     -45.063  58.842 -57.689  1.00  0.00     0.210 C 
ENDBRANCH  24  29
ENDBRANCH  21  23
ENDBRANCH  20  21
ENDBRANCH  17  20
ENDBRANCH   1  16
TORSDOF 8
ENDMDL
MODEL 2
REMARK VINA RESULT:      -7.7      6.189      8.630
REMARK  8 active torsions:
REMARK  status: ('A' for Active; 'I' for Inactive)
REMARK    1  A    between atoms: C_2  and  N_3 
REMARK    2  A    between atoms: C_2  and  C_17 
REMARK    3  A    between atoms: N_3  and  N_4 
REMARK       I    between atoms: N_4  and  C_5 
REMARK    4  A    between atoms: C_5  and  C_6 
REMARK    5  A    between atoms: C_6  and  N_7 
REMARK    6  A    between atoms: N_7  and  C_8 
REMARK    7  A    between atoms: C_9  and  O_10 
REMARK       I    between atoms: C_17  and  N_18 
REMARK    8  A    between atoms: N_18  and  C_19 
ROOT
HETATM    1  N   UNL     1     -44.327  56.836 -53.225  1.00  0.00    -0.225 NA
HETATM    2  H   UNL     1     -44.702  56.058 -52.661  1.00  0.00     0.147 HD
ENDROOT
BRANCH   1   3
HETATM    3  C   UNL     1     -42.878  56.534 -53.415  1.00  0.00     0.165 C 
HETATM    4  C   UNL     1     -42.423  56.608 -54.871  1.00  0.00     0.038 C 
BRANCH   3   5
HETATM    5  C   UNL     1     -42.598  55.102 -52.886  1.00  0.00     0.241 C 
HETATM    6  N   UNL     1     -41.332  54.646 -53.220  1.00  0.00    -0.326 N 
HETATM    7  H   UNL     1     -40.802  55.300 -53.791  1.00  0.00     0.169 HD
HETATM    8  O   UNL     1     -43.430  54.497 -52.218  1.00  0.00    -0.271 OA
BRANCH   6   9
HETATM    9  C   UNL     1     -40.741  53.403 -52.938  1.00  0.00     0.036 A 
HETATM   10  C   UNL     1     -40.485  52.425 -53.900  1.00  0.00     0.053 A 
HETATM   11  C   UNL     1     -39.885  51.221 -53.524  1.00  0.00     0.036 A 
HETATM   12 CL   UNL     1     -39.580  50.009 -54.711  1.00  0.00    -0.084 Cl
HETATM   13  C   UNL     1     -39.530  50.980 -52.198  1.00  0.00     0.024 A 
HETATM   14  C   UNL     1     -39.786  51.951 -51.233  1.00  0.00     0.004 A 
HETATM   15  C   UNL     1     -40.394  53.154 -51.603  1.00  0.00     0.029 A 
ENDBRANCH   6   9
ENDBRANCH   3   5
ENDBRANCH   1   3
BRANCH   1  16
HETATM   16  N   UNL     1     -44.550  58.017 -52.474  1.00  0.00    -0.290 N 
HETATM   17  C   UNL     1     -45.039  57.922 -51.172  1.00  0.00     0.245 C 
HETATM   18  O   UNL     1     -45.042  56.882 -50.517  1.00  0.00    -0.271 OA
HETATM   19  H   UNL     1     -44.864  58.861 -52.967  1.00  0.00     0.183 HD
BRANCH  17  20
HETATM   20  C   UNL     1     -45.567  59.259 -50.641  1.00  0.00     0.196 C 
BRANCH  20  21
HETATM   21  N   UNL     1     -45.922  59.166 -49.213  1.00  0.00    -0.282 NA
HETATM   22  H   UNL     1     -46.877  58.831 -49.059  1.00  0.00     0.128 HD
BRANCH  21  23
HETATM   23  C   UNL     1     -45.723  60.290 -48.377  1.00  0.00     0.042 A 
HETATM   24  C   UNL     1     -46.041  60.170 -47.001  1.00  0.00     0.089 A 
HETATM   25  C   UNL     1     -45.772  61.222 -46.118  1.00  0.00     0.038 A 
HETATM   26  C   UNL     1     -45.166  62.390 -46.581  1.00  0.00     0.003 A 
HETATM   27  C   UNL     1     -44.823  62.508 -47.923  1.00  0.00     0.002 A 
HETATM   28  C   UNL     1     -45.089  61.463 -48.811  1.00  0.00     0.026 A 
BRANCH  24  29
HETATM   29  O   UNL     1     -46.640  58.983 -46.644  1.00  0.00    -0.354 OA
HETATM   30  C   UNL     1     -47.532  59.020 -45.536  1.00  0.00     0.210 C 
ENDBRANCH  24  29
ENDBRANCH  21  23
ENDBRANCH  20  21
ENDBRANCH  17  20
ENDBRANCH   1  16
TORSDOF 8
ENDMDL
MODEL 3
REMARK VINA RESULT:      -7.4      3.051      4.070
REMARK  8 active torsions:
REMARK  status: ('A' for Active; 'I' for Inactive)
REMARK    1  A    between atoms: C_2  and  N_3 
REMARK    2  A    between atoms: C_2  and  C_17 
REMARK    3  A    between atoms: N_3  and  N_4 
REMARK       I    between atoms: N_4  and  C_5 
REMARK    4  A    between atoms: C_5  and  C_6 
REMARK    5  A    between atoms: C_6  and  N_7 
REMARK    6  A    between atoms: N_7  and  C_8 
REMARK    7  A    between atoms: C_9  and  O_10 
REMARK       I    between atoms: C_17  and  N_18 
REMARK    8  A    between atoms: N_18  and  C_19 
ROOT
HETATM    1  N   UNL     1     -41.864  56.594 -52.846  1.00  0.00    -0.225 NA
HETATM    2  H   UNL     1     -40.859  56.532 -53.066  1.00  0.00     0.147 HD
ENDROOT
BRANCH   1   3
HETATM    3  C   UNL     1     -42.015  56.011 -51.480  1.00  0.00     0.165 C 
HETATM    4  C   UNL     1     -40.906  56.422 -50.513  1.00  0.00     0.038 C 
BRANCH   3   5
HETATM    5  C   UNL     1     -42.012  54.464 -51.600  1.00  0.00     0.241 C 
HETATM    6  N   UNL     1     -40.733  53.938 -51.707  1.00  0.00    -0.326 N 
HETATM    7  H   UNL     1     -40.004  54.645 -51.732  1.00  0.00     0.169 HD
HETATM    8  O   UNL     1     -43.056  53.820 -51.563  1.00  0.00    -0.271 OA
BRANCH   6   9
HETATM    9  C   UNL     1     -40.343  52.596 -51.856  1.00  0.00     0.036 A 
HETATM   10  C   UNL     1     -40.090  51.989 -53.087  1.00  0.00     0.053 A 
HETATM   11  C   UNL     1     -39.699  50.650 -53.134  1.00  0.00     0.036 A 
HETATM   12 CL   UNL     1     -39.398  49.899 -54.656  1.00  0.00    -0.084 Cl
HETATM   13  C   UNL     1     -39.548  49.906 -51.966  1.00  0.00     0.024 A 
HETATM   14  C   UNL     1     -39.801  50.504 -50.734  1.00  0.00     0.004 A 
HETATM   15  C   UNL     1     -40.202  51.842 -50.683  1.00  0.00     0.029 A 
ENDBRANCH   6   9
ENDBRANCH   3   5
ENDBRANCH   1   3
BRANCH   1  16
HETATM   16  N   UNL     1     -42.538  55.843 -53.842  1.00  0.00    -0.290 N 
HETATM   17  C   UNL     1     -41.804  55.239 -54.861  1.00  0.00     0.245 C 
HETATM   18  O   UNL     1     -40.586  55.074 -54.821  1.00  0.00    -0.271 OA
HETATM   19  H   UNL     1     -43.473  56.148 -54.138  1.00  0.00     0.183 HD
BRANCH  17  20
HETATM   20  C   UNL     1     -42.681  54.793 -56.036  1.00  0.00     0.196 C 
BRANCH  20  21
HETATM   21  N   UNL     1     -43.449  55.922 -56.590  1.00  0.00    -0.282 NA
HETATM   22  H   UNL     1     -44.446  55.713 -56.697  1.00  0.00     0.128 HD
BRANCH  21  23
HETATM   23  C   UNL     1     -43.010  56.536 -57.787  1.00  0.00     0.042 A 
HETATM   24  C   UNL     1     -42.391  57.808 -57.703  1.00  0.00     0.089 A 
HETATM   25  C   UNL     1     -41.854  58.412 -58.846  1.00  0.00     0.038 A 
HETATM   26  C   UNL     1     -41.904  57.754 -60.075  1.00  0.00     0.003 A 
HETATM   27  C   UNL     1     -42.482  56.494 -60.165  1.00  0.00     0.002 A 
HETATM   28  C   UNL     1     -43.021  55.885 -59.029  1.00  0.00     0.026 A 
BRANCH  24  29
HETATM   29  O   UNL     1     -42.397  58.376 -56.448  1.00  0.00    -0.354 OA
HETATM   30  C   UNL     1     -42.707  59.763 -56.371  1.00  0.00     0.210 C 
ENDBRANCH  24  29
ENDBRANCH  21  23
ENDBRANCH  20  21
ENDBRANCH  17  20
ENDBRANCH   1  16
TORSDOF 8
ENDMDL
MODEL 4
REMARK VINA RESULT:      -7.4      3.740      6.573
REMARK  8 active torsions:
REMARK  status: ('A' for Active; 'I' for Inactive)
REMARK    1  A    between atoms: C_2  and  N_3 
REMARK    2  A    between atoms: C_2  and  C_17 
REMARK    3  A    between atoms: N_3  and  N_4 
REMARK       I    between atoms: N_4  and  C_5 
REMARK    4  A    between atoms: C_5  and  C_6 
REMARK    5  A    between atoms: C_6  and  N_7 
REMARK    6  A    between atoms: N_7  and  C_8 
REMARK    7  A    between atoms: C_9  and  O_10 
REMARK       I    between atoms: C_17  and  N_18 
REMARK    8  A    between atoms: N_18  and  C_19 
ROOT
HETATM    1  N   UNL     1     -44.541  56.285 -55.121  1.00  0.00    -0.225 NA
HETATM    2  H   UNL     1     -44.869  55.336 -54.891  1.00  0.00     0.147 HD
ENDROOT
BRANCH   1   3
HETATM    3  C   UNL     1     -43.061  56.173 -55.280  1.00  0.00     0.165 C 
HETATM    4  C   UNL     1     -42.572  56.477 -56.694  1.00  0.00     0.038 C 
BRANCH   3   5
HETATM    5  C   UNL     1     -42.633  54.727 -54.914  1.00  0.00     0.241 C 
HETATM    6  N   UNL     1     -41.557  54.691 -54.041  1.00  0.00    -0.326 N 
HETATM    7  H   UNL     1     -41.191  55.612 -53.809  1.00  0.00     0.169 HD
HETATM    8  O   UNL     1     -43.240  53.754 -55.351  1.00  0.00    -0.271 OA
BRANCH   6   9
HETATM    9  C   UNL     1     -40.887  53.574 -53.513  1.00  0.00     0.036 A 
HETATM   10  C   UNL     1     -40.573  52.433 -54.252  1.00  0.00     0.053 A 
HETATM   11  C   UNL     1     -39.896  51.375 -53.642  1.00  0.00     0.036 A 
HETATM   12 CL   UNL     1     -39.519  49.961 -54.553  1.00  0.00    -0.084 Cl
HETATM   13  C   UNL     1     -39.522  51.441 -52.301  1.00  0.00     0.024 A 
HETATM   14  C   UNL     1     -39.835  52.576 -51.558  1.00  0.00     0.004 A 
HETATM   15  C   UNL     1     -40.520  53.634 -52.161  1.00  0.00     0.029 A 
ENDBRANCH   6   9
ENDBRANCH   3   5
ENDBRANCH   1   3
BRANCH   1  16
HETATM   16  N   UNL     1     -44.917  57.112 -54.032  1.00  0.00    -0.290 N 
HETATM   17  C   UNL     1     -44.951  58.495 -54.200  1.00  0.00     0.245 C 
HETATM   18  O   UNL     1     -44.942  59.052 -55.295  1.00  0.00    -0.271 OA
HETATM   19  H   UNL     1     -44.657  56.822 -53.083  1.00  0.00     0.183 HD
BRANCH  17  20
HETATM   20  C   UNL     1     -45.009  59.249 -52.867  1.00  0.00     0.196 C 
BRANCH  20  21
HETATM   21  N   UNL     1     -44.589  58.390 -51.745  1.00  0.00    -0.282 NA
HETATM   22  H   UNL     1     -45.169  58.510 -50.910  1.00  0.00     0.128 HD
BRANCH  21  23
HETATM   23  C   UNL     1     -43.236  58.406 -51.332  1.00  0.00     0.042 A 
HETATM   24  C   UNL     1     -42.500  57.196 -51.391  1.00  0.00     0.089 A 
HETATM   25  C   UNL     1     -41.134  57.182 -51.085  1.00  0.00     0.038 A 
HETATM   26  C   UNL     1     -40.481  58.365 -50.740  1.00  0.00     0.003 A 
HETATM   27  C   UNL     1     -41.185  59.563 -50.706  1.00  0.00     0.002 A 
HETATM   28  C   UNL     1     -42.548  59.585 -51.011  1.00  0.00     0.026 A 
BRANCH  24  29
HETATM   29  O   UNL     1     -43.236  56.084 -51.736  1.00  0.00    -0.354 OA
HETATM   30  C   UNL     1     -43.482  55.132 -50.708  1.00  0.00     0.210 C 
ENDBRANCH  24  29
ENDBRANCH  21  23
ENDBRANCH  20  21
ENDBRANCH  17  20
ENDBRANCH   1  16
TORSDOF 8
ENDMDL
MODEL 5
REMARK VINA RESULT:      -7.2      2.684      4.530
REMARK  8 active torsions:
REMARK  status: ('A' for Active; 'I' for Inactive)
REMARK    1  A    between atoms: C_2  and  N_3 
REMARK    2  A    between atoms: C_2  and  C_17 
REMARK    3  A    between atoms: N_3  and  N_4 
REMARK       I    between atoms: N_4  and  C_5 
REMARK    4  A    between atoms: C_5  and  C_6 
REMARK    5  A    between atoms: C_6  and  N_7 
REMARK    6  A    between atoms: N_7  and  C_8 
REMARK    7  A    between atoms: C_9  and  O_10 
REMARK       I    between atoms: C_17  and  N_18 
REMARK    8  A    between atoms: N_18  and  C_19 
ROOT
HETATM    1  N   UNL     1     -43.879  55.822 -51.706  1.00  0.00    -0.225 NA
HETATM    2  H   UNL     1     -44.696  55.955 -51.092  1.00  0.00     0.147 HD
ENDROOT
BRANCH   1   3
HETATM    3  C   UNL     1     -42.707  56.338 -50.939  1.00  0.00     0.165 C 
HETATM    4  C   UNL     1     -42.214  57.701 -51.418  1.00  0.00     0.038 C 
BRANCH   3   5
HETATM    5  C   UNL     1     -41.543  55.321 -51.071  1.00  0.00     0.241 C 
HETATM    6  N   UNL     1     -41.794  54.341 -52.018  1.00  0.00    -0.326 N 
HETATM    7  H   UNL     1     -42.713  54.416 -52.448  1.00  0.00     0.169 HD
HETATM    8  O   UNL     1     -40.517  55.438 -50.408  1.00  0.00    -0.271 OA
BRANCH   6   9
HETATM    9  C   UNL     1     -40.990  53.250 -52.391  1.00  0.00     0.036 A 
HETATM   10  C   UNL     1     -40.544  52.270 -51.503  1.00  0.00     0.053 A 
HETATM   11  C   UNL     1     -39.754  51.217 -51.969  1.00  0.00     0.036 A 
HETATM   12 CL   UNL     1     -39.195  50.014 -50.869  1.00  0.00    -0.084 Cl
HETATM   13  C   UNL     1     -39.406  51.124 -53.316  1.00  0.00     0.024 A 
HETATM   14  C   UNL     1     -39.845  52.100 -54.206  1.00  0.00     0.004 A 
HETATM   15  C   UNL     1     -40.629  53.161 -53.743  1.00  0.00     0.029 A 
ENDBRANCH   6   9
ENDBRANCH   3   5
ENDBRANCH   1   3
BRANCH   1  16
HETATM   16  N   UNL     1     -44.139  56.568 -52.883  1.00  0.00    -0.290 N 
HETATM   17  C   UNL     1     -43.918  55.985 -54.129  1.00  0.00     0.245 C 
HETATM   18  O   UNL     1     -43.770  54.777 -54.302  1.00  0.00    -0.271 OA
HETATM   19  H   UNL     1     -43.969  57.580 -52.870  1.00  0.00     0.183 HD
BRANCH  17  20
HETATM   20  C   UNL     1     -43.887  57.013 -55.265  1.00  0.00     0.196 C 
BRANCH  20  21
HETATM   21  N   UNL     1     -43.984  56.359 -56.583  1.00  0.00    -0.282 NA
HETATM   22  H   UNL     1     -43.864  55.344 -56.536  1.00  0.00     0.128 HD
BRANCH  21  23
HETATM   23  C   UNL     1     -43.187  56.835 -57.651  1.00  0.00     0.042 A 
HETATM   24  C   UNL     1     -43.200  56.117 -58.873  1.00  0.00     0.089 A 
HETATM   25  C   UNL     1     -42.504  56.600 -59.986  1.00  0.00     0.038 A 
HETATM   26  C   UNL     1     -41.809  57.807 -59.909  1.00  0.00     0.003 A 
HETATM   27  C   UNL     1     -41.812  58.535 -58.725  1.00  0.00     0.002 A 
HETATM   28  C   UNL     1     -42.504  58.059 -57.609  1.00  0.00     0.026 A 
BRANCH  24  29
HETATM   29  O   UNL     1     -43.909  54.936 -58.846  1.00  0.00    -0.354 OA
HETATM   30  C   UNL     1     -44.633  54.593 -60.022  1.00  0.00     0.210 C 
ENDBRANCH  24  29
ENDBRANCH  21  23
ENDBRANCH  20  21
ENDBRANCH  17  20
ENDBRANCH   1  16
TORSDOF 8
ENDMDL
MODEL 6
REMARK VINA RESULT:      -7.2      4.103      8.990
REMARK  8 active torsions:
REMARK  status: ('A' for Active; 'I' for Inactive)
REMARK    1  A    between atoms: C_2  and  N_3 
REMARK    2  A    between atoms: C_2  and  C_17 
REMARK    3  A    between atoms: N_3  and  N_4 
REMARK       I    between atoms: N_4  and  C_5 
REMARK    4  A    between atoms: C_5  and  C_6 
REMARK    5  A    between atoms: C_6  and  N_7 
REMARK    6  A    between atoms: N_7  and  C_8 
REMARK    7  A    between atoms: C_9  and  O_10 
REMARK       I    between atoms: C_17  and  N_18 
REMARK    8  A    between atoms: N_18  and  C_19 
ROOT
HETATM    1  N   UNL     1     -42.040  56.495 -50.198  1.00  0.00    -0.225 NA
HETATM    2  H   UNL     1     -43.069  56.524 -50.143  1.00  0.00     0.147 HD
ENDROOT
BRANCH   1   3
HETATM    3  C   UNL     1     -41.677  57.306 -51.398  1.00  0.00     0.165 C 
HETATM    4  C   UNL     1     -41.624  58.808 -51.129  1.00  0.00     0.038 C 
BRANCH   3   5
HETATM    5  C   UNL     1     -42.729  57.043 -52.508  1.00  0.00     0.241 C 
HETATM    6  N   UNL     1     -42.505  57.799 -53.648  1.00  0.00    -0.326 N 
HETATM    7  H   UNL     1     -41.715  58.435 -53.565  1.00  0.00     0.169 HD
HETATM    8  O   UNL     1     -43.624  56.216 -52.355  1.00  0.00    -0.271 OA
BRANCH   6   9
HETATM    9  C   UNL     1     -43.255  57.847 -54.835  1.00  0.00     0.036 A 
HETATM   10  C   UNL     1     -42.942  57.120 -55.985  1.00  0.00     0.053 A 
HETATM   11  C   UNL     1     -43.753  57.226 -57.117  1.00  0.00     0.036 A 
HETATM   12 CL   UNL     1     -43.359  56.336 -58.539  1.00  0.00    -0.084 Cl
HETATM   13  C   UNL     1     -44.880  58.046 -57.116  1.00  0.00     0.024 A 
HETATM   14  C   UNL     1     -45.196  58.776 -55.973  1.00  0.00     0.004 A 
HETATM   15  C   UNL     1     -44.382  58.680 -54.841  1.00  0.00     0.029 A 
ENDBRANCH   6   9
ENDBRANCH   3   5
ENDBRANCH   1   3
BRANCH   1  16
HETATM   16  N   UNL     1     -41.686  55.129 -50.328  1.00  0.00    -0.290 N 
HETATM   17  C   UNL     1     -41.033  54.485 -49.279  1.00  0.00     0.245 C 
HETATM   18  O   UNL     1     -40.974  54.929 -48.135  1.00  0.00    -0.271 OA
HETATM   19  H   UNL     1     -41.415  54.778 -51.255  1.00  0.00     0.183 HD
BRANCH  17  20
HETATM   20  C   UNL     1     -40.400  53.155 -49.705  1.00  0.00     0.196 C 
BRANCH  20  21
HETATM   21  N   UNL     1     -39.668  53.293 -50.977  1.00  0.00    -0.282 NA
HETATM   22  H   UNL     1     -39.744  54.229 -51.383  1.00  0.00     0.128 HD
BRANCH  21  23
HETATM   23  C   UNL     1     -39.900  52.357 -52.012  1.00  0.00     0.042 A 
HETATM   24  C   UNL     1     -40.443  52.827 -53.234  1.00  0.00     0.089 A 
HETATM   25  C   UNL     1     -40.601  51.957 -54.320  1.00  0.00     0.038 A 
HETATM   26  C   UNL     1     -40.203  50.625 -54.215  1.00  0.00     0.003 A 
HETATM   27  C   UNL     1     -39.642  50.159 -53.031  1.00  0.00     0.002 A 
HETATM   28  C   UNL     1     -39.482  51.021 -51.943  1.00  0.00     0.026 A 
BRANCH  24  29
HETATM   29  O   UNL     1     -40.810  54.154 -53.236  1.00  0.00    -0.354 OA
HETATM   30  C   UNL     1     -40.381  54.939 -54.342  1.00  0.00     0.210 C 
ENDBRANCH  24  29
ENDBRANCH  21  23
ENDBRANCH  20  21
ENDBRANCH  17  20
ENDBRANCH   1  16
TORSDOF 8
ENDMDL
MODEL 7
REMARK VINA RESULT:      -7.2      3.129      4.305
REMARK  8 active torsions:
REMARK  status: ('A' for Active; 'I' for Inactive)
REMARK    1  A    between atoms: C_2  and  N_3 
REMARK    2  A    between atoms: C_2  and  C_17 
REMARK    3  A    between atoms: N_3  and  N_4 
REMARK       I    between atoms: N_4  and  C_5 
REMARK    4  A    between atoms: C_5  and  C_6 
REMARK    5  A    between atoms: C_6  and  N_7 
REMARK    6  A    between atoms: N_7  and  C_8 
REMARK    7  A    between atoms: C_9  and  O_10 
REMARK       I    between atoms: C_17  and  N_18 
REMARK    8  A    between atoms: N_18  and  C_19 
ROOT
HETATM    1  N   UNL     1     -44.187  56.635 -51.915  1.00  0.00    -0.225 NA
HETATM    2  H   UNL     1     -44.276  57.636 -51.688  1.00  0.00     0.147 HD
ENDROOT
BRANCH   1   3
HETATM    3  C   UNL     1     -42.895  56.197 -51.308  1.00  0.00     0.165 C 
HETATM    4  C   UNL     1     -41.696  57.032 -51.751  1.00  0.00     0.038 C 
BRANCH   3   5
HETATM    5  C   UNL     1     -42.637  54.720 -51.708  1.00  0.00     0.241 C 
HETATM    6  N   UNL     1     -41.304  54.466 -51.993  1.00  0.00    -0.326 N 
HETATM    7  H   UNL     1     -40.713  55.292 -51.935  1.00  0.00     0.169 HD
HETATM    8  O   UNL     1     -43.547  53.896 -51.720  1.00  0.00    -0.271 OA
BRANCH   6   9
HETATM    9  C   UNL     1     -40.705  53.265 -52.408  1.00  0.00     0.036 A 
HETATM   10  C   UNL     1     -40.253  52.276 -51.534  1.00  0.00     0.053 A 
HETATM   11  C   UNL     1     -39.677  51.110 -52.043  1.00  0.00     0.036 A 
HETATM   12 CL   UNL     1     -39.109  49.894 -50.962  1.00  0.00    -0.084 Cl
HETATM   13  C   UNL     1     -39.550  50.913 -53.417  1.00  0.00     0.024 A 
HETATM   14  C   UNL     1     -39.997  51.898 -54.294  1.00  0.00     0.004 A 
HETATM   15  C   UNL     1     -40.566  53.071 -53.790  1.00  0.00     0.029 A 
ENDBRANCH   6   9
ENDBRANCH   3   5
ENDBRANCH   1   3
BRANCH   1  16
HETATM   16  N   UNL     1     -44.190  56.544 -53.329  1.00  0.00    -0.290 N 
HETATM   17  C   UNL     1     -44.492  57.671 -54.090  1.00  0.00     0.245 C 
HETATM   18  O   UNL     1     -44.496  58.816 -53.644  1.00  0.00    -0.271 OA
HETATM   19  H   UNL     1     -44.493  55.664 -53.764  1.00  0.00     0.183 HD
BRANCH  17  20
HETATM   20  C   UNL     1     -44.814  57.330 -55.549  1.00  0.00     0.196 C 
BRANCH  20  21
HETATM   21  N   UNL     1     -43.779  56.461 -56.138  1.00  0.00    -0.282 NA
HETATM   22  H   UNL     1     -42.960  56.348 -55.534  1.00  0.00     0.128 HD
BRANCH  21  23
HETATM   23  C   UNL     1     -43.311  56.732 -57.445  1.00  0.00     0.042 A 
HETATM   24  C   UNL     1     -42.379  57.785 -57.622  1.00  0.00     0.089 A 
HETATM   25  C   UNL     1     -41.815  58.029 -58.879  1.00  0.00     0.038 A 
HETATM   26  C   UNL     1     -42.150  57.222 -59.966  1.00  0.00     0.003 A 
HETATM   27  C   UNL     1     -43.041  56.168 -59.800  1.00  0.00     0.002 A 
HETATM   28  C   UNL     1     -43.608  55.919 -58.548  1.00  0.00     0.026 A 
BRANCH  24  29
HETATM   29  O   UNL     1     -42.118  58.527 -56.491  1.00  0.00    -0.354 OA
HETATM   30  C   UNL     1     -42.252  59.939 -56.602  1.00  0.00     0.210 C 
ENDBRANCH  24  29
ENDBRANCH  21  23
ENDBRANCH  20  21
ENDBRANCH  17  20
ENDBRANCH   1  16
TORSDOF 8
ENDMDL
MODEL 8
REMARK VINA RESULT:      -7.1      3.885      6.765
REMARK  8 active torsions:
REMARK  status: ('A' for Active; 'I' for Inactive)
REMARK    1  A    between atoms: C_2  and  N_3 
REMARK    2  A    between atoms: C_2  and  C_17 
REMARK    3  A    between atoms: N_3  and  N_4 
REMARK       I    between atoms: N_4  and  C_5 
REMARK    4  A    between atoms: C_5  and  C_6 
REMARK    5  A    between atoms: C_6  and  N_7 
REMARK    6  A    between atoms: N_7  and  C_8 
REMARK    7  A    between atoms: C_9  and  O_10 
REMARK       I    between atoms: C_17  and  N_18 
REMARK    8  A    between atoms: N_18  and  C_19 
ROOT
HETATM    1  N   UNL     1     -44.189  55.792 -54.605  1.00  0.00    -0.225 NA
HETATM    2  H   UNL     1     -44.019  54.959 -54.022  1.00  0.00     0.147 HD
ENDROOT
BRANCH   1   3
HETATM    3  C   UNL     1     -43.055  55.845 -55.575  1.00  0.00     0.165 C 
HETATM    4  C   UNL     1     -43.330  55.099 -56.879  1.00  0.00     0.038 C 
BRANCH   3   5
HETATM    5  C   UNL     1     -41.804  55.218 -54.905  1.00  0.00     0.241 C 
HETATM    6  N   UNL     1     -42.054  53.963 -54.371  1.00  0.00    -0.326 N 
HETATM    7  H   UNL     1     -43.023  53.668 -54.464  1.00  0.00     0.169 HD
HETATM    8  O   UNL     1     -40.722  55.798 -54.908  1.00  0.00    -0.271 OA
BRANCH   6   9
HETATM    9  C   UNL     1     -41.180  53.111 -53.675  1.00  0.00     0.036 A 
HETATM   10  C   UNL     1     -40.645  51.938 -54.209  1.00  0.00     0.053 A 
HETATM   11  C   UNL     1     -39.776  51.159 -53.443  1.00  0.00     0.036 A 
HETATM   12 CL   UNL     1     -39.124  49.705 -54.099  1.00  0.00    -0.084 Cl
HETATM   13  C   UNL     1     -39.427  51.538 -52.148  1.00  0.00     0.024 A 
HETATM   14  C   UNL     1     -39.959  52.706 -51.608  1.00  0.00     0.004 A 
HETATM   15  C   UNL     1     -40.836  53.484 -52.368  1.00  0.00     0.029 A 
ENDBRANCH   6   9
ENDBRANCH   3   5
ENDBRANCH   1   3
BRANCH   1  16
HETATM   16  N   UNL     1     -44.211  56.901 -53.721  1.00  0.00    -0.290 N 
HETATM   17  C   UNL     1     -43.977  56.701 -52.362  1.00  0.00     0.245 C 
HETATM   18  O   UNL     1     -43.485  55.675 -51.896  1.00  0.00    -0.271 OA
HETATM   19  H   UNL     1     -44.862  57.670 -53.915  1.00  0.00     0.183 HD
BRANCH  17  20
HETATM   20  C   UNL     1     -44.394  57.904 -51.509  1.00  0.00     0.196 C 
BRANCH  20  21
HETATM   21  N   UNL     1     -43.592  59.097 -51.836  1.00  0.00    -0.282 NA
HETATM   22  H   UNL     1     -43.732  59.421 -52.797  1.00  0.00     0.128 HD
BRANCH  21  23
HETATM   23  C   UNL     1     -42.200  59.084 -51.586  1.00  0.00     0.042 A 
HETATM   24  C   UNL     1     -41.320  58.956 -52.690  1.00  0.00     0.089 A 
HETATM   25  C   UNL     1     -39.935  59.034 -52.504  1.00  0.00     0.038 A 
HETATM   26  C   UNL     1     -39.409  59.262 -51.233  1.00  0.00     0.003 A 
HETATM   27  C   UNL     1     -40.263  59.418 -50.146  1.00  0.00     0.002 A 
HETATM   28  C   UNL     1     -41.647  59.341 -50.324  1.00  0.00     0.026 A 
BRANCH  24  29
HETATM   29  O   UNL     1     -41.935  58.728 -53.901  1.00  0.00    -0.354 OA
HETATM   30  C   UNL     1     -41.902  59.789 -54.849  1.00  0.00     0.210 C 
ENDBRANCH  24  29
ENDBRANCH  21  23
ENDBRANCH  20  21
ENDBRANCH  17  20
ENDBRANCH   1  16
TORSDOF 8
ENDMDL
MODEL 9
REMARK VINA RESULT:      -7.0      3.998      8.555
REMARK  8 active torsions:
REMARK  status: ('A' for Active; 'I' for Inactive)
REMARK    1  A    between atoms: C_2  and  N_3 
REMARK    2  A    between atoms: C_2  and  C_17 
REMARK    3  A    between atoms: N_3  and  N_4 
REMARK       I    between atoms: N_4  and  C_5 
REMARK    4  A    between atoms: C_5  and  C_6 
REMARK    5  A    between atoms: C_6  and  N_7 
REMARK    6  A    between atoms: N_7  and  C_8 
REMARK    7  A    between atoms: C_9  and  O_10 
REMARK       I    between atoms: C_17  and  N_18 
REMARK    8  A    between atoms: N_18  and  C_19 
ROOT
HETATM    1  N   UNL     1     -44.242  56.499 -52.336  1.00  0.00    -0.225 NA
HETATM    2  H   UNL     1     -44.643  56.131 -53.212  1.00  0.00     0.147 HD
ENDROOT
BRANCH   1   3
HETATM    3  C   UNL     1     -43.799  57.890 -52.648  1.00  0.00     0.165 C 
HETATM    4  C   UNL     1     -44.950  58.847 -52.949  1.00  0.00     0.038 C 
BRANCH   3   5
HETATM    5  C   UNL     1     -42.863  57.844 -53.885  1.00  0.00     0.241 C 
HETATM    6  N   UNL     1     -43.534  58.088 -55.074  1.00  0.00    -0.326 N 
HETATM    7  H   UNL     1     -44.536  58.218 -54.955  1.00  0.00     0.169 HD
HETATM    8  O   UNL     1     -41.658  57.643 -53.765  1.00  0.00    -0.271 OA
BRANCH   6   9
HETATM    9  C   UNL     1     -43.028  58.103 -56.384  1.00  0.00     0.036 A 
HETATM   10  C   UNL     1     -43.163  57.046 -57.285  1.00  0.00     0.053 A 
HETATM   11  C   UNL     1     -42.632  57.157 -58.572  1.00  0.00     0.036 A 
HETATM   12 CL   UNL     1     -42.790  55.847 -59.680  1.00  0.00    -0.084 Cl
HETATM   13  C   UNL     1     -41.970  58.316 -58.976  1.00  0.00     0.024 A 
HETATM   14  C   UNL     1     -41.829  59.373 -58.081  1.00  0.00     0.004 A 
HETATM   15  C   UNL     1     -42.351  59.263 -56.790  1.00  0.00     0.029 A 
ENDBRANCH   6   9
ENDBRANCH   3   5
ENDBRANCH   1   3
BRANCH   1  16
HETATM   16  N   UNL     1     -43.166  55.640 -51.997  1.00  0.00    -0.290 N 
HETATM   17  C   UNL     1     -43.257  54.842 -50.859  1.00  0.00     0.245 C 
HETATM   18  O   UNL     1     -44.308  54.618 -50.262  1.00  0.00    -0.271 OA
HETATM   19  H   UNL     1     -42.209  55.946 -52.207  1.00  0.00     0.183 HD
BRANCH  17  20
HETATM   20  C   UNL     1     -41.901  54.267 -50.432  1.00  0.00     0.196 C 
BRANCH  20  21
HETATM   21  N   UNL     1     -40.931  54.301 -51.542  1.00  0.00    -0.282 NA
HETATM   22  H   UNL     1     -41.172  54.986 -52.263  1.00  0.00     0.128 HD
BRANCH  21  23
HETATM   23  C   UNL     1     -40.587  53.094 -52.195  1.00  0.00     0.042 A 
HETATM   24  C   UNL     1     -40.944  52.942 -53.558  1.00  0.00     0.089 A 
HETATM   25  C   UNL     1     -40.542  51.808 -54.273  1.00  0.00     0.038 A 
HETATM   26  C   UNL     1     -39.765  50.828 -53.655  1.00  0.00     0.003 A 
HETATM   27  C   UNL     1     -39.384  50.979 -52.327  1.00  0.00     0.002 A 
HETATM   28  C   UNL     1     -39.782  52.108 -51.606  1.00  0.00     0.026 A 
BRANCH  24  29
HETATM   29  O   UNL     1     -41.714  53.960 -54.075  1.00  0.00    -0.354 OA
HETATM   30  C   UNL     1     -41.296  54.518 -55.315  1.00  0.00     0.210 C 
ENDBRANCH  24  29
ENDBRANCH  21  23
ENDBRANCH  20  21
ENDBRANCH  17  20
ENDBRANCH   1  16
TORSDOF 8
ENDMDL
MODEL 10
REMARK VINA RESULT:      -6.9      6.989      9.959
REMARK  8 active torsions:
REMARK  status: ('A' for Active; 'I' for Inactive)
REMARK    1  A    between atoms: C_2  and  N_3 
REMARK    2  A    between atoms: C_2  and  C_17 
REMARK    3  A    between atoms: N_3  and  N_4 
REMARK       I    between atoms: N_4  and  C_5 
REMARK    4  A    between atoms: C_5  and  C_6 
REMARK    5  A    between atoms: C_6  and  N_7 
REMARK    6  A    between atoms: N_7  and  C_8 
REMARK    7  A    between atoms: C_9  and  O_10 
REMARK       I    between atoms: C_17  and  N_18 
REMARK    8  A    between atoms: N_18  and  C_19 
ROOT
HETATM    1  N   UNL     1     -41.200  57.151 -49.975  1.00  0.00    -0.225 NA
HETATM    2  H   UNL     1     -42.200  57.371 -49.856  1.00  0.00     0.147 HD
ENDROOT
BRANCH   1   3
HETATM    3  C   UNL     1     -40.730  58.006 -51.105  1.00  0.00     0.165 C 
HETATM    4  C   UNL     1     -39.659  59.018 -50.705  1.00  0.00     0.038 C 
BRANCH   3   5
HETATM    5  C   UNL     1     -41.947  58.780 -51.677  1.00  0.00     0.241 C 
HETATM    6  N   UNL     1     -42.766  59.297 -50.686  1.00  0.00    -0.326 N 
HETATM    7  H   UNL     1     -42.467  59.055 -49.744  1.00  0.00     0.169 HD
HETATM    8  O   UNL     1     -42.101  58.921 -52.887  1.00  0.00    -0.271 OA
BRANCH   6   9
HETATM    9  C   UNL     1     -43.960  60.027 -50.821  1.00  0.00     0.036 A 
HETATM   10  C   UNL     1     -44.058  61.405 -50.625  1.00  0.00     0.053 A 
HETATM   11  C   UNL     1     -45.288  62.045 -50.790  1.00  0.00     0.036 A 
HETATM   12 CL   UNL     1     -45.410  63.745 -50.537  1.00  0.00    -0.084 Cl
HETATM   13  C   UNL     1     -46.425  61.327 -51.156  1.00  0.00     0.024 A 
HETATM   14  C   UNL     1     -46.335  59.951 -51.351  1.00  0.00     0.004 A 
HETATM   15  C   UNL     1     -45.108  59.305 -51.178  1.00  0.00     0.029 A 
ENDBRANCH   6   9
ENDBRANCH   3   5
ENDBRANCH   1   3
BRANCH   1  16
HETATM   16  N   UNL     1     -41.127  55.766 -50.264  1.00  0.00    -0.290 N 
HETATM   17  C   UNL     1     -40.975  54.853 -49.222  1.00  0.00     0.245 C 
HETATM   18  O   UNL     1     -41.168  55.127 -48.040  1.00  0.00    -0.271 OA
HETATM   19  H   UNL     1     -40.673  55.469 -51.136  1.00  0.00     0.183 HD
BRANCH  17  20
HETATM   20  C   UNL     1     -40.547  53.465 -49.711  1.00  0.00     0.196 C 
BRANCH  20  21
HETATM   21  N   UNL     1     -39.707  53.557 -50.919  1.00  0.00    -0.282 NA
HETATM   22  H   UNL     1     -39.643  54.509 -51.290  1.00  0.00     0.128 HD
BRANCH  21  23
HETATM   23  C   UNL     1     -39.965  52.691 -52.007  1.00  0.00     0.042 A 
HETATM   24  C   UNL     1     -40.662  53.208 -53.128  1.00  0.00     0.089 A 
HETATM   25  C   UNL     1     -40.857  52.418 -54.267  1.00  0.00     0.038 A 
HETATM   26  C   UNL     1     -40.346  51.121 -54.317  1.00  0.00     0.003 A 
HETATM   27  C   UNL     1     -39.636  50.613 -53.236  1.00  0.00     0.002 A 
HETATM   28  C   UNL     1     -39.438  51.395 -52.095  1.00  0.00     0.026 A 
BRANCH  24  29
HETATM   29  O   UNL     1     -41.132  54.494 -52.979  1.00  0.00    -0.354 OA
HETATM   30  C   UNL     1     -40.768  55.433 -53.984  1.00  0.00     0.210 C 
ENDBRANCH  24  29
ENDBRANCH  21  23
ENDBRANCH  20  21
ENDBRANCH  17  20
ENDBRANCH   1  16
TORSDOF 8
ENDMDL
