MODEL 1
REMARK VINA RESULT:      -9.3      0.000      0.000
REMARK  4 active torsions:
REMARK  status: ('A' for Active; 'I' for Inactive)
REMARK    1  A    between atoms: C_7  and  C_8 
REMARK    2  A    between atoms: N_9  and  C_10 
REMARK    3  A    between atoms: C_10  and  C_11 
REMARK       I    between atoms: C_11  and  N_12 
REMARK    4  A    between atoms: N_12  and  C_13 
ROOT
HETATM    1  C   UNL     1     -42.907  54.714 -53.169  1.00  0.00     0.158 C 
HETATM    2  N   UNL     1     -42.994  55.246 -54.519  1.00  0.00    -0.326 N 
HETATM    3  C   UNL     1     -42.175  54.570 -55.399  1.00  0.00     0.255 C 
HETATM    4  O   UNL     1     -42.163  54.661 -56.612  1.00  0.00    -0.267 OA
HETATM    5  C   UNL     1     -41.337  53.670 -54.597  1.00  0.00     0.040 A 
HETATM    6  C   UNL     1     -41.740  53.772 -53.263  1.00  0.00    -0.015 A 
HETATM    7  C   UNL     1     -40.302  52.852 -55.010  1.00  0.00     0.017 A 
HETATM    8  C   UNL     1     -39.644  52.109 -54.029  1.00  0.00     0.001 A 
HETATM    9  C   UNL     1     -40.036  52.196 -52.681  1.00  0.00     0.001 A 
HETATM   10  C   UNL     1     -41.095  53.024 -52.291  1.00  0.00     0.011 A 
ENDROOT
BRANCH   1  11
HETATM   11  C   UNL     1     -42.582  55.748 -52.135  1.00  0.00     0.004 A 
HETATM   12  C   UNL     1     -43.119  55.787 -50.850  1.00  0.00     0.015 A 
HETATM   13  C   UNL     1     -44.078  54.878 -50.166  1.00  0.00     0.069 C 
HETATM   14  N   UNL     1     -42.620  56.892 -50.213  1.00  0.00    -0.359 N 
HETATM   15  H   UNL     1     -42.850  57.176 -49.271  1.00  0.00     0.166 HD
HETATM   16  C   UNL     1     -41.760  57.578 -51.032  1.00  0.00     0.043 A 
HETATM   17  C   UNL     1     -41.702  56.885 -52.241  1.00  0.00     0.001 A 
HETATM   18  C   UNL     1     -41.040  58.754 -50.789  1.00  0.00     0.030 A 
HETATM   19  C   UNL     1     -40.866  57.402 -53.256  1.00  0.00     0.014 A 
HETATM   20  C   UNL     1     -40.140  58.578 -53.032  1.00  0.00     0.001 A 
HETATM   21  C   UNL     1     -40.229  59.245 -51.814  1.00  0.00     0.002 A 
ENDBRANCH   1  11
BRANCH   2  22
HETATM   22  C   UNL     1     -43.983  56.235 -54.914  1.00  0.00     0.229 C 
BRANCH  22  23
HETATM   23  C   UNL     1     -43.614  57.036 -56.163  1.00  0.00     0.235 C 
HETATM   24  N   UNL     1     -44.299  56.681 -57.311  1.00  0.00    -0.355 N 
HETATM   25  H   UNL     1     -44.844  55.823 -57.264  1.00  0.00     0.162 HD
HETATM   26  O   UNL     1     -42.685  57.841 -56.158  1.00  0.00    -0.272 OA
BRANCH  24  27
HETATM   27  C   UNL     1     -43.861  57.151 -58.621  1.00  0.00     0.084 C 
HETATM   28  C   UNL     1     -43.126  56.040 -59.387  1.00  0.00     0.025 C 
HETATM   29  C   UNL     1     -44.073  54.970 -59.931  1.00  0.00     0.002 C 
HETATM   30  C   UNL     1     -45.186  55.586 -60.773  1.00  0.00     0.000 C 
HETATM   31  C   UNL     1     -45.958  56.639 -59.987  1.00  0.00     0.002 C 
HETATM   32  C   UNL     1     -45.033  57.717 -59.429  1.00  0.00     0.025 C 
ENDBRANCH  24  27
ENDBRANCH  22  23
ENDBRANCH   2  22
TORSDOF 4
ENDMDL
MODEL 2
REMARK VINA RESULT:      -9.2      1.702      4.404
REMARK  4 active torsions:
REMARK  status: ('A' for Active; 'I' for Inactive)
REMARK    1  A    between atoms: C_7  and  C_8 
REMARK    2  A    between atoms: N_9  and  C_10 
REMARK    3  A    between atoms: C_10  and  C_11 
REMARK       I    between atoms: C_11  and  N_12 
REMARK    4  A    between atoms: N_12  and  C_13 
ROOT
HETATM    1  C   UNL     1     -42.494  57.580 -53.529  1.00  0.00     0.158 C 
HETATM    2  N   UNL     1     -43.877  57.970 -53.743  1.00  0.00    -0.326 N 
HETATM    3  C   UNL     1     -44.225  59.081 -53.003  1.00  0.00     0.255 C 
HETATM    4  O   UNL     1     -45.240  59.744 -53.101  1.00  0.00    -0.267 OA
HETATM    5  C   UNL     1     -43.107  59.353 -52.089  1.00  0.00     0.040 A 
HETATM    6  C   UNL     1     -42.084  58.444 -52.370  1.00  0.00    -0.015 A 
HETATM    7  C   UNL     1     -43.016  60.305 -51.092  1.00  0.00     0.017 A 
HETATM    8  C   UNL     1     -41.840  60.335 -50.342  1.00  0.00     0.001 A 
HETATM    9  C   UNL     1     -40.797  59.429 -50.610  1.00  0.00     0.001 A 
HETATM   10  C   UNL     1     -40.910  58.482 -51.635  1.00  0.00     0.011 A 
ENDROOT
BRANCH   1  11
HETATM   11  C   UNL     1     -42.328  56.149 -53.118  1.00  0.00     0.004 A 
HETATM   12  C   UNL     1     -42.931  55.564 -52.006  1.00  0.00     0.015 A 
HETATM   13  C   UNL     1     -43.861  56.128 -50.991  1.00  0.00     0.069 C 
HETATM   14  N   UNL     1     -42.515  54.260 -51.933  1.00  0.00    -0.359 N 
HETATM   15  H   UNL     1     -42.786  53.601 -51.217  1.00  0.00     0.166 HD
HETATM   16  C   UNL     1     -41.666  53.963 -52.969  1.00  0.00     0.043 A 
HETATM   17  C   UNL     1     -41.534  55.118 -53.739  1.00  0.00     0.001 A 
HETATM   18  C   UNL     1     -41.010  52.763 -53.270  1.00  0.00     0.030 A 
HETATM   19  C   UNL     1     -40.703  55.057 -54.879  1.00  0.00     0.014 A 
HETATM   20  C   UNL     1     -40.037  53.867 -55.196  1.00  0.00     0.001 A 
HETATM   21  C   UNL     1     -40.189  52.736 -54.399  1.00  0.00     0.002 A 
ENDBRANCH   1  11
BRANCH   2  22
HETATM   22  C   UNL     1     -44.715  57.374 -54.770  1.00  0.00     0.229 C 
BRANCH  22  23
HETATM   23  C   UNL     1     -44.410  57.849 -56.190  1.00  0.00     0.235 C 
HETATM   24  N   UNL     1     -44.476  56.868 -57.163  1.00  0.00    -0.355 N 
HETATM   25  H   UNL     1     -44.546  55.907 -56.832  1.00  0.00     0.162 HD
HETATM   26  O   UNL     1     -44.010  58.990 -56.415  1.00  0.00    -0.272 OA
BRANCH  24  27
HETATM   27  C   UNL     1     -43.941  57.100 -58.501  1.00  0.00     0.084 C 
HETATM   28  C   UNL     1     -43.193  55.861 -59.017  1.00  0.00     0.025 C 
HETATM   29  C   UNL     1     -44.135  54.733 -59.437  1.00  0.00     0.002 C 
HETATM   30  C   UNL     1     -45.173  55.218 -60.444  1.00  0.00     0.000 C 
HETATM   31  C   UNL     1     -45.961  56.405 -59.901  1.00  0.00     0.002 C 
HETATM   32  C   UNL     1     -45.041  57.544 -59.470  1.00  0.00     0.025 C 
ENDBRANCH  24  27
ENDBRANCH  22  23
ENDBRANCH   2  22
TORSDOF 4
ENDMDL
MODEL 3
REMARK VINA RESULT:      -9.0      3.011      5.759
REMARK  4 active torsions:
REMARK  status: ('A' for Active; 'I' for Inactive)
REMARK    1  A    between atoms: C_7  and  C_8 
REMARK    2  A    between atoms: N_9  and  C_10 
REMARK    3  A    between atoms: C_10  and  C_11 
REMARK       I    between atoms: C_11  and  N_12 
REMARK    4  A    between atoms: N_12  and  C_13 
ROOT
HETATM    1  C   UNL     1     -40.889  55.318 -52.321  1.00  0.00     0.158 C 
HETATM    2  N   UNL     1     -40.942  55.138 -50.880  1.00  0.00    -0.326 N 
HETATM    3  C   UNL     1     -40.420  53.924 -50.487  1.00  0.00     0.255 C 
HETATM    4  O   UNL     1     -40.164  53.564 -49.353  1.00  0.00    -0.267 OA
HETATM    5  C   UNL     1     -40.179  53.146 -51.709  1.00  0.00     0.040 A 
HETATM    6  C   UNL     1     -40.487  53.954 -52.807  1.00  0.00    -0.015 A 
HETATM    7  C   UNL     1     -39.746  51.840 -51.834  1.00  0.00     0.017 A 
HETATM    8  C   UNL     1     -39.625  51.326 -53.125  1.00  0.00     0.001 A 
HETATM    9  C   UNL     1     -39.928  52.124 -54.244  1.00  0.00     0.001 A 
HETATM   10  C   UNL     1     -40.354  53.449 -54.091  1.00  0.00     0.011 A 
ENDROOT
BRANCH   1  11
HETATM   11  C   UNL     1     -42.213  55.655 -52.936  1.00  0.00     0.004 A 
HETATM   12  C   UNL     1     -43.417  55.023 -52.633  1.00  0.00     0.015 A 
HETATM   13  C   UNL     1     -43.730  53.931 -51.672  1.00  0.00     0.069 C 
HETATM   14  N   UNL     1     -44.396  55.572 -53.419  1.00  0.00    -0.359 N 
HETATM   15  H   UNL     1     -45.367  55.295 -53.418  1.00  0.00     0.166 HD
HETATM   16  C   UNL     1     -43.878  56.555 -54.223  1.00  0.00     0.043 A 
HETATM   17  C   UNL     1     -42.515  56.644 -53.940  1.00  0.00     0.001 A 
HETATM   18  C   UNL     1     -44.517  57.361 -55.173  1.00  0.00     0.030 A 
HETATM   19  C   UNL     1     -41.757  57.603 -54.649  1.00  0.00     0.014 A 
HETATM   20  C   UNL     1     -42.378  58.416 -55.605  1.00  0.00     0.001 A 
HETATM   21  C   UNL     1     -43.740  58.294 -55.863  1.00  0.00     0.002 A 
ENDBRANCH   1  11
BRANCH   2  22
HETATM   22  C   UNL     1     -41.316  56.204 -49.966  1.00  0.00     0.229 C 
BRANCH  22  23
HETATM   23  C   UNL     1     -41.171  57.613 -50.543  1.00  0.00     0.235 C 
HETATM   24  N   UNL     1     -42.352  58.321 -50.665  1.00  0.00    -0.355 N 
HETATM   25  H   UNL     1     -43.212  57.793 -50.529  1.00  0.00     0.162 HD
HETATM   26  O   UNL     1     -40.097  58.019 -50.982  1.00  0.00    -0.272 OA
BRANCH  24  27
HETATM   27  C   UNL     1     -42.413  59.550 -51.450  1.00  0.00     0.084 C 
HETATM   28  C   UNL     1     -43.706  59.611 -52.277  1.00  0.00     0.025 C 
HETATM   29  C   UNL     1     -44.938  59.927 -51.429  1.00  0.00     0.002 C 
HETATM   30  C   UNL     1     -44.740  61.197 -50.609  1.00  0.00     0.000 C 
HETATM   31  C   UNL     1     -43.493  61.106 -49.736  1.00  0.00     0.002 C 
HETATM   32  C   UNL     1     -42.249  60.787 -50.561  1.00  0.00     0.025 C 
ENDBRANCH  24  27
ENDBRANCH  22  23
ENDBRANCH   2  22
TORSDOF 4
ENDMDL
MODEL 4
REMARK VINA RESULT:      -8.7      1.803      2.608
REMARK  4 active torsions:
REMARK  status: ('A' for Active; 'I' for Inactive)
REMARK    1  A    between atoms: C_7  and  C_8 
REMARK    2  A    between atoms: N_9  and  C_10 
REMARK    3  A    between atoms: C_10  and  C_11 
REMARK       I    between atoms: C_11  and  N_12 
REMARK    4  A    between atoms: N_12  and  C_13 
ROOT
HETATM    1  C   UNL     1     -43.643  56.344 -52.847  1.00  0.00     0.158 C 
HETATM    2  N   UNL     1     -43.694  56.218 -54.294  1.00  0.00    -0.326 N 
HETATM    3  C   UNL     1     -43.002  55.113 -54.745  1.00  0.00     0.255 C 
HETATM    4  O   UNL     1     -43.012  54.646 -55.868  1.00  0.00    -0.267 OA
HETATM    5  C   UNL     1     -42.275  54.564 -53.593  1.00  0.00     0.040 A 
HETATM    6  C   UNL     1     -42.622  55.309 -52.463  1.00  0.00    -0.015 A 
HETATM    7  C   UNL     1     -41.377  53.515 -53.555  1.00  0.00     0.017 A 
HETATM    8  C   UNL     1     -40.801  53.209 -52.322  1.00  0.00     0.001 A 
HETATM    9  C   UNL     1     -41.138  53.947 -51.173  1.00  0.00     0.001 A 
HETATM   10  C   UNL     1     -42.060  54.998 -51.235  1.00  0.00     0.011 A 
ENDROOT
BRANCH   1  11
HETATM   11  C   UNL     1     -43.148  57.677 -52.375  1.00  0.00     0.004 A 
HETATM   12  C   UNL     1     -41.900  58.217 -52.680  1.00  0.00     0.015 A 
HETATM   13  C   UNL     1     -40.786  57.690 -53.512  1.00  0.00     0.069 C 
HETATM   14  N   UNL     1     -41.792  59.425 -52.041  1.00  0.00    -0.359 N 
HETATM   15  H   UNL     1     -40.985  60.032 -52.075  1.00  0.00     0.166 HD
HETATM   16  C   UNL     1     -42.935  59.704 -51.336  1.00  0.00     0.043 A 
HETATM   17  C   UNL     1     -43.812  58.638 -51.530  1.00  0.00     0.001 A 
HETATM   18  C   UNL     1     -43.246  60.817 -50.544  1.00  0.00     0.030 A 
HETATM   19  C   UNL     1     -45.074  58.699 -50.899  1.00  0.00     0.014 A 
HETATM   20  C   UNL     1     -45.402  59.802 -50.101  1.00  0.00     0.001 A 
HETATM   21  C   UNL     1     -44.499  60.845 -49.926  1.00  0.00     0.002 A 
ENDBRANCH   1  11
BRANCH   2  22
HETATM   22  C   UNL     1     -44.546  57.049 -55.128  1.00  0.00     0.229 C 
BRANCH  22  23
HETATM   23  C   UNL     1     -43.915  57.474 -56.454  1.00  0.00     0.235 C 
HETATM   24  N   UNL     1     -44.528  56.966 -57.584  1.00  0.00    -0.355 N 
HETATM   25  H   UNL     1     -45.219  56.233 -57.433  1.00  0.00     0.162 HD
HETATM   26  O   UNL     1     -42.864  58.110 -56.490  1.00  0.00    -0.272 OA
BRANCH  24  27
HETATM   27  C   UNL     1     -43.882  57.047 -58.890  1.00  0.00     0.084 C 
HETATM   28  C   UNL     1     -43.221  55.711 -59.261  1.00  0.00     0.025 C 
HETATM   29  C   UNL     1     -44.233  54.643 -59.673  1.00  0.00     0.002 C 
HETATM   30  C   UNL     1     -45.148  55.141 -60.787  1.00  0.00     0.000 C 
HETATM   31  C   UNL     1     -45.857  56.431 -60.389  1.00  0.00     0.002 C 
HETATM   32  C   UNL     1     -44.865  57.513 -59.969  1.00  0.00     0.025 C 
ENDBRANCH  24  27
ENDBRANCH  22  23
ENDBRANCH   2  22
TORSDOF 4
ENDMDL
MODEL 5
REMARK VINA RESULT:      -8.6      2.734      6.207
REMARK  4 active torsions:
REMARK  status: ('A' for Active; 'I' for Inactive)
REMARK    1  A    between atoms: C_7  and  C_8 
REMARK    2  A    between atoms: N_9  and  C_10 
REMARK    3  A    between atoms: C_10  and  C_11 
REMARK       I    between atoms: C_11  and  N_12 
REMARK    4  A    between atoms: N_12  and  C_13 
ROOT
HETATM    1  C   UNL     1     -42.400  59.751 -52.109  1.00  0.00     0.158 C 
HETATM    2  N   UNL     1     -43.093  59.439 -53.348  1.00  0.00    -0.326 N 
HETATM    3  C   UNL     1     -44.356  59.990 -53.391  1.00  0.00     0.255 C 
HETATM    4  O   UNL     1     -45.099  60.057 -54.351  1.00  0.00    -0.267 OA
HETATM    5  C   UNL     1     -44.630  60.536 -52.055  1.00  0.00     0.040 A 
HETATM    6  C   UNL     1     -43.484  60.369 -51.273  1.00  0.00    -0.015 A 
HETATM    7  C   UNL     1     -45.792  61.108 -51.573  1.00  0.00     0.017 A 
HETATM    8  C   UNL     1     -45.797  61.525 -50.242  1.00  0.00     0.001 A 
HETATM    9  C   UNL     1     -44.653  61.367 -49.439  1.00  0.00     0.001 A 
HETATM   10  C   UNL     1     -43.484  60.794 -49.954  1.00  0.00     0.011 A 
ENDROOT
BRANCH   1  11
HETATM   11  C   UNL     1     -41.888  58.544 -51.385  1.00  0.00     0.004 A 
HETATM   12  C   UNL     1     -40.582  58.382 -50.928  1.00  0.00     0.015 A 
HETATM   13  C   UNL     1     -39.406  59.291 -50.994  1.00  0.00     0.069 C 
HETATM   14  N   UNL     1     -40.482  57.142 -50.354  1.00  0.00    -0.359 N 
HETATM   15  H   UNL     1     -39.642  56.753 -49.949  1.00  0.00     0.166 HD
HETATM   16  C   UNL     1     -41.685  56.485 -50.406  1.00  0.00     0.043 A 
HETATM   17  C   UNL     1     -42.593  57.336 -51.034  1.00  0.00     0.001 A 
HETATM   18  C   UNL     1     -42.025  55.207 -49.947  1.00  0.00     0.030 A 
HETATM   19  C   UNL     1     -43.919  56.877 -51.202  1.00  0.00     0.014 A 
HETATM   20  C   UNL     1     -44.277  55.600 -50.752  1.00  0.00     0.001 A 
HETATM   21  C   UNL     1     -43.341  54.777 -50.134  1.00  0.00     0.002 A 
ENDBRANCH   1  11
BRANCH   2  22
HETATM   22  C   UNL     1     -42.441  58.795 -54.476  1.00  0.00     0.229 C 
BRANCH  22  23
HETATM   23  C   UNL     1     -43.007  57.421 -54.836  1.00  0.00     0.235 C 
HETATM   24  N   UNL     1     -42.336  56.347 -54.280  1.00  0.00    -0.355 N 
HETATM   25  H   UNL     1     -41.443  56.553 -53.836  1.00  0.00     0.162 HD
HETATM   26  O   UNL     1     -43.908  57.294 -55.662  1.00  0.00    -0.272 OA
BRANCH  24  27
HETATM   27  C   UNL     1     -42.576  54.987 -54.751  1.00  0.00     0.084 C 
HETATM   28  C   UNL     1     -41.544  54.583 -55.816  1.00  0.00     0.025 C 
HETATM   29  C   UNL     1     -40.167  54.285 -55.224  1.00  0.00     0.002 C 
HETATM   30  C   UNL     1     -40.252  53.249 -54.108  1.00  0.00     0.000 C 
HETATM   31  C   UNL     1     -41.224  53.685 -53.017  1.00  0.00     0.002 C 
HETATM   32  C   UNL     1     -42.607  53.993 -53.585  1.00  0.00     0.025 C 
ENDBRANCH  24  27
ENDBRANCH  22  23
ENDBRANCH   2  22
TORSDOF 4
ENDMDL
MODEL 6
REMARK VINA RESULT:      -8.6      1.734      2.500
REMARK  4 active torsions:
REMARK  status: ('A' for Active; 'I' for Inactive)
REMARK    1  A    between atoms: C_7  and  C_8 
REMARK    2  A    between atoms: N_9  and  C_10 
REMARK    3  A    between atoms: C_10  and  C_11 
REMARK       I    between atoms: C_11  and  N_12 
REMARK    4  A    between atoms: N_12  and  C_13 
ROOT
HETATM    1  C   UNL     1     -42.551  55.996 -52.690  1.00  0.00     0.158 C 
HETATM    2  N   UNL     1     -41.697  56.038 -53.865  1.00  0.00    -0.326 N 
HETATM    3  C   UNL     1     -40.766  55.021 -53.869  1.00  0.00     0.255 C 
HETATM    4  O   UNL     1     -40.041  54.688 -54.788  1.00  0.00    -0.267 OA
HETATM    5  C   UNL     1     -40.839  54.369 -52.555  1.00  0.00     0.040 A 
HETATM    6  C   UNL     1     -41.876  54.963 -51.831  1.00  0.00    -0.015 A 
HETATM    7  C   UNL     1     -40.049  53.357 -52.044  1.00  0.00     0.017 A 
HETATM    8  C   UNL     1     -40.315  52.932 -50.742  1.00  0.00     0.001 A 
HETATM    9  C   UNL     1     -41.356  53.517 -49.997  1.00  0.00     0.001 A 
HETATM   10  C   UNL     1     -42.150  54.533 -50.543  1.00  0.00     0.011 A 
ENDROOT
BRANCH   1  11
HETATM   11  C   UNL     1     -42.584  57.283 -51.923  1.00  0.00     0.004 A 
HETATM   12  C   UNL     1     -43.744  57.961 -51.555  1.00  0.00     0.015 A 
HETATM   13  C   UNL     1     -45.178  57.630 -51.771  1.00  0.00     0.069 C 
HETATM   14  N   UNL     1     -43.377  59.111 -50.906  1.00  0.00    -0.359 N 
HETATM   15  H   UNL     1     -44.015  59.802 -50.538  1.00  0.00     0.166 HD
HETATM   16  C   UNL     1     -42.011  59.206 -50.823  1.00  0.00     0.043 A 
HETATM   17  C   UNL     1     -41.480  58.073 -51.439  1.00  0.00     0.001 A 
HETATM   18  C   UNL     1     -41.218  60.210 -50.253  1.00  0.00     0.030 A 
HETATM   19  C   UNL     1     -40.074  57.942 -51.475  1.00  0.00     0.014 A 
HETATM   20  C   UNL     1     -39.264  58.936 -50.913  1.00  0.00     0.001 A 
HETATM   21  C   UNL     1     -39.831  60.055 -50.311  1.00  0.00     0.002 A 
ENDBRANCH   1  11
BRANCH   2  22
HETATM   22  C   UNL     1     -41.944  56.927 -54.987  1.00  0.00     0.229 C 
BRANCH  22  23
HETATM   23  C   UNL     1     -42.577  56.252 -56.204  1.00  0.00     0.235 C 
HETATM   24  N   UNL     1     -42.355  56.890 -57.411  1.00  0.00    -0.355 N 
HETATM   25  H   UNL     1     -41.951  57.824 -57.360  1.00  0.00     0.162 HD
HETATM   26  O   UNL     1     -43.331  55.288 -56.084  1.00  0.00    -0.272 OA
BRANCH  24  27
HETATM   27  C   UNL     1     -43.120  56.532 -58.601  1.00  0.00     0.084 C 
HETATM   28  C   UNL     1     -44.387  57.392 -58.721  1.00  0.00     0.025 C 
HETATM   29  C   UNL     1     -44.092  58.823 -59.170  1.00  0.00     0.002 C 
HETATM   30  C   UNL     1     -43.279  58.847 -60.459  1.00  0.00     0.000 C 
HETATM   31  C   UNL     1     -41.986  58.050 -60.315  1.00  0.00     0.002 C 
HETATM   32  C   UNL     1     -42.255  56.617 -59.863  1.00  0.00     0.025 C 
ENDBRANCH  24  27
ENDBRANCH  22  23
ENDBRANCH   2  22
TORSDOF 4
ENDMDL
MODEL 7
REMARK VINA RESULT:      -8.5      2.838      6.214
REMARK  4 active torsions:
REMARK  status: ('A' for Active; 'I' for Inactive)
REMARK    1  A    between atoms: C_7  and  C_8 
REMARK    2  A    between atoms: N_9  and  C_10 
REMARK    3  A    between atoms: C_10  and  C_11 
REMARK       I    between atoms: C_11  and  N_12 
REMARK    4  A    between atoms: N_12  and  C_13 
ROOT
HETATM    1  C   UNL     1     -42.111  59.456 -51.769  1.00  0.00     0.158 C 
HETATM    2  N   UNL     1     -42.135  59.795 -53.183  1.00  0.00    -0.326 N 
HETATM    3  C   UNL     1     -42.660  61.049 -53.408  1.00  0.00     0.255 C 
HETATM    4  O   UNL     1     -42.647  61.678 -54.450  1.00  0.00    -0.267 OA
HETATM    5  C   UNL     1     -43.208  61.520 -52.129  1.00  0.00     0.040 A 
HETATM    6  C   UNL     1     -42.916  60.565 -51.152  1.00  0.00    -0.015 A 
HETATM    7  C   UNL     1     -43.914  62.678 -51.862  1.00  0.00     0.017 A 
HETATM    8  C   UNL     1     -44.348  62.874 -50.551  1.00  0.00     0.001 A 
HETATM    9  C   UNL     1     -44.063  61.925 -49.553  1.00  0.00     0.001 A 
HETATM   10  C   UNL     1     -43.336  60.765 -49.847  1.00  0.00     0.011 A 
ENDROOT
BRANCH   1  11
HETATM   11  C   UNL     1     -42.789  58.159 -51.449  1.00  0.00     0.004 A 
HETATM   12  C   UNL     1     -44.134  57.883 -51.687  1.00  0.00     0.015 A 
HETATM   13  C   UNL     1     -45.206  58.712 -52.301  1.00  0.00     0.069 C 
HETATM   14  N   UNL     1     -44.396  56.619 -51.228  1.00  0.00    -0.359 N 
HETATM   15  H   UNL     1     -45.296  56.162 -51.261  1.00  0.00     0.166 HD
HETATM   16  C   UNL     1     -43.263  56.047 -50.706  1.00  0.00     0.043 A 
HETATM   17  C   UNL     1     -42.233  56.978 -50.837  1.00  0.00     0.001 A 
HETATM   18  C   UNL     1     -43.085  54.784 -50.129  1.00  0.00     0.030 A 
HETATM   19  C   UNL     1     -40.952  56.612 -50.369  1.00  0.00     0.014 A 
HETATM   20  C   UNL     1     -40.754  55.354 -49.786  1.00  0.00     0.001 A 
HETATM   21  C   UNL     1     -41.808  54.454 -49.668  1.00  0.00     0.002 A 
ENDBRANCH   1  11
BRANCH   2  22
HETATM   22  C   UNL     1     -41.490  58.981 -54.199  1.00  0.00     0.229 C 
BRANCH  22  23
HETATM   23  C   UNL     1     -42.329  57.801 -54.692  1.00  0.00     0.235 C 
HETATM   24  N   UNL     1     -41.879  56.556 -54.293  1.00  0.00    -0.355 N 
HETATM   25  H   UNL     1     -40.955  56.524 -53.866  1.00  0.00     0.162 HD
HETATM   26  O   UNL     1     -43.251  57.957 -55.489  1.00  0.00    -0.272 OA
BRANCH  24  27
HETATM   27  C   UNL     1     -42.398  55.338 -54.908  1.00  0.00     0.084 C 
HETATM   28  C   UNL     1     -41.383  54.746 -55.898  1.00  0.00     0.025 C 
HETATM   29  C   UNL     1     -40.207  54.061 -55.202  1.00  0.00     0.002 C 
HETATM   30  C   UNL     1     -40.683  53.015 -54.200  1.00  0.00     0.000 C 
HETATM   31  C   UNL     1     -41.636  53.621 -53.175  1.00  0.00     0.002 C 
HETATM   32  C   UNL     1     -42.819  54.315 -53.847  1.00  0.00     0.025 C 
ENDBRANCH  24  27
ENDBRANCH  22  23
ENDBRANCH   2  22
TORSDOF 4
ENDMDL
MODEL 8
REMARK VINA RESULT:      -8.4      1.926      4.521
REMARK  4 active torsions:
REMARK  status: ('A' for Active; 'I' for Inactive)
REMARK    1  A    between atoms: C_7  and  C_8 
REMARK    2  A    between atoms: N_9  and  C_10 
REMARK    3  A    between atoms: C_10  and  C_11 
REMARK       I    between atoms: C_11  and  N_12 
REMARK    4  A    between atoms: N_12  and  C_13 
ROOT
HETATM    1  C   UNL     1     -42.007  57.420 -53.367  1.00  0.00     0.158 C 
HETATM    2  N   UNL     1     -43.457  57.522 -53.330  1.00  0.00    -0.326 N 
HETATM    3  C   UNL     1     -43.887  58.529 -52.492  1.00  0.00     0.255 C 
HETATM    4  O   UNL     1     -45.015  58.971 -52.390  1.00  0.00    -0.267 OA
HETATM    5  C   UNL     1     -42.706  59.013 -51.764  1.00  0.00     0.040 A 
HETATM    6  C   UNL     1     -41.586  58.336 -52.252  1.00  0.00    -0.015 A 
HETATM    7  C   UNL     1     -42.637  59.950 -50.751  1.00  0.00     0.017 A 
HETATM    8  C   UNL     1     -41.379  60.211 -50.206  1.00  0.00     0.001 A 
HETATM    9  C   UNL     1     -40.239  59.542 -50.685  1.00  0.00     0.001 A 
HETATM   10  C   UNL     1     -40.335  58.604 -51.720  1.00  0.00     0.011 A 
ENDROOT
BRANCH   1  11
HETATM   11  C   UNL     1     -41.492  56.048 -53.056  1.00  0.00     0.004 A 
HETATM   12  C   UNL     1     -41.101  55.109 -54.009  1.00  0.00     0.015 A 
HETATM   13  C   UNL     1     -41.060  55.185 -55.494  1.00  0.00     0.069 C 
HETATM   14  N   UNL     1     -40.729  53.966 -53.351  1.00  0.00    -0.359 N 
HETATM   15  H   UNL     1     -40.412  53.115 -53.795  1.00  0.00     0.166 HD
HETATM   16  C   UNL     1     -40.848  54.126 -51.994  1.00  0.00     0.043 A 
HETATM   17  C   UNL     1     -41.312  55.422 -51.770  1.00  0.00     0.001 A 
HETATM   18  C   UNL     1     -40.583  53.219 -50.961  1.00  0.00     0.030 A 
HETATM   19  C   UNL     1     -41.512  55.827 -50.432  1.00  0.00     0.014 A 
HETATM   20  C   UNL     1     -41.255  54.934 -49.385  1.00  0.00     0.001 A 
HETATM   21  C   UNL     1     -40.798  53.646 -49.649  1.00  0.00     0.002 A 
ENDBRANCH   1  11
BRANCH   2  22
HETATM   22  C   UNL     1     -44.322  56.779 -54.231  1.00  0.00     0.229 C 
BRANCH  22  23
HETATM   23  C   UNL     1     -44.613  57.486 -55.556  1.00  0.00     0.235 C 
HETATM   24  N   UNL     1     -44.036  56.904 -56.669  1.00  0.00    -0.355 N 
HETATM   25  H   UNL     1     -43.342  56.179 -56.492  1.00  0.00     0.162 HD
HETATM   26  O   UNL     1     -45.206  58.562 -55.593  1.00  0.00    -0.272 OA
BRANCH  24  27
HETATM   27  C   UNL     1     -43.985  57.611 -57.945  1.00  0.00     0.084 C 
HETATM   28  C   UNL     1     -42.677  57.308 -58.691  1.00  0.00     0.025 C 
HETATM   29  C   UNL     1     -42.656  55.909 -59.306  1.00  0.00     0.002 C 
HETATM   30  C   UNL     1     -43.872  55.672 -60.195  1.00  0.00     0.000 C 
HETATM   31  C   UNL     1     -45.171  55.905 -59.432  1.00  0.00     0.002 C 
HETATM   32  C   UNL     1     -45.214  57.296 -58.804  1.00  0.00     0.025 C 
ENDBRANCH  24  27
ENDBRANCH  22  23
ENDBRANCH   2  22
TORSDOF 4
ENDMDL
MODEL 9
REMARK VINA RESULT:      -8.3      2.363      3.585
REMARK  4 active torsions:
REMARK  status: ('A' for Active; 'I' for Inactive)
REMARK    1  A    between atoms: C_7  and  C_8 
REMARK    2  A    between atoms: N_9  and  C_10 
REMARK    3  A    between atoms: C_10  and  C_11 
REMARK       I    between atoms: C_11  and  N_12 
REMARK    4  A    between atoms: N_12  and  C_13 
ROOT
HETATM    1  C   UNL     1     -43.096  55.376 -52.110  1.00  0.00     0.158 C 
HETATM    2  N   UNL     1     -42.896  54.635 -53.345  1.00  0.00    -0.326 N 
HETATM    3  C   UNL     1     -41.889  53.700 -53.233  1.00  0.00     0.255 C 
HETATM    4  O   UNL     1     -41.612  52.818 -54.023  1.00  0.00    -0.267 OA
HETATM    5  C   UNL     1     -41.228  53.936 -51.943  1.00  0.00     0.040 A 
HETATM    6  C   UNL     1     -41.917  54.955 -51.280  1.00  0.00    -0.015 A 
HETATM    7  C   UNL     1     -40.110  53.318 -51.416  1.00  0.00     0.017 A 
HETATM    8  C   UNL     1     -39.666  53.753 -50.167  1.00  0.00     0.001 A 
HETATM    9  C   UNL     1     -40.347  54.776 -49.482  1.00  0.00     0.001 A 
HETATM   10  C   UNL     1     -41.485  55.378 -50.033  1.00  0.00     0.011 A 
ENDROOT
BRANCH   1  11
HETATM   11  C   UNL     1     -43.030  56.863 -52.283  1.00  0.00     0.004 A 
HETATM   12  C   UNL     1     -41.994  57.547 -52.915  1.00  0.00     0.015 A 
HETATM   13  C   UNL     1     -40.755  57.050 -53.572  1.00  0.00     0.069 C 
HETATM   14  N   UNL     1     -42.264  58.889 -52.843  1.00  0.00    -0.359 N 
HETATM   15  H   UNL     1     -41.674  59.623 -53.210  1.00  0.00     0.166 HD
HETATM   16  C   UNL     1     -43.453  59.111 -52.196  1.00  0.00     0.043 A 
HETATM   17  C   UNL     1     -43.968  57.865 -51.841  1.00  0.00     0.001 A 
HETATM   18  C   UNL     1     -44.098  60.318 -51.902  1.00  0.00     0.030 A 
HETATM   19  C   UNL     1     -45.205  57.834 -51.159  1.00  0.00     0.014 A 
HETATM   20  C   UNL     1     -45.864  59.032 -50.854  1.00  0.00     0.001 A 
HETATM   21  C   UNL     1     -45.315  60.256 -51.220  1.00  0.00     0.002 A 
ENDBRANCH   1  11
BRANCH   2  22
HETATM   22  C   UNL     1     -43.796  54.739 -54.481  1.00  0.00     0.229 C 
BRANCH  22  23
HETATM   23  C   UNL     1     -43.275  55.612 -55.623  1.00  0.00     0.235 C 
HETATM   24  N   UNL     1     -43.882  56.849 -55.740  1.00  0.00    -0.355 N 
HETATM   25  H   UNL     1     -44.721  56.995 -55.182  1.00  0.00     0.162 HD
HETATM   26  O   UNL     1     -42.470  55.180 -56.446  1.00  0.00    -0.272 OA
BRANCH  24  27
HETATM   27  C   UNL     1     -43.698  57.666 -56.935  1.00  0.00     0.084 C 
HETATM   28  C   UNL     1     -45.002  57.764 -57.742  1.00  0.00     0.025 C 
HETATM   29  C   UNL     1     -46.030  58.692 -57.096  1.00  0.00     0.002 C 
HETATM   30  C   UNL     1     -45.440  60.071 -56.819  1.00  0.00     0.000 C 
HETATM   31  C   UNL     1     -44.185  59.975 -55.958  1.00  0.00     0.002 C 
HETATM   32  C   UNL     1     -43.144  59.050 -56.582  1.00  0.00     0.025 C 
ENDBRANCH  24  27
ENDBRANCH  22  23
ENDBRANCH   2  22
TORSDOF 4
ENDMDL
MODEL 10
REMARK VINA RESULT:      -8.2      2.234      4.946
REMARK  4 active torsions:
REMARK  status: ('A' for Active; 'I' for Inactive)
REMARK    1  A    between atoms: C_7  and  C_8 
REMARK    2  A    between atoms: N_9  and  C_10 
REMARK    3  A    between atoms: C_10  and  C_11 
REMARK       I    between atoms: C_11  and  N_12 
REMARK    4  A    between atoms: N_12  and  C_13 
ROOT
HETATM    1  C   UNL     1     -42.368  57.650 -53.433  1.00  0.00     0.158 C 
HETATM    2  N   UNL     1     -43.734  58.083 -53.679  1.00  0.00    -0.326 N 
HETATM    3  C   UNL     1     -44.074  59.185 -52.923  1.00  0.00     0.255 C 
HETATM    4  O   UNL     1     -45.068  59.878 -53.036  1.00  0.00    -0.267 OA
HETATM    5  C   UNL     1     -42.979  59.405 -51.970  1.00  0.00     0.040 A 
HETATM    6  C   UNL     1     -41.972  58.475 -52.242  1.00  0.00    -0.015 A 
HETATM    7  C   UNL     1     -42.893  60.330 -50.946  1.00  0.00     0.017 A 
HETATM    8  C   UNL     1     -41.740  60.310 -50.161  1.00  0.00     0.001 A 
HETATM    9  C   UNL     1     -40.714  59.383 -50.420  1.00  0.00     0.001 A 
HETATM   10  C   UNL     1     -40.821  58.463 -51.470  1.00  0.00     0.011 A 
ENDROOT
BRANCH   1  11
HETATM   11  C   UNL     1     -42.254  56.206 -53.053  1.00  0.00     0.004 A 
HETATM   12  C   UNL     1     -42.893  55.615 -51.964  1.00  0.00     0.015 A 
HETATM   13  C   UNL     1     -43.821  56.185 -50.951  1.00  0.00     0.069 C 
HETATM   14  N   UNL     1     -42.518  54.298 -51.915  1.00  0.00    -0.359 N 
HETATM   15  H   UNL     1     -42.821  53.631 -51.218  1.00  0.00     0.166 HD
HETATM   16  C   UNL     1     -41.662  53.997 -52.944  1.00  0.00     0.043 A 
HETATM   17  C   UNL     1     -41.482  55.165 -53.685  1.00  0.00     0.001 A 
HETATM   18  C   UNL     1     -41.039  52.785 -53.262  1.00  0.00     0.030 A 
HETATM   19  C   UNL     1     -40.634  55.104 -54.813  1.00  0.00     0.014 A 
HETATM   20  C   UNL     1     -40.001  53.901 -55.146  1.00  0.00     0.001 A 
HETATM   21  C   UNL     1     -40.201  52.758 -54.379  1.00  0.00     0.002 A 
ENDBRANCH   1  11
BRANCH   2  22
HETATM   22  C   UNL     1     -44.555  57.535 -54.745  1.00  0.00     0.229 C 
BRANCH  22  23
HETATM   23  C   UNL     1     -43.852  57.434 -56.099  1.00  0.00     0.235 C 
HETATM   24  N   UNL     1     -43.795  58.613 -56.819  1.00  0.00    -0.355 N 
HETATM   25  H   UNL     1     -44.367  59.382 -56.473  1.00  0.00     0.162 HD
HETATM   26  O   UNL     1     -43.487  56.352 -56.554  1.00  0.00    -0.272 OA
BRANCH  24  27
HETATM   27  C   UNL     1     -43.417  58.615 -58.228  1.00  0.00     0.084 C 
HETATM   28  C   UNL     1     -44.287  59.594 -59.031  1.00  0.00     0.025 C 
HETATM   29  C   UNL     1     -43.916  61.056 -58.786  1.00  0.00     0.002 C 
HETATM   30  C   UNL     1     -42.431  61.303 -59.028  1.00  0.00     0.000 C 
HETATM   31  C   UNL     1     -41.568  60.378 -58.177  1.00  0.00     0.002 C 
HETATM   32  C   UNL     1     -41.923  58.910 -58.402  1.00  0.00     0.025 C 
ENDBRANCH  24  27
ENDBRANCH  22  23
ENDBRANCH   2  22
TORSDOF 4
ENDMDL
