MODEL 1
REMARK VINA RESULT:      -7.8      0.000      0.000
REMARK  3 active torsions:
REMARK  status: ('A' for Active; 'I' for Inactive)
REMARK    1  A    between atoms: C_7  and  C_8 
REMARK    2  A    between atoms: N_9  and  C_11 
REMARK    3  A    between atoms: C_11  and  C_12 
ROOT
HETATM    1  C   UNL     1     -43.135  57.697 -53.784  1.00  0.00     0.238 C 
HETATM    2  N   UNL     1     -42.488  56.562 -53.010  1.00  0.00    -0.056 N 
HETATM    3  H   UNL     1     -42.953  55.712 -53.347  1.00  0.00     0.281 HD
HETATM    4  C   UNL     1     -42.758  56.631 -51.523  1.00  0.00     0.236 C 
HETATM    5  C   UNL     1     -44.253  56.630 -51.257  1.00  0.00     0.028 C 
HETATM    6  C   UNL     1     -44.913  57.811 -51.949  1.00  0.00     0.004 C 
HETATM    7  C   UNL     1     -44.637  57.767 -53.443  1.00  0.00     0.040 C 
ENDROOT
BRANCH   2   8
HETATM    8  C   UNL     1     -41.009  56.339 -53.310  1.00  0.00     0.295 C 
BRANCH   8   9
HETATM    9  C   UNL     1     -40.653  54.975 -53.753  1.00  0.00     0.077 A 
HETATM   10  N   UNL     1     -40.363  53.904 -52.924  1.00  0.00    -0.155 N 
HETATM   11  C   UNL     1     -40.165  52.791 -53.747  1.00  0.00     0.732 A 
HETATM   12  C   UNL     1     -40.261  53.808 -51.539  1.00  0.00     0.117 A 
HETATM   13  N   UNL     1     -39.934  51.557 -53.221  1.00  0.00    -0.074 NA
HETATM   14  N   UNL     1     -40.220  53.144 -55.012  1.00  0.00    -0.072 NA
HETATM   15  C   UNL     1     -39.847  51.485 -51.930  1.00  0.00     0.138 A 
HETATM   16  C   UNL     1     -39.996  52.621 -50.977  1.00  0.00     0.038 A 
HETATM   17  C   UNL     1     -40.455  54.482 -55.028  1.00  0.00     0.164 A 
ENDBRANCH   8   9
ENDBRANCH   2   8
BRANCH   1  18
HETATM   18  C   UNL     1     -43.000  57.517 -55.265  1.00  0.00     0.041 A 
HETATM   19  N   UNL     1     -43.447  56.375 -55.899  1.00  0.00    -0.357 N 
HETATM   20  C   UNL     1     -43.177  56.438 -57.247  1.00  0.00     0.042 A 
HETATM   21  H   UNL     1     -43.893  55.579 -55.459  1.00  0.00     0.166 HD
HETATM   22  C   UNL     1     -42.508  57.635 -57.482  1.00  0.00    -0.008 A 
HETATM   23  C   UNL     1     -43.453  55.518 -58.265  1.00  0.00     0.030 A 
HETATM   24  C   UNL     1     -42.087  57.938 -58.790  1.00  0.00     0.014 A 
HETATM   25  C   UNL     1     -42.390  58.299 -56.231  1.00  0.00     0.040 A 
HETATM   26  C   UNL     1     -42.354  57.029 -59.820  1.00  0.00     0.001 A 
HETATM   27  C   UNL     1     -43.027  55.837 -59.558  1.00  0.00     0.002 A 
ENDBRANCH   1  18
TORSDOF 3
ENDMDL
MODEL 2
REMARK VINA RESULT:      -7.7      1.603      5.989
REMARK  3 active torsions:
REMARK  status: ('A' for Active; 'I' for Inactive)
REMARK    1  A    between atoms: C_7  and  C_8 
REMARK    2  A    between atoms: N_9  and  C_11 
REMARK    3  A    between atoms: C_11  and  C_12 
ROOT
HETATM    1  C   UNL     1     -43.065  56.372 -52.582  1.00  0.00     0.238 C 
HETATM    2  N   UNL     1     -42.316  57.691 -52.644  1.00  0.00    -0.056 N 
HETATM    3  H   UNL     1     -41.708  57.690 -51.818  1.00  0.00     0.281 HD
HETATM    4  C   UNL     1     -43.223  58.893 -52.502  1.00  0.00     0.236 C 
HETATM    5  C   UNL     1     -43.998  58.819 -51.197  1.00  0.00     0.028 C 
HETATM    6  C   UNL     1     -44.828  57.547 -51.148  1.00  0.00     0.004 C 
HETATM    7  C   UNL     1     -43.934  56.328 -51.308  1.00  0.00     0.040 C 
ENDROOT
BRANCH   2   8
HETATM    8  C   UNL     1     -41.364  57.835 -53.827  1.00  0.00     0.295 C 
BRANCH   8   9
HETATM    9  C   UNL     1     -41.963  58.401 -55.054  1.00  0.00     0.077 A 
HETATM   10  N   UNL     1     -42.460  57.674 -56.123  1.00  0.00    -0.155 N 
HETATM   11  C   UNL     1     -43.004  58.592 -57.025  1.00  0.00     0.732 A 
HETATM   12  C   UNL     1     -42.486  56.306 -56.377  1.00  0.00     0.117 A 
HETATM   13  N   UNL     1     -43.644  58.178 -58.154  1.00  0.00    -0.074 NA
HETATM   14  N   UNL     1     -42.780  59.821 -56.617  1.00  0.00    -0.072 NA
HETATM   15  C   UNL     1     -43.662  56.901 -58.373  1.00  0.00     0.138 A 
HETATM   16  C   UNL     1     -43.069  55.853 -57.496  1.00  0.00     0.038 A 
HETATM   17  C   UNL     1     -42.092  59.718 -55.449  1.00  0.00     0.164 A 
ENDBRANCH   8   9
ENDBRANCH   2   8
BRANCH   1  18
HETATM   18  C   UNL     1     -42.136  55.198 -52.553  1.00  0.00     0.041 A 
HETATM   19  N   UNL     1     -42.019  54.341 -53.629  1.00  0.00    -0.357 N 
HETATM   20  C   UNL     1     -41.132  53.329 -53.342  1.00  0.00     0.042 A 
HETATM   21  H   UNL     1     -42.518  54.408 -54.507  1.00  0.00     0.166 HD
HETATM   22  C   UNL     1     -40.693  53.519 -52.035  1.00  0.00    -0.008 A 
HETATM   23  C   UNL     1     -40.709  52.252 -54.129  1.00  0.00     0.030 A 
HETATM   24  C   UNL     1     -39.788  52.595 -51.477  1.00  0.00     0.014 A 
HETATM   25  C   UNL     1     -41.337  54.685 -51.544  1.00  0.00     0.040 A 
HETATM   26  C   UNL     1     -39.355  51.513 -52.251  1.00  0.00     0.001 A 
HETATM   27  C   UNL     1     -39.810  51.346 -53.557  1.00  0.00     0.002 A 
ENDBRANCH   1  18
TORSDOF 3
ENDMDL
MODEL 3
REMARK VINA RESULT:      -7.7      1.782      6.211
REMARK  3 active torsions:
REMARK  status: ('A' for Active; 'I' for Inactive)
REMARK    1  A    between atoms: C_7  and  C_8 
REMARK    2  A    between atoms: N_9  and  C_11 
REMARK    3  A    between atoms: C_11  and  C_12 
ROOT
HETATM    1  C   UNL     1     -41.847  56.661 -51.268  1.00  0.00     0.238 C 
HETATM    2  N   UNL     1     -42.598  57.504 -52.282  1.00  0.00    -0.056 N 
HETATM    3  H   UNL     1     -41.933  57.651 -53.050  1.00  0.00     0.281 HD
HETATM    4  C   UNL     1     -42.952  58.880 -51.761  1.00  0.00     0.236 C 
HETATM    5  C   UNL     1     -41.699  59.619 -51.325  1.00  0.00     0.028 C 
HETATM    6  C   UNL     1     -40.974  58.836 -50.243  1.00  0.00     0.004 C 
HETATM    7  C   UNL     1     -40.626  57.444 -50.744  1.00  0.00     0.040 C 
ENDROOT
BRANCH   2   8
HETATM    8  C   UNL     1     -43.795  56.817 -52.932  1.00  0.00     0.295 C 
BRANCH   8   9
HETATM    9  C   UNL     1     -44.267  57.429 -54.191  1.00  0.00     0.077 A 
HETATM   10  N   UNL     1     -43.893  57.046 -55.469  1.00  0.00    -0.155 N 
HETATM   11  C   UNL     1     -44.632  57.825 -56.363  1.00  0.00     0.732 A 
HETATM   12  C   UNL     1     -42.984  56.092 -55.917  1.00  0.00     0.117 A 
HETATM   13  N   UNL     1     -44.543  57.631 -57.708  1.00  0.00    -0.074 NA
HETATM   14  N   UNL     1     -45.347  58.713 -55.711  1.00  0.00    -0.072 NA
HETATM   15  C   UNL     1     -43.695  56.736 -58.108  1.00  0.00     0.138 A 
HETATM   16  C   UNL     1     -42.832  55.893 -57.234  1.00  0.00     0.038 A 
HETATM   17  C   UNL     1     -45.086  58.523 -54.391  1.00  0.00     0.164 A 
ENDBRANCH   8   9
ENDBRANCH   2   8
BRANCH   1  18
HETATM   18  C   UNL     1     -41.358  55.374 -51.858  1.00  0.00     0.041 A 
HETATM   19  N   UNL     1     -40.873  54.353 -51.066  1.00  0.00    -0.357 N 
HETATM   20  C   UNL     1     -40.456  53.298 -51.846  1.00  0.00     0.042 A 
HETATM   21  H   UNL     1     -40.801  54.358 -50.056  1.00  0.00     0.166 HD
HETATM   22  C   UNL     1     -40.645  53.663 -53.175  1.00  0.00    -0.008 A 
HETATM   23  C   UNL     1     -39.907  52.065 -51.475  1.00  0.00     0.030 A 
HETATM   24  C   UNL     1     -40.269  52.764 -54.191  1.00  0.00     0.014 A 
HETATM   25  C   UNL     1     -41.198  54.971 -53.174  1.00  0.00     0.040 A 
HETATM   26  C   UNL     1     -39.718  51.527 -53.838  1.00  0.00     0.001 A 
HETATM   27  C   UNL     1     -39.541  51.186 -52.498  1.00  0.00     0.002 A 
ENDBRANCH   1  18
TORSDOF 3
ENDMDL
MODEL 4
REMARK VINA RESULT:      -7.7      2.071      6.256
REMARK  3 active torsions:
REMARK  status: ('A' for Active; 'I' for Inactive)
REMARK    1  A    between atoms: C_7  and  C_8 
REMARK    2  A    between atoms: N_9  and  C_11 
REMARK    3  A    between atoms: C_11  and  C_12 
ROOT
HETATM    1  C   UNL     1     -42.110  56.175 -54.661  1.00  0.00     0.238 C 
HETATM    2  N   UNL     1     -43.527  56.373 -54.156  1.00  0.00    -0.056 N 
HETATM    3  H   UNL     1     -44.056  55.577 -54.530  1.00  0.00     0.281 HD
HETATM    4  C   UNL     1     -44.185  57.617 -54.714  1.00  0.00     0.236 C 
HETATM    5  C   UNL     1     -44.194  57.574 -56.232  1.00  0.00     0.028 C 
HETATM    6  C   UNL     1     -42.776  57.465 -56.766  1.00  0.00     0.004 C 
HETATM    7  C   UNL     1     -42.094  56.230 -56.202  1.00  0.00     0.040 C 
ENDROOT
BRANCH   2   8
HETATM    8  C   UNL     1     -43.693  56.272 -52.643  1.00  0.00     0.295 C 
BRANCH   8   9
HETATM    9  C   UNL     1     -43.690  57.561 -51.921  1.00  0.00     0.077 A 
HETATM   10  N   UNL     1     -42.572  58.205 -51.417  1.00  0.00    -0.155 N 
HETATM   11  C   UNL     1     -43.006  59.424 -50.888  1.00  0.00     0.732 A 
HETATM   12  C   UNL     1     -41.231  57.835 -51.382  1.00  0.00     0.117 A 
HETATM   13  N   UNL     1     -42.121  60.327 -50.381  1.00  0.00    -0.074 NA
HETATM   14  N   UNL     1     -44.315  59.510 -50.952  1.00  0.00    -0.072 NA
HETATM   15  C   UNL     1     -40.876  59.968 -50.359  1.00  0.00     0.138 A 
HETATM   16  C   UNL     1     -40.328  58.675 -50.855  1.00  0.00     0.038 A 
HETATM   17  C   UNL     1     -44.748  58.355 -51.522  1.00  0.00     0.164 A 
ENDBRANCH   8   9
ENDBRANCH   2   8
BRANCH   1  18
HETATM   18  C   UNL     1     -41.540  54.856 -54.235  1.00  0.00     0.041 A 
HETATM   19  N   UNL     1     -41.007  54.671 -52.976  1.00  0.00    -0.357 N 
HETATM   20  C   UNL     1     -40.521  53.390 -52.844  1.00  0.00     0.042 A 
HETATM   21  H   UNL     1     -40.948  55.364 -52.240  1.00  0.00     0.166 HD
HETATM   22  C   UNL     1     -40.714  52.745 -54.062  1.00  0.00    -0.008 A 
HETATM   23  C   UNL     1     -39.906  52.767 -51.752  1.00  0.00     0.030 A 
HETATM   24  C   UNL     1     -40.274  51.416 -54.209  1.00  0.00     0.014 A 
HETATM   25  C   UNL     1     -41.341  53.676 -54.932  1.00  0.00     0.040 A 
HETATM   26  C   UNL     1     -39.657  50.778 -53.127  1.00  0.00     0.001 A 
HETATM   27  C   UNL     1     -39.477  51.447 -51.918  1.00  0.00     0.002 A 
ENDBRANCH   1  18
TORSDOF 3
ENDMDL
MODEL 5
REMARK VINA RESULT:      -7.4      1.794      2.963
REMARK  3 active torsions:
REMARK  status: ('A' for Active; 'I' for Inactive)
REMARK    1  A    between atoms: C_7  and  C_8 
REMARK    2  A    between atoms: N_9  and  C_11 
REMARK    3  A    between atoms: C_11  and  C_12 
ROOT
HETATM    1  C   UNL     1     -42.578  57.253 -55.594  1.00  0.00     0.238 C 
HETATM    2  N   UNL     1     -43.502  57.032 -54.410  1.00  0.00    -0.056 N 
HETATM    3  H   UNL     1     -44.356  57.553 -54.639  1.00  0.00     0.281 HD
HETATM    4  C   UNL     1     -42.972  57.632 -53.126  1.00  0.00     0.236 C 
HETATM    5  C   UNL     1     -42.728  59.120 -53.299  1.00  0.00     0.028 C 
HETATM    6  C   UNL     1     -41.734  59.365 -54.423  1.00  0.00     0.004 C 
HETATM    7  C   UNL     1     -42.243  58.754 -55.718  1.00  0.00     0.040 C 
ENDROOT
BRANCH   2   8
HETATM    8  C   UNL     1     -43.966  55.592 -54.216  1.00  0.00     0.295 C 
BRANCH   8   9
HETATM    9  C   UNL     1     -43.187  54.804 -53.238  1.00  0.00     0.077 A 
HETATM   10  N   UNL     1     -42.064  54.044 -53.521  1.00  0.00    -0.155 N 
HETATM   11  C   UNL     1     -41.595  53.538 -52.305  1.00  0.00     0.732 A 
HETATM   12  C   UNL     1     -41.419  53.760 -54.721  1.00  0.00     0.117 A 
HETATM   13  N   UNL     1     -40.449  52.806 -52.241  1.00  0.00    -0.074 NA
HETATM   14  N   UNL     1     -42.414  53.862 -51.330  1.00  0.00    -0.072 NA
HETATM   15  C   UNL     1     -39.859  52.554 -53.367  1.00  0.00     0.138 A 
HETATM   16  C   UNL     1     -40.309  53.009 -54.713  1.00  0.00     0.038 A 
HETATM   17  C   UNL     1     -43.420  54.580 -51.896  1.00  0.00     0.164 A 
ENDBRANCH   8   9
ENDBRANCH   2   8
BRANCH   1  18
HETATM   18  C   UNL     1     -43.196  56.805 -56.882  1.00  0.00     0.041 A 
HETATM   19  N   UNL     1     -44.360  57.371 -57.362  1.00  0.00    -0.357 N 
HETATM   20  C   UNL     1     -44.739  56.765 -58.538  1.00  0.00     0.042 A 
HETATM   21  H   UNL     1     -44.892  58.113 -56.923  1.00  0.00     0.166 HD
HETATM   22  C   UNL     1     -43.816  55.759 -58.804  1.00  0.00    -0.008 A 
HETATM   23  C   UNL     1     -45.839  57.015 -59.367  1.00  0.00     0.030 A 
HETATM   24  C   UNL     1     -43.989  54.957 -59.948  1.00  0.00     0.014 A 
HETATM   25  C   UNL     1     -42.859  55.783 -57.754  1.00  0.00     0.040 A 
HETATM   26  C   UNL     1     -45.083  55.193 -60.787  1.00  0.00     0.001 A 
HETATM   27  C   UNL     1     -45.993  56.208 -60.498  1.00  0.00     0.002 A 
ENDBRANCH   1  18
TORSDOF 3
ENDMDL
MODEL 6
REMARK VINA RESULT:      -7.4      1.499      1.902
REMARK  3 active torsions:
REMARK  status: ('A' for Active; 'I' for Inactive)
REMARK    1  A    between atoms: C_7  and  C_8 
REMARK    2  A    between atoms: N_9  and  C_11 
REMARK    3  A    between atoms: C_11  and  C_12 
ROOT
HETATM    1  C   UNL     1     -41.966  57.272 -54.834  1.00  0.00     0.238 C 
HETATM    2  N   UNL     1     -42.696  56.685 -53.640  1.00  0.00    -0.056 N 
HETATM    3  H   UNL     1     -43.597  57.176 -53.612  1.00  0.00     0.281 HD
HETATM    4  C   UNL     1     -42.011  56.982 -52.324  1.00  0.00     0.236 C 
HETATM    5  C   UNL     1     -41.862  58.481 -52.132  1.00  0.00     0.028 C 
HETATM    6  C   UNL     1     -41.055  59.081 -53.272  1.00  0.00     0.004 C 
HETATM    7  C   UNL     1     -41.720  58.777 -54.605  1.00  0.00     0.040 C 
ENDROOT
BRANCH   2   8
HETATM    8  C   UNL     1     -43.063  55.210 -53.771  1.00  0.00     0.295 C 
BRANCH   8   9
HETATM    9  C   UNL     1     -41.917  54.279 -53.840  1.00  0.00     0.077 A 
HETATM   10  N   UNL     1     -41.342  53.620 -52.766  1.00  0.00    -0.155 N 
HETATM   11  C   UNL     1     -40.349  52.783 -53.283  1.00  0.00     0.732 A 
HETATM   12  C   UNL     1     -41.603  53.679 -51.400  1.00  0.00     0.117 A 
HETATM   13  N   UNL     1     -39.648  51.939 -52.476  1.00  0.00    -0.074 NA
HETATM   14  N   UNL     1     -40.225  52.968 -54.578  1.00  0.00    -0.072 NA
HETATM   15  C   UNL     1     -39.906  52.004 -51.208  1.00  0.00     0.138 A 
HETATM   16  C   UNL     1     -40.909  52.896 -50.562  1.00  0.00     0.038 A 
HETATM   17  C   UNL     1     -41.131  53.922 -54.918  1.00  0.00     0.164 A 
ENDBRANCH   8   9
ENDBRANCH   2   8
BRANCH   1  18
HETATM   18  C   UNL     1     -42.745  57.115 -56.103  1.00  0.00     0.041 A 
HETATM   19  N   UNL     1     -42.280  56.342 -57.148  1.00  0.00    -0.357 N 
HETATM   20  C   UNL     1     -43.157  56.388 -58.207  1.00  0.00     0.042 A 
HETATM   21  H   UNL     1     -41.410  55.823 -57.170  1.00  0.00     0.166 HD
HETATM   22  C   UNL     1     -44.197  57.240 -57.849  1.00  0.00    -0.008 A 
HETATM   23  C   UNL     1     -43.094  55.761 -59.457  1.00  0.00     0.030 A 
HETATM   24  C   UNL     1     -45.228  57.487 -58.775  1.00  0.00     0.014 A 
HETATM   25  C   UNL     1     -43.924  57.701 -56.534  1.00  0.00     0.040 A 
HETATM   26  C   UNL     1     -45.181  56.869 -60.029  1.00  0.00     0.001 A 
HETATM   27  C   UNL     1     -44.128  56.019 -60.363  1.00  0.00     0.002 A 
ENDBRANCH   1  18
TORSDOF 3
ENDMDL
MODEL 7
REMARK VINA RESULT:      -7.4      2.805      6.490
REMARK  3 active torsions:
REMARK  status: ('A' for Active; 'I' for Inactive)
REMARK    1  A    between atoms: C_7  and  C_8 
REMARK    2  A    between atoms: N_9  and  C_11 
REMARK    3  A    between atoms: C_11  and  C_12 
ROOT
HETATM    1  C   UNL     1     -41.878  57.554 -51.110  1.00  0.00     0.238 C 
HETATM    2  N   UNL     1     -42.914  58.480 -51.721  1.00  0.00    -0.056 N 
HETATM    3  H   UNL     1     -42.483  58.827 -52.585  1.00  0.00     0.281 HD
HETATM    4  C   UNL     1     -43.193  59.699 -50.868  1.00  0.00     0.236 C 
HETATM    5  C   UNL     1     -41.911  60.475 -50.620  1.00  0.00     0.028 C 
HETATM    6  C   UNL     1     -40.886  59.593 -49.927  1.00  0.00     0.004 C 
HETATM    7  C   UNL     1     -40.607  58.354 -50.761  1.00  0.00     0.040 C 
ENDROOT
BRANCH   2   8
HETATM    8  C   UNL     1     -44.200  57.798 -52.175  1.00  0.00     0.295 C 
BRANCH   8   9
HETATM    9  C   UNL     1     -44.584  58.047 -53.581  1.00  0.00     0.077 A 
HETATM   10  N   UNL     1     -45.101  59.230 -54.082  1.00  0.00    -0.155 N 
HETATM   11  C   UNL     1     -45.244  59.063 -55.462  1.00  0.00     0.732 A 
HETATM   12  C   UNL     1     -45.449  60.424 -53.457  1.00  0.00     0.117 A 
HETATM   13  N   UNL     1     -45.662  60.086 -56.258  1.00  0.00    -0.074 NA
HETATM   14  N   UNL     1     -44.941  57.831 -55.806  1.00  0.00    -0.072 NA
HETATM   15  C   UNL     1     -45.979  61.191 -55.659  1.00  0.00     0.138 A 
HETATM   16  C   UNL     1     -45.905  61.447 -54.194  1.00  0.00     0.038 A 
HETATM   17  C   UNL     1     -44.598  57.186 -54.660  1.00  0.00     0.164 A 
ENDBRANCH   8   9
ENDBRANCH   2   8
BRANCH   1  18
HETATM   18  C   UNL     1     -41.492  56.448 -52.043  1.00  0.00     0.041 A 
HETATM   19  N   UNL     1     -41.318  55.153 -51.598  1.00  0.00    -0.357 N 
HETATM   20  C   UNL     1     -40.934  54.336 -52.636  1.00  0.00     0.042 A 
HETATM   21  H   UNL     1     -41.429  54.825 -50.646  1.00  0.00     0.166 HD
HETATM   22  C   UNL     1     -40.823  55.132 -53.772  1.00  0.00    -0.008 A 
HETATM   23  C   UNL     1     -40.653  52.965 -52.648  1.00  0.00     0.030 A 
HETATM   24  C   UNL     1     -40.412  54.543 -54.983  1.00  0.00     0.014 A 
HETATM   25  C   UNL     1     -41.163  56.457 -53.388  1.00  0.00     0.040 A 
HETATM   26  C   UNL     1     -40.127  53.173 -55.012  1.00  0.00     0.001 A 
HETATM   27  C   UNL     1     -40.247  52.398 -53.860  1.00  0.00     0.002 A 
ENDBRANCH   1  18
TORSDOF 3
ENDMDL
MODEL 8
REMARK VINA RESULT:      -7.3      1.864      6.420
REMARK  3 active torsions:
REMARK  status: ('A' for Active; 'I' for Inactive)
REMARK    1  A    between atoms: C_7  and  C_8 
REMARK    2  A    between atoms: N_9  and  C_11 
REMARK    3  A    between atoms: C_11  and  C_12 
ROOT
HETATM    1  C   UNL     1     -41.717  55.775 -51.369  1.00  0.00     0.238 C 
HETATM    2  N   UNL     1     -42.229  56.488 -52.608  1.00  0.00    -0.056 N 
HETATM    3  H   UNL     1     -41.414  56.562 -53.227  1.00  0.00     0.281 HD
HETATM    4  C   UNL     1     -42.680  57.905 -52.330  1.00  0.00     0.236 C 
HETATM    5  C   UNL     1     -41.546  58.711 -51.721  1.00  0.00     0.028 C 
HETATM    6  C   UNL     1     -41.075  58.066 -50.429  1.00  0.00     0.004 C 
HETATM    7  C   UNL     1     -40.634  56.634 -50.686  1.00  0.00     0.040 C 
ENDROOT
BRANCH   2   8
HETATM    8  C   UNL     1     -43.261  55.711 -53.418  1.00  0.00     0.295 C 
BRANCH   8   9
HETATM    9  C   UNL     1     -43.222  55.942 -54.877  1.00  0.00     0.077 A 
HETATM   10  N   UNL     1     -43.968  56.882 -55.569  1.00  0.00    -0.155 N 
HETATM   11  C   UNL     1     -43.565  56.821 -56.907  1.00  0.00     0.732 A 
HETATM   12  C   UNL     1     -44.948  57.776 -55.147  1.00  0.00     0.117 A 
HETATM   13  N   UNL     1     -44.066  57.683 -57.834  1.00  0.00    -0.074 NA
HETATM   14  N   UNL     1     -42.703  55.845 -57.079  1.00  0.00    -0.072 NA
HETATM   15  C   UNL     1     -44.974  58.511 -57.423  1.00  0.00     0.138 A 
HETATM   16  C   UNL     1     -45.499  58.617 -56.033  1.00  0.00     0.038 A 
HETATM   17  C   UNL     1     -42.533  55.263 -55.863  1.00  0.00     0.164 A 
ENDBRANCH   8   9
ENDBRANCH   2   8
BRANCH   1  18
HETATM   18  C   UNL     1     -41.119  54.441 -51.694  1.00  0.00     0.041 A 
HETATM   19  N   UNL     1     -40.979  54.009 -52.997  1.00  0.00    -0.357 N 
HETATM   20  C   UNL     1     -40.438  52.744 -53.028  1.00  0.00     0.042 A 
HETATM   21  H   UNL     1     -41.246  54.518 -53.831  1.00  0.00     0.166 HD
HETATM   22  C   UNL     1     -40.258  52.337 -51.710  1.00  0.00    -0.008 A 
HETATM   23  C   UNL     1     -40.121  51.925 -54.118  1.00  0.00     0.030 A 
HETATM   24  C   UNL     1     -39.739  51.053 -51.455  1.00  0.00     0.014 A 
HETATM   25  C   UNL     1     -40.700  53.402 -50.880  1.00  0.00     0.040 A 
HETATM   26  C   UNL     1     -39.416  50.222 -52.534  1.00  0.00     0.001 A 
HETATM   27  C   UNL     1     -39.605  50.655 -53.845  1.00  0.00     0.002 A 
ENDBRANCH   1  18
TORSDOF 3
ENDMDL
MODEL 9
REMARK VINA RESULT:      -7.3      1.800      4.584
REMARK  3 active torsions:
REMARK  status: ('A' for Active; 'I' for Inactive)
REMARK    1  A    between atoms: C_7  and  C_8 
REMARK    2  A    between atoms: N_9  and  C_11 
REMARK    3  A    between atoms: C_11  and  C_12 
ROOT
HETATM    1  C   UNL     1     -42.112  54.104 -54.488  1.00  0.00     0.238 C 
HETATM    2  N   UNL     1     -42.191  54.723 -53.104  1.00  0.00    -0.056 N 
HETATM    3  H   UNL     1     -41.499  55.480 -53.112  1.00  0.00     0.281 HD
HETATM    4  C   UNL     1     -41.766  53.772 -52.006  1.00  0.00     0.236 C 
HETATM    5  C   UNL     1     -40.352  53.278 -52.254  1.00  0.00     0.028 C 
HETATM    6  C   UNL     1     -40.266  52.574 -53.597  1.00  0.00     0.004 C 
HETATM    7  C   UNL     1     -40.707  53.509 -54.711  1.00  0.00     0.040 C 
ENDROOT
BRANCH   2   8
HETATM    8  C   UNL     1     -43.514  55.410 -52.780  1.00  0.00     0.295 C 
BRANCH   8   9
HETATM    9  C   UNL     1     -43.464  56.886 -52.736  1.00  0.00     0.077 A 
HETATM   10  N   UNL     1     -42.599  57.645 -51.966  1.00  0.00    -0.155 N 
HETATM   11  C   UNL     1     -42.833  58.986 -52.287  1.00  0.00     0.732 A 
HETATM   12  C   UNL     1     -41.638  57.282 -51.027  1.00  0.00     0.117 A 
HETATM   13  N   UNL     1     -42.079  59.982 -51.746  1.00  0.00    -0.074 NA
HETATM   14  N   UNL     1     -43.843  59.085 -53.122  1.00  0.00    -0.072 NA
HETATM   15  C   UNL     1     -41.186  59.626 -50.878  1.00  0.00     0.138 A 
HETATM   16  C   UNL     1     -40.898  58.232 -50.438  1.00  0.00     0.038 A 
HETATM   17  C   UNL     1     -44.275  57.818 -53.354  1.00  0.00     0.164 A 
ENDBRANCH   8   9
ENDBRANCH   2   8
BRANCH   1  18
HETATM   18  C   UNL     1     -42.371  55.107 -55.569  1.00  0.00     0.041 A 
HETATM   19  N   UNL     1     -43.142  54.801 -56.672  1.00  0.00    -0.357 N 
HETATM   20  C   UNL     1     -43.200  55.874 -57.531  1.00  0.00     0.042 A 
HETATM   21  H   UNL     1     -43.595  53.915 -56.860  1.00  0.00     0.166 HD
HETATM   22  C   UNL     1     -42.417  56.887 -56.984  1.00  0.00    -0.008 A 
HETATM   23  C   UNL     1     -43.863  56.014 -58.756  1.00  0.00     0.030 A 
HETATM   24  C   UNL     1     -42.281  58.100 -57.685  1.00  0.00     0.014 A 
HETATM   25  C   UNL     1     -41.892  56.393 -55.761  1.00  0.00     0.040 A 
HETATM   26  C   UNL     1     -42.937  58.256 -58.911  1.00  0.00     0.001 A 
HETATM   27  C   UNL     1     -43.715  57.226 -59.436  1.00  0.00     0.002 A 
ENDBRANCH   1  18
TORSDOF 3
ENDMDL
MODEL 10
REMARK VINA RESULT:      -7.3      1.756      5.217
REMARK  3 active torsions:
REMARK  status: ('A' for Active; 'I' for Inactive)
REMARK    1  A    between atoms: C_7  and  C_8 
REMARK    2  A    between atoms: N_9  and  C_11 
REMARK    3  A    between atoms: C_11  and  C_12 
ROOT
HETATM    1  C   UNL     1     -42.147  54.165 -54.698  1.00  0.00     0.238 C 
HETATM    2  N   UNL     1     -42.267  54.719 -53.290  1.00  0.00    -0.056 N 
HETATM    3  H   UNL     1     -41.593  55.492 -53.250  1.00  0.00     0.281 HD
HETATM    4  C   UNL     1     -41.840  53.730 -52.227  1.00  0.00     0.236 C 
HETATM    5  C   UNL     1     -40.409  53.280 -52.469  1.00  0.00     0.028 C 
HETATM    6  C   UNL     1     -40.281  52.640 -53.840  1.00  0.00     0.004 C 
HETATM    7  C   UNL     1     -40.724  53.614 -54.920  1.00  0.00     0.040 C 
ENDROOT
BRANCH   2   8
HETATM    8  C   UNL     1     -43.612  55.360 -52.962  1.00  0.00     0.295 C 
BRANCH   8   9
HETATM    9  C   UNL     1     -43.549  56.770 -52.524  1.00  0.00     0.077 A 
HETATM   10  N   UNL     1     -44.109  57.850 -53.185  1.00  0.00    -0.155 N 
HETATM   11  C   UNL     1     -43.887  58.978 -52.389  1.00  0.00     0.732 A 
HETATM   12  C   UNL     1     -44.790  57.940 -54.396  1.00  0.00     0.117 A 
HETATM   13  N   UNL     1     -44.389  60.195 -52.735  1.00  0.00    -0.074 NA
HETATM   14  N   UNL     1     -43.148  58.663 -51.349  1.00  0.00    -0.072 NA
HETATM   15  C   UNL     1     -45.024  60.260 -53.863  1.00  0.00     0.138 A 
HETATM   16  C   UNL     1     -45.268  59.125 -54.797  1.00  0.00     0.038 A 
HETATM   17  C   UNL     1     -42.884  57.335 -51.453  1.00  0.00     0.164 A 
ENDBRANCH   8   9
ENDBRANCH   2   8
BRANCH   1  18
HETATM   18  C   UNL     1     -42.410  55.210 -55.738  1.00  0.00     0.041 A 
HETATM   19  N   UNL     1     -43.198  54.952 -56.841  1.00  0.00    -0.357 N 
HETATM   20  C   UNL     1     -43.256  56.057 -57.659  1.00  0.00     0.042 A 
HETATM   21  H   UNL     1     -43.662  54.078 -57.056  1.00  0.00     0.166 HD
HETATM   22  C   UNL     1     -42.456  57.041 -57.086  1.00  0.00    -0.008 A 
HETATM   23  C   UNL     1     -43.932  56.248 -58.870  1.00  0.00     0.030 A 
HETATM   24  C   UNL     1     -42.316  58.278 -57.744  1.00  0.00     0.014 A 
HETATM   25  C   UNL     1     -41.919  56.497 -55.889  1.00  0.00     0.040 A 
HETATM   26  C   UNL     1     -42.986  58.485 -58.955  1.00  0.00     0.001 A 
HETATM   27  C   UNL     1     -43.782  57.483 -59.507  1.00  0.00     0.002 A 
ENDBRANCH   1  18
TORSDOF 3
ENDMDL
