MODEL 1
REMARK VINA RESULT:      -8.5      0.000      0.000
REMARK  4 active torsions:
REMARK  status: ('A' for Active; 'I' for Inactive)
REMARK    1  A    between atoms: C_6  and  C_7 
REMARK    2  A    between atoms: C_7  and  N_8 
REMARK    3  A    between atoms: C_11  and  C_12 
REMARK    4  A    between atoms: C_12  and  C_13 
ROOT
HETATM    1  N   UNL     1     -42.820  57.438 -53.246  1.00  0.00    -0.064 N 
HETATM    2  H   UNL     1     -43.375  56.815 -53.858  1.00  0.00     0.280 HD
HETATM    3  C   UNL     1     -41.662  56.601 -52.736  1.00  0.00     0.247 C 
HETATM    4  C   UNL     1     -42.205  55.406 -51.945  1.00  0.00     0.086 C 
HETATM    5  C   UNL     1     -43.091  55.898 -50.797  1.00  0.00     0.016 C 
HETATM    6  C   UNL     1     -44.213  56.795 -51.314  1.00  0.00     0.029 C 
HETATM    7  C   UNL     1     -43.685  57.959 -52.141  1.00  0.00     0.235 C 
ENDROOT
BRANCH   1   8
HETATM    8  C   UNL     1     -42.362  58.522 -54.209  1.00  0.00     0.313 C 
BRANCH   8   9
HETATM    9  C   UNL     1     -42.451  58.021 -55.609  1.00  0.00     0.131 A 
HETATM   10  N   UNL     1     -42.935  56.841 -55.951  1.00  0.00    -0.232 NA
HETATM   11  C   UNL     1     -42.803  56.777 -57.319  1.00  0.00     0.085 A 
HETATM   12  C   UNL     1     -42.257  57.956 -57.817  1.00  0.00     0.062 A 
HETATM   13  C   UNL     1     -43.124  55.741 -58.206  1.00  0.00     0.034 A 
HETATM   14  C   UNL     1     -42.018  58.175 -59.174  1.00  0.00     0.032 A 
HETATM   15  N   UNL     1     -42.047  58.737 -56.708  1.00  0.00    -0.341 N 
HETATM   16  C   UNL     1     -42.345  57.130 -60.046  1.00  0.00     0.002 A 
HETATM   17  C   UNL     1     -42.887  55.932 -59.574  1.00  0.00     0.002 A 
HETATM   18  H   UNL     1     -41.653  59.668 -56.724  1.00  0.00     0.167 HD
ENDBRANCH   8   9
ENDBRANCH   1   8
BRANCH   4  19
HETATM   19  C   UNL     1     -41.018  54.620 -51.410  1.00  0.00     0.165 C 
HETATM   20  O   UNL     1     -40.436  55.003 -50.396  1.00  0.00    -0.292 OA
BRANCH  19  21
HETATM   21  C   UNL     1     -40.550  53.382 -52.107  1.00  0.00     0.012 A 
HETATM   22  C   UNL     1     -40.126  52.305 -51.316  1.00  0.00     0.039 A 
HETATM   23  C   UNL     1     -39.677  51.130 -51.916  1.00  0.00     0.035 A 
HETATM   24 CL   UNL     1     -39.152  49.817 -50.936  1.00  0.00    -0.084 Cl
HETATM   25  C   UNL     1     -39.648  51.011 -53.303  1.00  0.00     0.024 A 
HETATM   26  C   UNL     1     -40.069  52.076 -54.096  1.00  0.00     0.003 A 
HETATM   27  C   UNL     1     -40.517  53.260 -53.504  1.00  0.00     0.015 A 
ENDBRANCH  19  21
ENDBRANCH   4  19
TORSDOF 4
ENDMDL
MODEL 2
REMARK VINA RESULT:      -8.5      1.577      2.167
REMARK  4 active torsions:
REMARK  status: ('A' for Active; 'I' for Inactive)
REMARK    1  A    between atoms: C_6  and  C_7 
REMARK    2  A    between atoms: C_7  and  N_8 
REMARK    3  A    between atoms: C_11  and  C_12 
REMARK    4  A    between atoms: C_12  and  C_13 
ROOT
HETATM    1  N   UNL     1     -42.161  56.114 -53.330  1.00  0.00    -0.064 N 
HETATM    2  H   UNL     1     -42.659  55.439 -53.935  1.00  0.00     0.280 HD
HETATM    3  C   UNL     1     -41.008  55.348 -52.710  1.00  0.00     0.247 C 
HETATM    4  C   UNL     1     -41.555  54.181 -51.883  1.00  0.00     0.086 C 
HETATM    5  C   UNL     1     -42.521  54.703 -50.816  1.00  0.00     0.016 C 
HETATM    6  C   UNL     1     -43.640  55.530 -51.444  1.00  0.00     0.029 C 
HETATM    7  C   UNL     1     -43.104  56.665 -52.305  1.00  0.00     0.235 C 
ENDROOT
BRANCH   1   8
HETATM    8  C   UNL     1     -41.685  57.160 -54.326  1.00  0.00     0.313 C 
BRANCH   8   9
HETATM    9  C   UNL     1     -42.425  57.007 -55.608  1.00  0.00     0.131 A 
HETATM   10  N   UNL     1     -43.366  57.831 -56.030  1.00  0.00    -0.232 NA
HETATM   11  C   UNL     1     -43.798  57.308 -57.228  1.00  0.00     0.085 A 
HETATM   12  C   UNL     1     -43.081  56.160 -57.550  1.00  0.00     0.062 A 
HETATM   13  C   UNL     1     -44.803  57.756 -58.095  1.00  0.00     0.034 A 
HETATM   14  C   UNL     1     -43.301  55.423 -58.715  1.00  0.00     0.032 A 
HETATM   15  N   UNL     1     -42.207  55.991 -56.506  1.00  0.00    -0.341 N 
HETATM   16  C   UNL     1     -44.307  55.885 -59.570  1.00  0.00     0.002 A 
HETATM   17  C   UNL     1     -45.049  57.030 -59.268  1.00  0.00     0.002 A 
HETATM   18  H   UNL     1     -41.537  55.237 -56.430  1.00  0.00     0.167 HD
ENDBRANCH   8   9
ENDBRANCH   1   8
BRANCH   4  19
HETATM   19  C   UNL     1     -40.376  53.468 -51.240  1.00  0.00     0.165 C 
HETATM   20  O   UNL     1     -39.639  54.077 -50.466  1.00  0.00    -0.292 OA
BRANCH  19  21
HETATM   21  C   UNL     1     -40.103  52.028 -51.541  1.00  0.00     0.012 A 
HETATM   22  C   UNL     1     -39.931  51.660 -52.882  1.00  0.00     0.039 A 
HETATM   23  C   UNL     1     -39.678  50.331 -53.217  1.00  0.00     0.035 A 
HETATM   24 CL   UNL     1     -39.476  49.889 -54.867  1.00  0.00    -0.084 Cl
HETATM   25  C   UNL     1     -39.590  49.357 -52.226  1.00  0.00     0.024 A 
HETATM   26  C   UNL     1     -39.759  49.715 -50.890  1.00  0.00     0.003 A 
HETATM   27  C   UNL     1     -40.017  51.044 -50.545  1.00  0.00     0.015 A 
ENDBRANCH  19  21
ENDBRANCH   4  19
TORSDOF 4
ENDMDL
MODEL 3
REMARK VINA RESULT:      -8.5      1.405      2.075
REMARK  4 active torsions:
REMARK  status: ('A' for Active; 'I' for Inactive)
REMARK    1  A    between atoms: C_6  and  C_7 
REMARK    2  A    between atoms: C_7  and  N_8 
REMARK    3  A    between atoms: C_11  and  C_12 
REMARK    4  A    between atoms: C_12  and  C_13 
ROOT
HETATM    1  N   UNL     1     -43.515  55.985 -53.457  1.00  0.00    -0.064 N 
HETATM    2  H   UNL     1     -44.241  55.334 -53.803  1.00  0.00     0.280 HD
HETATM    3  C   UNL     1     -42.188  55.424 -53.931  1.00  0.00     0.247 C 
HETATM    4  C   UNL     1     -41.986  54.024 -53.340  1.00  0.00     0.086 C 
HETATM    5  C   UNL     1     -42.057  54.085 -51.812  1.00  0.00     0.016 C 
HETATM    6  C   UNL     1     -43.367  54.716 -51.347  1.00  0.00     0.029 C 
HETATM    7  C   UNL     1     -43.598  56.087 -51.965  1.00  0.00     0.235 C 
ENDROOT
BRANCH   1   8
HETATM    8  C   UNL     1     -43.872  57.282 -54.165  1.00  0.00     0.313 C 
BRANCH   8   9
HETATM    9  C   UNL     1     -43.458  57.206 -55.593  1.00  0.00     0.131 A 
HETATM   10  N   UNL     1     -42.680  58.088 -56.194  1.00  0.00    -0.232 NA
HETATM   11  C   UNL     1     -42.578  57.656 -57.496  1.00  0.00     0.085 A 
HETATM   12  C   UNL     1     -43.283  56.472 -57.679  1.00  0.00     0.062 A 
HETATM   13  C   UNL     1     -41.902  58.228 -58.583  1.00  0.00     0.034 A 
HETATM   14  C   UNL     1     -43.348  55.800 -58.900  1.00  0.00     0.032 A 
HETATM   15  N   UNL     1     -43.830  56.200 -56.450  1.00  0.00    -0.341 N 
HETATM   16  C   UNL     1     -42.667  56.384 -59.975  1.00  0.00     0.002 A 
HETATM   17  C   UNL     1     -41.958  57.578 -59.823  1.00  0.00     0.002 A 
HETATM   18  H   UNL     1     -44.411  55.399 -56.241  1.00  0.00     0.167 HD
ENDBRANCH   8   9
ENDBRANCH   1   8
BRANCH   4  19
HETATM   19  C   UNL     1     -40.628  53.514 -53.796  1.00  0.00     0.165 C 
HETATM   20  O   UNL     1     -39.830  54.286 -54.328  1.00  0.00    -0.292 OA
BRANCH  19  21
HETATM   21  C   UNL     1     -40.251  52.079 -53.604  1.00  0.00     0.012 A 
HETATM   22  C   UNL     1     -39.977  51.643 -52.300  1.00  0.00     0.039 A 
HETATM   23  C   UNL     1     -39.617  50.317 -52.067  1.00  0.00     0.035 A 
HETATM   24 CL   UNL     1     -39.275  49.794 -50.465  1.00  0.00    -0.084 Cl
HETATM   25  C   UNL     1     -39.531  49.412 -53.122  1.00  0.00     0.024 A 
HETATM   26  C   UNL     1     -39.803  49.837 -54.421  1.00  0.00     0.003 A 
HETATM   27  C   UNL     1     -40.160  51.166 -54.665  1.00  0.00     0.015 A 
ENDBRANCH  19  21
ENDBRANCH   4  19
TORSDOF 4
ENDMDL
MODEL 4
REMARK VINA RESULT:      -8.3      2.312      5.104
REMARK  4 active torsions:
REMARK  status: ('A' for Active; 'I' for Inactive)
REMARK    1  A    between atoms: C_6  and  C_7 
REMARK    2  A    between atoms: C_7  and  N_8 
REMARK    3  A    between atoms: C_11  and  C_12 
REMARK    4  A    between atoms: C_12  and  C_13 
ROOT
HETATM    1  N   UNL     1     -42.230  57.470 -56.063  1.00  0.00    -0.064 N 
HETATM    2  H   UNL     1     -41.244  57.332 -56.343  1.00  0.00     0.280 HD
HETATM    3  C   UNL     1     -42.438  56.617 -54.826  1.00  0.00     0.247 C 
HETATM    4  C   UNL     1     -42.174  55.147 -55.169  1.00  0.00     0.086 C 
HETATM    5  C   UNL     1     -43.085  54.705 -56.317  1.00  0.00     0.016 C 
HETATM    6  C   UNL     1     -42.918  55.613 -57.533  1.00  0.00     0.029 C 
HETATM    7  C   UNL     1     -43.134  57.080 -57.192  1.00  0.00     0.235 C 
ENDROOT
BRANCH   1   8
HETATM    8  C   UNL     1     -42.276  58.957 -55.747  1.00  0.00     0.313 C 
BRANCH   8   9
HETATM    9  C   UNL     1     -41.900  59.180 -54.324  1.00  0.00     0.131 A 
HETATM   10  N   UNL     1     -40.700  58.951 -53.824  1.00  0.00    -0.232 NA
HETATM   11  C   UNL     1     -40.798  59.258 -52.486  1.00  0.00     0.085 A 
HETATM   12  C   UNL     1     -42.076  59.712 -52.178  1.00  0.00     0.062 A 
HETATM   13  C   UNL     1     -39.837  59.171 -51.470  1.00  0.00     0.034 A 
HETATM   14  C   UNL     1     -42.461  60.103 -50.895  1.00  0.00     0.032 A 
HETATM   15  N   UNL     1     -42.760  59.659 -53.367  1.00  0.00    -0.341 N 
HETATM   16  C   UNL     1     -41.489  60.010 -49.892  1.00  0.00     0.002 A 
HETATM   17  C   UNL     1     -40.200  59.551 -50.171  1.00  0.00     0.002 A 
HETATM   18  H   UNL     1     -43.729  59.923 -53.488  1.00  0.00     0.167 HD
ENDBRANCH   8   9
ENDBRANCH   1   8
BRANCH   4  19
HETATM   19  C   UNL     1     -42.438  54.320 -53.921  1.00  0.00     0.165 C 
HETATM   20  O   UNL     1     -43.521  54.410 -53.344  1.00  0.00    -0.292 OA
BRANCH  19  21
HETATM   21  C   UNL     1     -41.392  53.393 -53.388  1.00  0.00     0.012 A 
HETATM   22  C   UNL     1     -41.042  52.282 -54.168  1.00  0.00     0.039 A 
HETATM   23  C   UNL     1     -40.076  51.385 -53.715  1.00  0.00     0.035 A 
HETATM   24 CL   UNL     1     -39.659  50.021 -54.676  1.00  0.00    -0.084 Cl
HETATM   25  C   UNL     1     -39.446  51.584 -52.490  1.00  0.00     0.024 A 
HETATM   26  C   UNL     1     -39.787  52.687 -51.709  1.00  0.00     0.003 A 
HETATM   27  C   UNL     1     -40.758  53.589 -52.153  1.00  0.00     0.015 A 
ENDBRANCH  19  21
ENDBRANCH   4  19
TORSDOF 4
ENDMDL
MODEL 5
REMARK VINA RESULT:      -8.2      1.764      2.196
REMARK  4 active torsions:
REMARK  status: ('A' for Active; 'I' for Inactive)
REMARK    1  A    between atoms: C_6  and  C_7 
REMARK    2  A    between atoms: C_7  and  N_8 
REMARK    3  A    between atoms: C_11  and  C_12 
REMARK    4  A    between atoms: C_12  and  C_13 
ROOT
HETATM    1  N   UNL     1     -43.121  57.069 -55.036  1.00  0.00    -0.064 N 
HETATM    2  H   UNL     1     -43.734  56.301 -55.358  1.00  0.00     0.280 HD
HETATM    3  C   UNL     1     -41.981  56.408 -54.284  1.00  0.00     0.247 C 
HETATM    4  C   UNL     1     -42.542  55.625 -53.092  1.00  0.00     0.086 C 
HETATM    5  C   UNL     1     -43.347  56.559 -52.184  1.00  0.00     0.016 C 
HETATM    6  C   UNL     1     -44.447  57.272 -52.965  1.00  0.00     0.029 C 
HETATM    7  C   UNL     1     -43.905  58.015 -54.178  1.00  0.00     0.235 C 
ENDROOT
BRANCH   1   8
HETATM    8  C   UNL     1     -42.659  57.693 -56.343  1.00  0.00     0.313 C 
BRANCH   8   9
HETATM    9  C   UNL     1     -43.486  57.174 -57.467  1.00  0.00     0.131 A 
HETATM   10  N   UNL     1     -43.072  56.288 -58.353  1.00  0.00    -0.232 NA
HETATM   11  C   UNL     1     -44.128  56.117 -59.219  1.00  0.00     0.085 A 
HETATM   12  C   UNL     1     -45.214  56.894 -58.829  1.00  0.00     0.062 A 
HETATM   13  C   UNL     1     -44.231  55.317 -60.365  1.00  0.00     0.034 A 
HETATM   14  C   UNL     1     -46.427  56.914 -59.519  1.00  0.00     0.032 A 
HETATM   15  N   UNL     1     -44.784  57.554 -57.706  1.00  0.00    -0.341 N 
HETATM   16  C   UNL     1     -46.514  56.109 -60.661  1.00  0.00     0.002 A 
HETATM   17  C   UNL     1     -45.436  55.325 -61.080  1.00  0.00     0.002 A 
HETATM   18  H   UNL     1     -45.340  58.209 -57.172  1.00  0.00     0.167 HD
ENDBRANCH   8   9
ENDBRANCH   1   8
BRANCH   4  19
HETATM   19  C   UNL     1     -41.370  55.018 -52.337  1.00  0.00     0.165 C 
HETATM   20  O   UNL     1     -40.890  55.609 -51.371  1.00  0.00    -0.292 OA
BRANCH  19  21
HETATM   21  C   UNL     1     -40.793  53.703 -52.760  1.00  0.00     0.012 A 
HETATM   22  C   UNL     1     -40.464  52.780 -51.757  1.00  0.00     0.039 A 
HETATM   23  C   UNL     1     -39.919  51.543 -52.097  1.00  0.00     0.035 A 
HETATM   24 CL   UNL     1     -39.512  50.420 -50.859  1.00  0.00    -0.084 Cl
HETATM   25  C   UNL     1     -39.701  51.209 -53.431  1.00  0.00     0.024 A 
HETATM   26  C   UNL     1     -40.027  52.121 -54.433  1.00  0.00     0.003 A 
HETATM   27  C   UNL     1     -40.569  53.365 -54.102  1.00  0.00     0.015 A 
ENDBRANCH  19  21
ENDBRANCH   4  19
TORSDOF 4
ENDMDL
MODEL 6
REMARK VINA RESULT:      -8.1      4.681      7.885
REMARK  4 active torsions:
REMARK  status: ('A' for Active; 'I' for Inactive)
REMARK    1  A    between atoms: C_6  and  C_7 
REMARK    2  A    between atoms: C_7  and  N_8 
REMARK    3  A    between atoms: C_11  and  C_12 
REMARK    4  A    between atoms: C_12  and  C_13 
ROOT
HETATM    1  N   UNL     1     -43.100  59.564 -50.471  1.00  0.00    -0.064 N 
HETATM    2  H   UNL     1     -43.251  59.165 -49.529  1.00  0.00     0.280 HD
HETATM    3  C   UNL     1     -43.128  58.391 -51.433  1.00  0.00     0.247 C 
HETATM    4  C   UNL     1     -42.006  57.411 -51.075  1.00  0.00     0.086 C 
HETATM    5  C   UNL     1     -40.654  58.129 -51.103  1.00  0.00     0.016 C 
HETATM    6  C   UNL     1     -40.660  59.348 -50.184  1.00  0.00     0.029 C 
HETATM    7  C   UNL     1     -41.799  60.306 -50.503  1.00  0.00     0.235 C 
ENDROOT
BRANCH   1   8
HETATM    8  C   UNL     1     -44.309  60.471 -50.641  1.00  0.00     0.313 C 
BRANCH   8   9
HETATM    9  C   UNL     1     -44.546  61.233 -49.383  1.00  0.00     0.131 A 
HETATM   10  N   UNL     1     -44.604  62.550 -49.308  1.00  0.00    -0.232 NA
HETATM   11  C   UNL     1     -44.806  62.829 -47.975  1.00  0.00     0.085 A 
HETATM   12  C   UNL     1     -44.903  61.655 -47.236  1.00  0.00     0.062 A 
HETATM   13  C   UNL     1     -44.913  64.064 -47.321  1.00  0.00     0.034 A 
HETATM   14  C   UNL     1     -45.116  61.635 -45.857  1.00  0.00     0.032 A 
HETATM   15  N   UNL     1     -44.740  60.650 -48.156  1.00  0.00    -0.341 N 
HETATM   16  C   UNL     1     -45.222  62.876 -45.219  1.00  0.00     0.002 A 
HETATM   17  C   UNL     1     -45.121  64.072 -45.935  1.00  0.00     0.002 A 
HETATM   18  H   UNL     1     -44.755  59.662 -47.940  1.00  0.00     0.167 HD
ENDBRANCH   8   9
ENDBRANCH   1   8
BRANCH   4  19
HETATM   19  C   UNL     1     -42.034  56.276 -52.086  1.00  0.00     0.165 C 
HETATM   20  O   UNL     1     -42.679  56.398 -53.127  1.00  0.00    -0.292 OA
BRANCH  19  21
HETATM   21  C   UNL     1     -41.283  55.008 -51.828  1.00  0.00     0.012 A 
HETATM   22  C   UNL     1     -41.040  54.157 -52.915  1.00  0.00     0.039 A 
HETATM   23  C   UNL     1     -40.348  52.962 -52.728  1.00  0.00     0.035 A 
HETATM   24 CL   UNL     1     -40.063  51.922 -54.067  1.00  0.00    -0.084 Cl
HETATM   25  C   UNL     1     -39.888  52.603 -51.464  1.00  0.00     0.024 A 
HETATM   26  C   UNL     1     -40.123  53.444 -50.379  1.00  0.00     0.003 A 
HETATM   27  C   UNL     1     -40.820  54.642 -50.556  1.00  0.00     0.015 A 
ENDBRANCH  19  21
ENDBRANCH   4  19
TORSDOF 4
ENDMDL
MODEL 7
REMARK VINA RESULT:      -8.1      3.300      5.502
REMARK  4 active torsions:
REMARK  status: ('A' for Active; 'I' for Inactive)
REMARK    1  A    between atoms: C_6  and  C_7 
REMARK    2  A    between atoms: C_7  and  N_8 
REMARK    3  A    between atoms: C_11  and  C_12 
REMARK    4  A    between atoms: C_12  and  C_13 
ROOT
HETATM    1  N   UNL     1     -39.644  51.891 -52.828  1.00  0.00    -0.064 N 
HETATM    2  H   UNL     1     -38.644  52.112 -52.686  1.00  0.00     0.280 HD
HETATM    3  C   UNL     1     -40.411  52.794 -51.880  1.00  0.00     0.247 C 
HETATM    4  C   UNL     1     -39.990  52.495 -50.438  1.00  0.00     0.086 C 
HETATM    5  C   UNL     1     -40.225  51.016 -50.119  1.00  0.00     0.016 C 
HETATM    6  C   UNL     1     -39.505  50.116 -51.120  1.00  0.00     0.029 C 
HETATM    7  C   UNL     1     -39.884  50.437 -52.559  1.00  0.00     0.235 C 
ENDROOT
BRANCH   1   8
HETATM    8  C   UNL     1     -39.862  52.273 -54.284  1.00  0.00     0.313 C 
BRANCH   8   9
HETATM    9  C   UNL     1     -40.738  53.474 -54.362  1.00  0.00     0.131 A 
HETATM   10  N   UNL     1     -40.297  54.717 -54.430  1.00  0.00    -0.232 NA
HETATM   11  C   UNL     1     -41.427  55.503 -54.456  1.00  0.00     0.085 A 
HETATM   12  C   UNL     1     -42.573  54.717 -54.436  1.00  0.00     0.062 A 
HETATM   13  C   UNL     1     -41.551  56.898 -54.494  1.00  0.00     0.034 A 
HETATM   14  C   UNL     1     -43.864  55.246 -54.463  1.00  0.00     0.032 A 
HETATM   15  N   UNL     1     -42.110  53.427 -54.382  1.00  0.00    -0.341 N 
HETATM   16  C   UNL     1     -43.971  56.642 -54.501  1.00  0.00     0.002 A 
HETATM   17  C   UNL     1     -42.836  57.456 -54.514  1.00  0.00     0.002 A 
HETATM   18  H   UNL     1     -42.696  52.603 -54.353  1.00  0.00     0.167 HD
ENDBRANCH   8   9
ENDBRANCH   1   8
BRANCH   4  19
HETATM   19  C   UNL     1     -40.812  53.383 -49.516  1.00  0.00     0.165 C 
HETATM   20  O   UNL     1     -40.901  53.108 -48.320  1.00  0.00    -0.292 OA
BRANCH  19  21
HETATM   21  C   UNL     1     -41.515  54.590 -50.051  1.00  0.00     0.012 A 
HETATM   22  C   UNL     1     -40.764  55.761 -50.228  1.00  0.00     0.039 A 
HETATM   23  C   UNL     1     -41.372  56.914 -50.720  1.00  0.00     0.035 A 
HETATM   24 CL   UNL     1     -40.444  58.347 -50.926  1.00  0.00    -0.084 Cl
HETATM   25  C   UNL     1     -42.726  56.916 -51.044  1.00  0.00     0.024 A 
HETATM   26  C   UNL     1     -43.479  55.756 -50.873  1.00  0.00     0.003 A 
HETATM   27  C   UNL     1     -42.879  54.596 -50.376  1.00  0.00     0.015 A 
ENDBRANCH  19  21
ENDBRANCH   4  19
TORSDOF 4
ENDMDL
MODEL 8
REMARK VINA RESULT:      -8.1      1.696      2.572
REMARK  4 active torsions:
REMARK  status: ('A' for Active; 'I' for Inactive)
REMARK    1  A    between atoms: C_6  and  C_7 
REMARK    2  A    between atoms: C_7  and  N_8 
REMARK    3  A    between atoms: C_11  and  C_12 
REMARK    4  A    between atoms: C_12  and  C_13 
ROOT
HETATM    1  N   UNL     1     -42.265  56.731 -53.909  1.00  0.00    -0.064 N 
HETATM    2  H   UNL     1     -41.815  56.467 -54.802  1.00  0.00     0.280 HD
HETATM    3  C   UNL     1     -41.421  56.104 -52.814  1.00  0.00     0.247 C 
HETATM    4  C   UNL     1     -41.411  54.581 -52.986  1.00  0.00     0.086 C 
HETATM    5  C   UNL     1     -42.844  54.042 -52.970  1.00  0.00     0.016 C 
HETATM    6  C   UNL     1     -43.702  54.730 -54.029  1.00  0.00     0.029 C 
HETATM    7  C   UNL     1     -43.682  56.245 -53.894  1.00  0.00     0.235 C 
ENDROOT
BRANCH   1   8
HETATM    8  C   UNL     1     -42.152  58.247 -53.919  1.00  0.00     0.313 C 
BRANCH   8   9
HETATM    9  C   UNL     1     -42.121  58.739 -55.324  1.00  0.00     0.131 A 
HETATM   10  N   UNL     1     -41.801  59.970 -55.677  1.00  0.00    -0.232 NA
HETATM   11  C   UNL     1     -41.928  60.000 -57.047  1.00  0.00     0.085 A 
HETATM   12  C   UNL     1     -42.302  58.752 -57.534  1.00  0.00     0.062 A 
HETATM   13  C   UNL     1     -41.744  61.061 -57.945  1.00  0.00     0.034 A 
HETATM   14  C   UNL     1     -42.497  58.487 -58.890  1.00  0.00     0.032 A 
HETATM   15  N   UNL     1     -42.413  57.962 -56.418  1.00  0.00    -0.341 N 
HETATM   16  C   UNL     1     -42.309  59.557 -59.773  1.00  0.00     0.002 A 
HETATM   17  C   UNL     1     -41.941  60.823 -59.311  1.00  0.00     0.002 A 
HETATM   18  H   UNL     1     -42.675  56.986 -56.425  1.00  0.00     0.167 HD
ENDBRANCH   8   9
ENDBRANCH   1   8
BRANCH   4  19
HETATM   19  C   UNL     1     -40.599  53.986 -51.847  1.00  0.00     0.165 C 
HETATM   20  O   UNL     1     -40.222  54.704 -50.922  1.00  0.00    -0.292 OA
BRANCH  19  21
HETATM   21  C   UNL     1     -40.252  52.530 -51.840  1.00  0.00     0.012 A 
HETATM   22  C   UNL     1     -40.049  51.900 -53.076  1.00  0.00     0.039 A 
HETATM   23  C   UNL     1     -39.728  50.544 -53.125  1.00  0.00     0.035 A 
HETATM   24 CL   UNL     1     -39.488  49.779 -54.647  1.00  0.00    -0.084 Cl
HETATM   25  C   UNL     1     -39.602  49.805 -51.953  1.00  0.00     0.024 A 
HETATM   26  C   UNL     1     -39.801  50.424 -50.721  1.00  0.00     0.003 A 
HETATM   27  C   UNL     1     -40.128  51.782 -50.661  1.00  0.00     0.015 A 
ENDBRANCH  19  21
ENDBRANCH   4  19
TORSDOF 4
ENDMDL
MODEL 9
REMARK VINA RESULT:      -8.0      2.382      5.175
REMARK  4 active torsions:
REMARK  status: ('A' for Active; 'I' for Inactive)
REMARK    1  A    between atoms: C_6  and  C_7 
REMARK    2  A    between atoms: C_7  and  N_8 
REMARK    3  A    between atoms: C_11  and  C_12 
REMARK    4  A    between atoms: C_12  and  C_13 
ROOT
HETATM    1  N   UNL     1     -42.453  57.823 -56.305  1.00  0.00    -0.064 N 
HETATM    2  H   UNL     1     -41.434  57.747 -56.470  1.00  0.00     0.280 HD
HETATM    3  C   UNL     1     -42.772  56.836 -55.198  1.00  0.00     0.247 C 
HETATM    4  C   UNL     1     -42.402  55.420 -55.654  1.00  0.00     0.086 C 
HETATM    5  C   UNL     1     -43.146  55.076 -56.947  1.00  0.00     0.016 C 
HETATM    6  C   UNL     1     -42.872  56.113 -58.033  1.00  0.00     0.029 C 
HETATM    7  C   UNL     1     -43.194  57.528 -57.572  1.00  0.00     0.235 C 
ENDROOT
BRANCH   1   8
HETATM    8  C   UNL     1     -42.604  59.265 -55.846  1.00  0.00     0.313 C 
BRANCH   8   9
HETATM    9  C   UNL     1     -42.126  59.398 -54.442  1.00  0.00     0.131 A 
HETATM   10  N   UNL     1     -40.912  59.077 -54.033  1.00  0.00    -0.232 NA
HETATM   11  C   UNL     1     -40.907  59.326 -52.679  1.00  0.00     0.085 A 
HETATM   12  C   UNL     1     -42.133  59.838 -52.269  1.00  0.00     0.062 A 
HETATM   13  C   UNL     1     -39.891  59.135 -51.733  1.00  0.00     0.034 A 
HETATM   14  C   UNL     1     -42.411  60.190 -50.947  1.00  0.00     0.032 A 
HETATM   15  N   UNL     1     -42.892  59.881 -53.411  1.00  0.00    -0.341 N 
HETATM   16  C   UNL     1     -41.385  59.995 -50.016  1.00  0.00     0.002 A 
HETATM   17  C   UNL     1     -40.146  59.474 -50.398  1.00  0.00     0.002 A 
HETATM   18  H   UNL     1     -43.849  60.206 -53.457  1.00  0.00     0.167 HD
ENDBRANCH   8   9
ENDBRANCH   1   8
BRANCH   4  19
HETATM   19  C   UNL     1     -42.780  54.455 -54.541  1.00  0.00     0.165 C 
HETATM   20  O   UNL     1     -43.952  54.368 -54.177  1.00  0.00    -0.292 OA
BRANCH  19  21
HETATM   21  C   UNL     1     -41.737  53.608 -53.883  1.00  0.00     0.012 A 
HETATM   22  C   UNL     1     -41.316  53.970 -52.596  1.00  0.00     0.039 A 
HETATM   23  C   UNL     1     -40.343  53.217 -51.940  1.00  0.00     0.035 A 
HETATM   24 CL   UNL     1     -39.828  53.674 -50.364  1.00  0.00    -0.084 Cl
HETATM   25  C   UNL     1     -39.784  52.098 -52.552  1.00  0.00     0.024 A 
HETATM   26  C   UNL     1     -40.198  51.731 -53.830  1.00  0.00     0.003 A 
HETATM   27  C   UNL     1     -41.169  52.483 -54.498  1.00  0.00     0.015 A 
ENDBRANCH  19  21
ENDBRANCH   4  19
TORSDOF 4
ENDMDL
MODEL 10
REMARK VINA RESULT:      -8.0      3.909      7.653
REMARK  4 active torsions:
REMARK  status: ('A' for Active; 'I' for Inactive)
REMARK    1  A    between atoms: C_6  and  C_7 
REMARK    2  A    between atoms: C_7  and  N_8 
REMARK    3  A    between atoms: C_11  and  C_12 
REMARK    4  A    between atoms: C_12  and  C_13 
ROOT
HETATM    1  N   UNL     1     -42.871  56.816 -54.396  1.00  0.00    -0.064 N 
HETATM    2  H   UNL     1     -42.020  56.353 -54.757  1.00  0.00     0.280 HD
HETATM    3  C   UNL     1     -43.755  57.067 -55.603  1.00  0.00     0.247 C 
HETATM    4  C   UNL     1     -43.021  57.978 -56.593  1.00  0.00     0.086 C 
HETATM    5  C   UNL     1     -42.624  59.287 -55.904  1.00  0.00     0.016 C 
HETATM    6  C   UNL     1     -41.793  59.020 -54.652  1.00  0.00     0.029 C 
HETATM    7  C   UNL     1     -42.496  58.079 -53.684  1.00  0.00     0.235 C 
ENDROOT
BRANCH   1   8
HETATM    8  C   UNL     1     -43.454  55.759 -53.471  1.00  0.00     0.313 C 
BRANCH   8   9
HETATM    9  C   UNL     1     -42.465  54.663 -53.274  1.00  0.00     0.131 A 
HETATM   10  N   UNL     1     -41.846  54.411 -52.135  1.00  0.00    -0.232 NA
HETATM   11  C   UNL     1     -41.011  53.350 -52.401  1.00  0.00     0.085 A 
HETATM   12  C   UNL     1     -41.151  52.934 -53.721  1.00  0.00     0.062 A 
HETATM   13  C   UNL     1     -40.099  52.691 -51.566  1.00  0.00     0.034 A 
HETATM   14  C   UNL     1     -40.432  51.870 -54.267  1.00  0.00     0.032 A 
HETATM   15  N   UNL     1     -42.088  53.781 -54.256  1.00  0.00    -0.341 N 
HETATM   16  C   UNL     1     -39.526  51.222 -53.419  1.00  0.00     0.002 A 
HETATM   17  C   UNL     1     -39.359  51.625 -52.092  1.00  0.00     0.002 A 
HETATM   18  H   UNL     1     -42.418  53.748 -55.211  1.00  0.00     0.167 HD
ENDBRANCH   8   9
ENDBRANCH   1   8
BRANCH   4  19
HETATM   19  C   UNL     1     -43.954  58.246 -57.763  1.00  0.00     0.165 C 
HETATM   20  O   UNL     1     -44.388  59.382 -57.953  1.00  0.00    -0.292 OA
BRANCH  19  21
HETATM   21  C   UNL     1     -44.348  57.140 -58.690  1.00  0.00     0.012 A 
HETATM   22  C   UNL     1     -45.596  57.229 -59.324  1.00  0.00     0.039 A 
HETATM   23  C   UNL     1     -46.013  56.223 -60.193  1.00  0.00     0.035 A 
HETATM   24 CL   UNL     1     -47.548  56.339 -60.959  1.00  0.00    -0.084 Cl
HETATM   25  C   UNL     1     -45.197  55.123 -60.445  1.00  0.00     0.024 A 
HETATM   26  C   UNL     1     -43.955  55.028 -59.820  1.00  0.00     0.003 A 
HETATM   27  C   UNL     1     -43.530  56.030 -58.943  1.00  0.00     0.015 A 
ENDBRANCH  19  21
ENDBRANCH   4  19
TORSDOF 4
ENDMDL
