MODEL 1
REMARK VINA RESULT:      -8.0      0.000      0.000
REMARK  6 active torsions:
REMARK  status: ('A' for Active; 'I' for Inactive)
REMARK       I    between atoms: N_2  and  C_3 
REMARK    1  A    between atoms: N_2  and  C_19 
REMARK       I    between atoms: C_3  and  N_4 
REMARK    2  A    between atoms: N_4  and  C_5 
REMARK    3  A    between atoms: C_12  and  C_13 
REMARK       I    between atoms: C_13  and  N_14 
REMARK    4  A    between atoms: C_19  and  C_20 
REMARK    5  A    between atoms: C_20  and  O_21 
REMARK    6  A    between atoms: O_21  and  C_22 
ROOT
HETATM    1  C   UNL     1     -44.824  57.598 -51.628  1.00  0.00     0.154 C 
HETATM    2  N   UNL     1     -43.871  57.048 -52.582  1.00  0.00    -0.336 N 
HETATM    3  C   UNL     1     -43.963  57.547 -53.889  1.00  0.00     0.322 C 
HETATM    4  N   UNL     1     -42.966  57.105 -54.729  1.00  0.00    -0.309 N 
HETATM    5  O   UNL     1     -44.841  58.344 -54.210  1.00  0.00    -0.247 OA
HETATM    6  H   UNL     1     -42.108  56.852 -54.269  1.00  0.00     0.170 HD
ENDROOT
BRANCH   4   7
HETATM    7  C   UNL     1     -42.907  57.259 -56.130  1.00  0.00     0.037 A 
HETATM    8  C   UNL     1     -43.453  56.328 -57.024  1.00  0.00     0.046 A 
HETATM    9  C   UNL     1     -43.312  56.530 -58.414  1.00  0.00     0.030 A 
HETATM   10  C   UNL     1     -42.651  57.666 -58.861  1.00  0.00     0.063 A 
HETATM   11  C   UNL     1     -43.679  55.824 -59.598  1.00  0.00     0.156 A 
HETATM   12  N   UNL     1     -42.693  57.596 -60.225  1.00  0.00    -0.277 N 
HETATM   13  C   UNL     1     -42.094  58.614 -57.999  1.00  0.00     0.034 A 
HETATM   14  H   UNL     1     -42.315  58.264 -60.886  1.00  0.00     0.189 HD
HETATM   15  N   UNL     1     -43.302  56.500 -60.708  1.00  0.00    -0.168 NA
HETATM   16  C   UNL     1     -42.225  58.377 -56.624  1.00  0.00     0.032 A 
BRANCH  11  17
HETATM   17  C   UNL     1     -44.360  54.525 -59.691  1.00  0.00     0.270 C 
HETATM   18  N   UNL     1     -45.004  54.317 -60.881  1.00  0.00    -0.365 N 
HETATM   19  H   UNL     1     -44.939  55.031 -61.598  1.00  0.00     0.159 HD
HETATM   20  H   UNL     1     -45.465  53.438 -61.053  1.00  0.00     0.159 HD
HETATM   21  O   UNL     1     -44.361  53.670 -58.812  1.00  0.00    -0.266 OA
ENDBRANCH  11  17
ENDBRANCH   4   7
BRANCH   2  22
HETATM   22  C   UNL     1     -43.359  55.699 -52.280  1.00  0.00     0.153 C 
BRANCH  22  23
HETATM   23  C   UNL     1     -41.926  55.699 -51.724  1.00  0.00     0.195 C 
BRANCH  23  24
HETATM   24  O   UNL     1     -41.001  55.579 -52.813  1.00  0.00    -0.350 OA
BRANCH  24  25
HETATM   25  C   UNL     1     -40.669  54.275 -53.044  1.00  0.00     0.068 A 
HETATM   26  C   UNL     1     -40.609  53.841 -54.366  1.00  0.00     0.038 A 
HETATM   27  C   UNL     1     -40.245  52.523 -54.649  1.00  0.00     0.026 A 
HETATM   28  C   UNL     1     -39.928  51.658 -53.604  1.00  0.00     0.034 A 
HETATM   29 CL   UNL     1     -39.477  50.032 -53.946  1.00  0.00    -0.084 Cl
HETATM   30  C   UNL     1     -39.968  52.099 -52.280  1.00  0.00     0.026 A 
HETATM   31  C   UNL     1     -40.335  53.416 -51.997  1.00  0.00     0.038 A 
ENDBRANCH  24  25
ENDBRANCH  23  24
ENDBRANCH  22  23
ENDBRANCH   2  22
TORSDOF 6
ENDMDL
MODEL 2
REMARK VINA RESULT:      -7.8      1.796      2.843
REMARK  6 active torsions:
REMARK  status: ('A' for Active; 'I' for Inactive)
REMARK       I    between atoms: N_2  and  C_3 
REMARK    1  A    between atoms: N_2  and  C_19 
REMARK       I    between atoms: C_3  and  N_4 
REMARK    2  A    between atoms: N_4  and  C_5 
REMARK    3  A    between atoms: C_12  and  C_13 
REMARK       I    between atoms: C_13  and  N_14 
REMARK    4  A    between atoms: C_19  and  C_20 
REMARK    5  A    between atoms: C_20  and  O_21 
REMARK    6  A    between atoms: O_21  and  C_22 
ROOT
HETATM    1  C   UNL     1     -44.480  57.015 -50.961  1.00  0.00     0.154 C 
HETATM    2  N   UNL     1     -43.610  56.376 -51.938  1.00  0.00    -0.336 N 
HETATM    3  C   UNL     1     -43.676  56.892 -53.240  1.00  0.00     0.322 C 
HETATM    4  N   UNL     1     -42.748  56.356 -54.103  1.00  0.00    -0.309 N 
HETATM    5  O   UNL     1     -44.473  57.779 -53.538  1.00  0.00    -0.247 OA
HETATM    6  H   UNL     1     -41.911  56.012 -53.664  1.00  0.00     0.170 HD
ENDROOT
BRANCH   4   7
HETATM    7  C   UNL     1     -42.702  56.514 -55.504  1.00  0.00     0.037 A 
HETATM    8  C   UNL     1     -42.374  57.726 -56.126  1.00  0.00     0.046 A 
HETATM    9  C   UNL     1     -42.395  57.816 -57.535  1.00  0.00     0.030 A 
HETATM   10  C   UNL     1     -42.721  56.686 -58.273  1.00  0.00     0.063 A 
HETATM   11  C   UNL     1     -42.169  58.839 -58.503  1.00  0.00     0.156 A 
HETATM   12  N   UNL     1     -42.636  57.071 -59.581  1.00  0.00    -0.277 N 
HETATM   13  C   UNL     1     -43.054  55.462 -57.687  1.00  0.00     0.034 A 
HETATM   14  H   UNL     1     -42.800  56.499 -60.401  1.00  0.00     0.189 HD
HETATM   15  N   UNL     1     -42.308  58.362 -59.762  1.00  0.00    -0.168 NA
HETATM   16  C   UNL     1     -43.051  55.406 -56.287  1.00  0.00     0.032 A 
BRANCH  11  17
HETATM   17  C   UNL     1     -41.841  60.250 -58.255  1.00  0.00     0.270 C 
HETATM   18  N   UNL     1     -42.664  61.135 -58.898  1.00  0.00    -0.365 N 
HETATM   19  H   UNL     1     -43.431  60.769 -59.451  1.00  0.00     0.159 HD
HETATM   20  H   UNL     1     -42.541  62.125 -58.756  1.00  0.00     0.159 HD
HETATM   21  O   UNL     1     -40.931  60.641 -57.531  1.00  0.00    -0.266 OA
ENDBRANCH  11  17
ENDBRANCH   4   7
BRANCH   2  22
HETATM   22  C   UNL     1     -43.234  54.979 -51.654  1.00  0.00     0.153 C 
BRANCH  22  23
HETATM   23  C   UNL     1     -41.851  54.838 -51.000  1.00  0.00     0.195 C 
BRANCH  23  24
HETATM   24  O   UNL     1     -40.841  54.956 -52.010  1.00  0.00    -0.350 OA
BRANCH  24  25
HETATM   25  C   UNL     1     -40.510  53.737 -52.529  1.00  0.00     0.068 A 
HETATM   26  C   UNL     1     -40.652  53.550 -53.902  1.00  0.00     0.038 A 
HETATM   27  C   UNL     1     -40.298  52.329 -54.478  1.00  0.00     0.026 A 
HETATM   28  C   UNL     1     -39.789  51.312 -53.675  1.00  0.00     0.034 A 
HETATM   29 CL   UNL     1     -39.349  49.804 -54.380  1.00  0.00    -0.084 Cl
HETATM   30  C   UNL     1     -39.627  51.505 -52.301  1.00  0.00     0.026 A 
HETATM   31  C   UNL     1     -39.983  52.726 -51.725  1.00  0.00     0.038 A 
ENDBRANCH  24  25
ENDBRANCH  23  24
ENDBRANCH  22  23
ENDBRANCH   2  22
TORSDOF 6
ENDMDL
MODEL 3
REMARK VINA RESULT:      -7.8      2.066      2.701
REMARK  6 active torsions:
REMARK  status: ('A' for Active; 'I' for Inactive)
REMARK       I    between atoms: N_2  and  C_3 
REMARK    1  A    between atoms: N_2  and  C_19 
REMARK       I    between atoms: C_3  and  N_4 
REMARK    2  A    between atoms: N_4  and  C_5 
REMARK    3  A    between atoms: C_12  and  C_13 
REMARK       I    between atoms: C_13  and  N_14 
REMARK    4  A    between atoms: C_19  and  C_20 
REMARK    5  A    between atoms: C_20  and  O_21 
REMARK    6  A    between atoms: O_21  and  C_22 
ROOT
HETATM    1  C   UNL     1     -39.588  59.148 -51.592  1.00  0.00     0.154 C 
HETATM    2  N   UNL     1     -40.639  58.221 -51.986  1.00  0.00    -0.336 N 
HETATM    3  C   UNL     1     -41.255  58.488 -53.217  1.00  0.00     0.322 C 
HETATM    4  N   UNL     1     -42.148  57.521 -53.619  1.00  0.00    -0.309 N 
HETATM    5  O   UNL     1     -40.965  59.484 -53.875  1.00  0.00    -0.247 OA
HETATM    6  H   UNL     1     -41.966  56.601 -53.255  1.00  0.00     0.170 HD
ENDROOT
BRANCH   4   7
HETATM    7  C   UNL     1     -43.065  57.604 -54.687  1.00  0.00     0.037 A 
HETATM    8  C   UNL     1     -42.738  57.248 -56.003  1.00  0.00     0.046 A 
HETATM    9  C   UNL     1     -43.699  57.403 -57.026  1.00  0.00     0.030 A 
HETATM   10  C   UNL     1     -44.957  57.888 -56.695  1.00  0.00     0.063 A 
HETATM   11  C   UNL     1     -43.739  57.198 -58.437  1.00  0.00     0.156 A 
HETATM   12  N   UNL     1     -45.658  57.906 -57.868  1.00  0.00    -0.277 N 
HETATM   13  C   UNL     1     -45.316  58.254 -55.396  1.00  0.00     0.034 A 
HETATM   14  H   UNL     1     -46.619  58.195 -58.004  1.00  0.00     0.189 HD
HETATM   15  N   UNL     1     -44.959  57.499 -58.941  1.00  0.00    -0.168 NA
HETATM   16  C   UNL     1     -44.337  58.115 -54.403  1.00  0.00     0.032 A 
BRANCH  11  17
HETATM   17  C   UNL     1     -42.648  56.738 -59.307  1.00  0.00     0.270 C 
HETATM   18  N   UNL     1     -41.576  57.588 -59.353  1.00  0.00    -0.365 N 
HETATM   19  H   UNL     1     -41.597  58.425 -58.781  1.00  0.00     0.159 HD
HETATM   20  H   UNL     1     -40.762  57.338 -59.892  1.00  0.00     0.159 HD
HETATM   21  O   UNL     1     -42.650  55.687 -59.939  1.00  0.00    -0.266 OA
ENDBRANCH  11  17
ENDBRANCH   4   7
BRANCH   2  22
HETATM   22  C   UNL     1     -41.328  57.519 -50.888  1.00  0.00     0.153 C 
BRANCH  22  23
HETATM   23  C   UNL     1     -41.015  56.015 -50.832  1.00  0.00     0.195 C 
BRANCH  23  24
HETATM   24  O   UNL     1     -41.921  55.316 -51.696  1.00  0.00    -0.350 OA
BRANCH  24  25
HETATM   25  C   UNL     1     -41.346  54.191 -52.215  1.00  0.00     0.068 A 
HETATM   26  C   UNL     1     -41.601  53.884 -53.550  1.00  0.00     0.038 A 
HETATM   27  C   UNL     1     -41.010  52.760 -54.129  1.00  0.00     0.026 A 
HETATM   28  C   UNL     1     -40.157  51.962 -53.369  1.00  0.00     0.034 A 
HETATM   29 CL   UNL     1     -39.425  50.576 -54.079  1.00  0.00    -0.084 Cl
HETATM   30  C   UNL     1     -39.886  52.281 -52.037  1.00  0.00     0.026 A 
HETATM   31  C   UNL     1     -40.479  53.404 -51.457  1.00  0.00     0.038 A 
ENDBRANCH  24  25
ENDBRANCH  23  24
ENDBRANCH  22  23
ENDBRANCH   2  22
TORSDOF 6
ENDMDL
MODEL 4
REMARK VINA RESULT:      -7.7      3.454      7.371
REMARK  6 active torsions:
REMARK  status: ('A' for Active; 'I' for Inactive)
REMARK       I    between atoms: N_2  and  C_3 
REMARK    1  A    between atoms: N_2  and  C_19 
REMARK       I    between atoms: C_3  and  N_4 
REMARK    2  A    between atoms: N_4  and  C_5 
REMARK    3  A    between atoms: C_12  and  C_13 
REMARK       I    between atoms: C_13  and  N_14 
REMARK    4  A    between atoms: C_19  and  C_20 
REMARK    5  A    between atoms: C_20  and  O_21 
REMARK    6  A    between atoms: O_21  and  C_22 
ROOT
HETATM    1  C   UNL     1     -43.803  56.508 -58.225  1.00  0.00     0.154 C 
HETATM    2  N   UNL     1     -42.632  56.510 -57.359  1.00  0.00    -0.336 N 
HETATM    3  C   UNL     1     -42.523  55.421 -56.484  1.00  0.00     0.322 C 
HETATM    4  N   UNL     1     -41.343  55.386 -55.777  1.00  0.00    -0.309 N 
HETATM    5  O   UNL     1     -43.401  54.565 -56.414  1.00  0.00    -0.247 OA
HETATM    6  H   UNL     1     -40.566  55.841 -56.228  1.00  0.00     0.170 HD
ENDROOT
BRANCH   4   7
HETATM    7  C   UNL     1     -41.032  54.548 -54.686  1.00  0.00     0.037 A 
HETATM    8  C   UNL     1     -41.447  54.817 -53.374  1.00  0.00     0.046 A 
HETATM    9  C   UNL     1     -41.055  53.953 -52.328  1.00  0.00     0.030 A 
HETATM   10  C   UNL     1     -40.282  52.840 -52.632  1.00  0.00     0.063 A 
HETATM   11  C   UNL     1     -41.234  53.905 -50.913  1.00  0.00     0.156 A 
HETATM   12  N   UNL     1     -40.086  52.200 -51.441  1.00  0.00    -0.277 N 
HETATM   13  C   UNL     1     -39.850  52.542 -53.927  1.00  0.00     0.034 A 
HETATM   14  H   UNL     1     -39.572  51.341 -51.284  1.00  0.00     0.189 HD
HETATM   15  N   UNL     1     -40.642  52.811 -50.381  1.00  0.00    -0.168 NA
HETATM   16  C   UNL     1     -40.230  53.429 -54.943  1.00  0.00     0.032 A 
BRANCH  11  17
HETATM   17  C   UNL     1     -41.937  54.878 -50.066  1.00  0.00     0.270 C 
HETATM   18  N   UNL     1     -43.300  54.844 -50.190  1.00  0.00    -0.365 N 
HETATM   19  H   UNL     1     -43.712  54.155 -50.809  1.00  0.00     0.159 HD
HETATM   20  H   UNL     1     -43.869  55.447 -49.618  1.00  0.00     0.159 HD
HETATM   21  O   UNL     1     -41.391  55.657 -49.292  1.00  0.00    -0.266 OA
ENDBRANCH  11  17
ENDBRANCH   4   7
BRANCH   2  22
HETATM   22  C   UNL     1     -42.049  57.831 -57.062  1.00  0.00     0.153 C 
BRANCH  22  23
HETATM   23  C   UNL     1     -42.667  58.510 -55.830  1.00  0.00     0.195 C 
BRANCH  23  24
HETATM   24  O   UNL     1     -41.806  59.572 -55.399  1.00  0.00    -0.350 OA
BRANCH  24  25
HETATM   25  C   UNL     1     -41.575  59.512 -54.054  1.00  0.00     0.068 A 
HETATM   26  C   UNL     1     -42.267  60.398 -53.232  1.00  0.00     0.038 A 
HETATM   27  C   UNL     1     -42.083  60.351 -51.849  1.00  0.00     0.026 A 
HETATM   28  C   UNL     1     -41.218  59.406 -51.302  1.00  0.00     0.034 A 
HETATM   29 CL   UNL     1     -40.989  59.342 -49.597  1.00  0.00    -0.084 Cl
HETATM   30  C   UNL     1     -40.540  58.504 -52.124  1.00  0.00     0.026 A 
HETATM   31  C   UNL     1     -40.722  58.552 -53.508  1.00  0.00     0.038 A 
ENDBRANCH  24  25
ENDBRANCH  23  24
ENDBRANCH  22  23
ENDBRANCH   2  22
TORSDOF 6
ENDMDL
MODEL 5
REMARK VINA RESULT:      -7.6      3.609      7.233
REMARK  6 active torsions:
REMARK  status: ('A' for Active; 'I' for Inactive)
REMARK       I    between atoms: N_2  and  C_3 
REMARK    1  A    between atoms: N_2  and  C_19 
REMARK       I    between atoms: C_3  and  N_4 
REMARK    2  A    between atoms: N_4  and  C_5 
REMARK    3  A    between atoms: C_12  and  C_13 
REMARK       I    between atoms: C_13  and  N_14 
REMARK    4  A    between atoms: C_19  and  C_20 
REMARK    5  A    between atoms: C_20  and  O_21 
REMARK    6  A    between atoms: O_21  and  C_22 
ROOT
HETATM    1  C   UNL     1     -42.153  60.026 -53.576  1.00  0.00     0.154 C 
HETATM    2  N   UNL     1     -42.583  58.695 -53.979  1.00  0.00    -0.336 N 
HETATM    3  C   UNL     1     -41.713  57.648 -53.647  1.00  0.00     0.322 C 
HETATM    4  N   UNL     1     -42.210  56.396 -53.923  1.00  0.00    -0.309 N 
HETATM    5  O   UNL     1     -40.627  57.863 -53.113  1.00  0.00    -0.247 OA
HETATM    6  H   UNL     1     -43.215  56.330 -53.920  1.00  0.00     0.170 HD
ENDROOT
BRANCH   4   7
HETATM    7  C   UNL     1     -41.502  55.176 -53.898  1.00  0.00     0.037 A 
HETATM    8  C   UNL     1     -41.302  54.433 -52.727  1.00  0.00     0.046 A 
HETATM    9  C   UNL     1     -40.541  53.244 -52.777  1.00  0.00     0.030 A 
HETATM   10  C   UNL     1     -40.026  52.830 -53.998  1.00  0.00     0.063 A 
HETATM   11  C   UNL     1     -40.099  52.267 -51.837  1.00  0.00     0.156 A 
HETATM   12  N   UNL     1     -39.370  51.660 -53.735  1.00  0.00    -0.277 N 
HETATM   13  C   UNL     1     -40.205  53.546 -55.184  1.00  0.00     0.034 A 
HETATM   14  H   UNL     1     -38.879  51.071 -54.397  1.00  0.00     0.189 HD
HETATM   15  N   UNL     1     -39.389  51.288 -52.444  1.00  0.00    -0.168 NA
HETATM   16  C   UNL     1     -40.942  54.735 -55.104  1.00  0.00     0.032 A 
BRANCH  11  17
HETATM   17  C   UNL     1     -40.325  52.254 -50.385  1.00  0.00     0.270 C 
HETATM   18  N   UNL     1     -40.464  51.001 -49.852  1.00  0.00    -0.365 N 
HETATM   19  H   UNL     1     -40.373  50.201 -50.468  1.00  0.00     0.159 HD
HETATM   20  H   UNL     1     -40.582  50.891 -48.858  1.00  0.00     0.159 HD
HETATM   21  O   UNL     1     -40.373  53.253 -49.675  1.00  0.00    -0.266 OA
ENDBRANCH  11  17
ENDBRANCH   4   7
BRANCH   2  22
HETATM   22  C   UNL     1     -43.498  58.633 -55.133  1.00  0.00     0.153 C 
BRANCH  22  23
HETATM   23  C   UNL     1     -42.827  58.995 -56.467  1.00  0.00     0.195 C 
BRANCH  23  24
HETATM   24  O   UNL     1     -42.098  57.858 -56.949  1.00  0.00    -0.350 OA
BRANCH  24  25
HETATM   25  C   UNL     1     -42.793  57.197 -57.921  1.00  0.00     0.068 A 
HETATM   26  C   UNL     1     -43.127  57.899 -59.077  1.00  0.00     0.038 A 
HETATM   27  C   UNL     1     -43.812  57.254 -60.109  1.00  0.00     0.026 A 
HETATM   28  C   UNL     1     -44.141  55.907 -59.978  1.00  0.00     0.034 A 
HETATM   29 CL   UNL     1     -44.983  55.106 -61.247  1.00  0.00    -0.084 Cl
HETATM   30  C   UNL     1     -43.788  55.197 -58.828  1.00  0.00     0.026 A 
HETATM   31  C   UNL     1     -43.105  55.843 -57.795  1.00  0.00     0.038 A 
ENDBRANCH  24  25
ENDBRANCH  23  24
ENDBRANCH  22  23
ENDBRANCH   2  22
TORSDOF 6
ENDMDL
MODEL 6
REMARK VINA RESULT:      -7.4      3.629      6.734
REMARK  6 active torsions:
REMARK  status: ('A' for Active; 'I' for Inactive)
REMARK       I    between atoms: N_2  and  C_3 
REMARK    1  A    between atoms: N_2  and  C_19 
REMARK       I    between atoms: C_3  and  N_4 
REMARK    2  A    between atoms: N_4  and  C_5 
REMARK    3  A    between atoms: C_12  and  C_13 
REMARK       I    between atoms: C_13  and  N_14 
REMARK    4  A    between atoms: C_19  and  C_20 
REMARK    5  A    between atoms: C_20  and  O_21 
REMARK    6  A    between atoms: O_21  and  C_22 
ROOT
HETATM    1  C   UNL     1     -42.448  60.506 -51.751  1.00  0.00     0.154 C 
HETATM    2  N   UNL     1     -42.925  59.181 -51.383  1.00  0.00    -0.336 N 
HETATM    3  C   UNL     1     -41.937  58.198 -51.234  1.00  0.00     0.322 C 
HETATM    4  N   UNL     1     -42.407  56.996 -50.758  1.00  0.00    -0.309 N 
HETATM    5  O   UNL     1     -40.755  58.437 -51.472  1.00  0.00    -0.247 OA
HETATM    6  H   UNL     1     -43.242  57.060 -50.199  1.00  0.00     0.170 HD
ENDROOT
BRANCH   4   7
HETATM    7  C   UNL     1     -41.708  55.772 -50.703  1.00  0.00     0.037 A 
HETATM    8  C   UNL     1     -41.454  54.986 -51.836  1.00  0.00     0.046 A 
HETATM    9  C   UNL     1     -40.787  53.750 -51.691  1.00  0.00     0.030 A 
HETATM   10  C   UNL     1     -40.378  53.354 -50.425  1.00  0.00     0.063 A 
HETATM   11  C   UNL     1     -40.391  52.689 -52.558  1.00  0.00     0.156 A 
HETATM   12  N   UNL     1     -39.755  52.152 -50.606  1.00  0.00    -0.277 N 
HETATM   13  C   UNL     1     -40.615  54.111 -49.275  1.00  0.00     0.034 A 
HETATM   14  H   UNL     1     -39.322  51.572 -49.896  1.00  0.00     0.189 HD
HETATM   15  N   UNL     1     -39.743  51.715 -51.877  1.00  0.00    -0.168 NA
HETATM   16  C   UNL     1     -41.301  55.321 -49.441  1.00  0.00     0.032 A 
BRANCH  11  17
HETATM   17  C   UNL     1     -40.627  52.578 -54.004  1.00  0.00     0.270 C 
HETATM   18  N   UNL     1     -40.068  53.587 -54.741  1.00  0.00    -0.365 N 
HETATM   19  H   UNL     1     -39.524  54.293 -54.258  1.00  0.00     0.159 HD
HETATM   20  H   UNL     1     -40.143  53.573 -55.745  1.00  0.00     0.159 HD
HETATM   21  O   UNL     1     -41.250  51.670 -54.544  1.00  0.00    -0.266 OA
ENDBRANCH  11  17
ENDBRANCH   4   7
BRANCH   2  22
HETATM   22  C   UNL     1     -44.312  58.861 -51.769  1.00  0.00     0.153 C 
BRANCH  22  23
HETATM   23  C   UNL     1     -44.469  58.523 -53.260  1.00  0.00     0.195 C 
BRANCH  23  24
HETATM   24  O   UNL     1     -44.328  57.106 -53.436  1.00  0.00    -0.350 OA
BRANCH  24  25
HETATM   25  C   UNL     1     -43.978  56.797 -54.719  1.00  0.00     0.068 A 
HETATM   26  C   UNL     1     -44.366  57.672 -55.732  1.00  0.00     0.038 A 
HETATM   27  C   UNL     1     -44.004  57.409 -57.054  1.00  0.00     0.026 A 
HETATM   28  C   UNL     1     -43.243  56.279 -57.347  1.00  0.00     0.034 A 
HETATM   29 CL   UNL     1     -42.793  55.951 -58.975  1.00  0.00    -0.084 Cl
HETATM   30  C   UNL     1     -42.836  55.413 -56.330  1.00  0.00     0.026 A 
HETATM   31  C   UNL     1     -43.200  55.675 -55.008  1.00  0.00     0.038 A 
ENDBRANCH  24  25
ENDBRANCH  23  24
ENDBRANCH  22  23
ENDBRANCH   2  22
TORSDOF 6
ENDMDL
MODEL 7
REMARK VINA RESULT:      -7.3      2.984      6.546
REMARK  6 active torsions:
REMARK  status: ('A' for Active; 'I' for Inactive)
REMARK       I    between atoms: N_2  and  C_3 
REMARK    1  A    between atoms: N_2  and  C_19 
REMARK       I    between atoms: C_3  and  N_4 
REMARK    2  A    between atoms: N_4  and  C_5 
REMARK    3  A    between atoms: C_12  and  C_13 
REMARK       I    between atoms: C_13  and  N_14 
REMARK    4  A    between atoms: C_19  and  C_20 
REMARK    5  A    between atoms: C_20  and  O_21 
REMARK    6  A    between atoms: O_21  and  C_22 
ROOT
HETATM    1  C   UNL     1     -42.306  58.519 -58.682  1.00  0.00     0.154 C 
HETATM    2  N   UNL     1     -42.948  58.077 -57.453  1.00  0.00    -0.336 N 
HETATM    3  C   UNL     1     -42.524  58.718 -56.281  1.00  0.00     0.322 C 
HETATM    4  N   UNL     1     -43.242  58.371 -55.160  1.00  0.00    -0.309 N 
HETATM    5  O   UNL     1     -41.617  59.547 -56.297  1.00  0.00    -0.247 OA
HETATM    6  H   UNL     1     -44.185  58.068 -55.339  1.00  0.00     0.170 HD
ENDROOT
BRANCH   4   7
HETATM    7  C   UNL     1     -42.926  58.680 -53.820  1.00  0.00     0.037 A 
HETATM    8  C   UNL     1     -41.613  58.869 -53.369  1.00  0.00     0.046 A 
HETATM    9  C   UNL     1     -41.375  59.130 -52.002  1.00  0.00     0.030 A 
HETATM   10  C   UNL     1     -42.459  59.215 -51.139  1.00  0.00     0.063 A 
HETATM   11  C   UNL     1     -40.228  59.335 -51.179  1.00  0.00     0.156 A 
HETATM   12  N   UNL     1     -41.924  59.492 -49.913  1.00  0.00    -0.277 N 
HETATM   13  C   UNL     1     -43.781  59.031 -51.553  1.00  0.00     0.034 A 
HETATM   14  H   UNL     1     -42.424  59.632 -49.043  1.00  0.00     0.189 HD
HETATM   15  N   UNL     1     -40.583  59.571 -49.895  1.00  0.00    -0.168 NA
HETATM   16  C   UNL     1     -43.988  58.748 -52.910  1.00  0.00     0.032 A 
BRANCH  11  17
HETATM   17  C   UNL     1     -38.816  59.297 -51.585  1.00  0.00     0.270 C 
HETATM   18  N   UNL     1     -37.934  59.340 -50.540  1.00  0.00    -0.365 N 
HETATM   19  H   UNL     1     -38.303  59.362 -49.596  1.00  0.00     0.159 HD
HETATM   20  H   UNL     1     -36.944  59.278 -50.718  1.00  0.00     0.159 HD
HETATM   21  O   UNL     1     -38.423  59.216 -52.744  1.00  0.00    -0.266 OA
ENDBRANCH  11  17
ENDBRANCH   4   7
BRANCH   2  22
HETATM   22  C   UNL     1     -43.481  56.702 -57.459  1.00  0.00     0.153 C 
BRANCH  22  23
HETATM   23  C   UNL     1     -42.612  55.706 -56.675  1.00  0.00     0.195 C 
BRANCH  23  24
HETATM   24  O   UNL     1     -43.191  55.498 -55.379  1.00  0.00    -0.350 OA
BRANCH  24  25
HETATM   25  C   UNL     1     -42.392  54.714 -54.597  1.00  0.00     0.068 A 
HETATM   26  C   UNL     1     -41.225  54.203 -55.161  1.00  0.00     0.038 A 
HETATM   27  C   UNL     1     -40.364  53.422 -54.388  1.00  0.00     0.026 A 
HETATM   28  C   UNL     1     -40.674  53.173 -53.052  1.00  0.00     0.034 A 
HETATM   29 CL   UNL     1     -39.616  52.211 -52.094  1.00  0.00    -0.084 Cl
HETATM   30  C   UNL     1     -41.833  53.703 -52.482  1.00  0.00     0.026 A 
HETATM   31  C   UNL     1     -42.695  54.482 -53.255  1.00  0.00     0.038 A 
ENDBRANCH  24  25
ENDBRANCH  23  24
ENDBRANCH  22  23
ENDBRANCH   2  22
TORSDOF 6
ENDMDL
MODEL 8
REMARK VINA RESULT:      -7.3      2.276      3.132
REMARK  6 active torsions:
REMARK  status: ('A' for Active; 'I' for Inactive)
REMARK       I    between atoms: N_2  and  C_3 
REMARK    1  A    between atoms: N_2  and  C_19 
REMARK       I    between atoms: C_3  and  N_4 
REMARK    2  A    between atoms: N_4  and  C_5 
REMARK    3  A    between atoms: C_12  and  C_13 
REMARK       I    between atoms: C_13  and  N_14 
REMARK    4  A    between atoms: C_19  and  C_20 
REMARK    5  A    between atoms: C_20  and  O_21 
REMARK    6  A    between atoms: O_21  and  C_22 
ROOT
HETATM    1  C   UNL     1     -40.916  57.784 -51.015  1.00  0.00     0.154 C 
HETATM    2  N   UNL     1     -41.679  56.883 -51.867  1.00  0.00    -0.336 N 
HETATM    3  C   UNL     1     -41.844  57.298 -53.195  1.00  0.00     0.322 C 
HETATM    4  N   UNL     1     -42.453  56.365 -54.003  1.00  0.00    -0.309 N 
HETATM    5  O   UNL     1     -41.427  58.387 -53.583  1.00  0.00    -0.247 OA
HETATM    6  H   UNL     1     -42.332  55.410 -53.710  1.00  0.00     0.170 HD
ENDROOT
BRANCH   4   7
HETATM    7  C   UNL     1     -42.940  56.564 -55.312  1.00  0.00     0.037 A 
HETATM    8  C   UNL     1     -43.862  57.567 -55.639  1.00  0.00     0.046 A 
HETATM    9  C   UNL     1     -44.337  57.673 -56.965  1.00  0.00     0.030 A 
HETATM   10  C   UNL     1     -43.857  56.786 -57.920  1.00  0.00     0.063 A 
HETATM   11  C   UNL     1     -45.268  58.500 -57.660  1.00  0.00     0.156 A 
HETATM   12  N   UNL     1     -44.472  57.145 -59.087  1.00  0.00    -0.277 N 
HETATM   13  C   UNL     1     -42.939  55.774 -57.629  1.00  0.00     0.034 A 
HETATM   14  H   UNL     1     -44.352  56.719 -59.998  1.00  0.00     0.189 HD
HETATM   15  N   UNL     1     -45.330  58.172 -58.972  1.00  0.00    -0.168 NA
HETATM   16  C   UNL     1     -42.503  55.674 -56.301  1.00  0.00     0.032 A 
BRANCH  11  17
HETATM   17  C   UNL     1     -46.100  59.576 -57.104  1.00  0.00     0.270 C 
HETATM   18  N   UNL     1     -47.440  59.424 -57.340  1.00  0.00    -0.365 N 
HETATM   19  H   UNL     1     -47.753  58.596 -57.833  1.00  0.00     0.159 HD
HETATM   20  H   UNL     1     -48.092  60.091 -56.961  1.00  0.00     0.159 HD
HETATM   21  O   UNL     1     -45.673  60.532 -56.465  1.00  0.00    -0.266 OA
ENDBRANCH  11  17
ENDBRANCH   4   7
BRANCH   2  22
HETATM   22  C   UNL     1     -42.647  56.008 -51.181  1.00  0.00     0.153 C 
BRANCH  22  23
HETATM   23  C   UNL     1     -42.123  54.583 -50.944  1.00  0.00     0.195 C 
BRANCH  23  24
HETATM   24  O   UNL     1     -40.726  54.538 -51.268  1.00  0.00    -0.350 OA
BRANCH  24  25
HETATM   25  C   UNL     1     -40.436  53.475 -52.074  1.00  0.00     0.068 A 
HETATM   26  C   UNL     1     -39.806  52.373 -51.499  1.00  0.00     0.038 A 
HETATM   27  C   UNL     1     -39.518  51.252 -52.280  1.00  0.00     0.026 A 
HETATM   28  C   UNL     1     -39.877  51.241 -53.626  1.00  0.00     0.034 A 
HETATM   29 CL   UNL     1     -39.524  49.862 -54.593  1.00  0.00    -0.084 Cl
HETATM   30  C   UNL     1     -40.527  52.337 -54.197  1.00  0.00     0.026 A 
HETATM   31  C   UNL     1     -40.813  53.459 -53.417  1.00  0.00     0.038 A 
ENDBRANCH  24  25
ENDBRANCH  23  24
ENDBRANCH  22  23
ENDBRANCH   2  22
TORSDOF 6
ENDMDL
MODEL 9
REMARK VINA RESULT:      -7.0      2.194      2.744
REMARK  6 active torsions:
REMARK  status: ('A' for Active; 'I' for Inactive)
REMARK       I    between atoms: N_2  and  C_3 
REMARK    1  A    between atoms: N_2  and  C_19 
REMARK       I    between atoms: C_3  and  N_4 
REMARK    2  A    between atoms: N_4  and  C_5 
REMARK    3  A    between atoms: C_12  and  C_13 
REMARK       I    between atoms: C_13  and  N_14 
REMARK    4  A    between atoms: C_19  and  C_20 
REMARK    5  A    between atoms: C_20  and  O_21 
REMARK    6  A    between atoms: O_21  and  C_22 
ROOT
HETATM    1  C   UNL     1     -41.353  58.672 -52.752  1.00  0.00     0.154 C 
HETATM    2  N   UNL     1     -42.143  57.662 -53.442  1.00  0.00    -0.336 N 
HETATM    3  C   UNL     1     -42.315  57.863 -54.819  1.00  0.00     0.322 C 
HETATM    4  N   UNL     1     -42.951  56.826 -55.462  1.00  0.00    -0.309 N 
HETATM    5  O   UNL     1     -41.882  58.867 -55.379  1.00  0.00    -0.247 OA
HETATM    6  H   UNL     1     -42.845  55.927 -55.021  1.00  0.00     0.170 HD
ENDROOT
BRANCH   4   7
HETATM    7  C   UNL     1     -43.449  56.823 -56.781  1.00  0.00     0.037 A 
HETATM    8  C   UNL     1     -44.507  57.641 -57.200  1.00  0.00     0.046 A 
HETATM    9  C   UNL     1     -44.979  57.546 -58.527  1.00  0.00     0.030 A 
HETATM   10  C   UNL     1     -44.363  56.653 -59.394  1.00  0.00     0.063 A 
HETATM   11  C   UNL     1     -46.016  58.154 -59.295  1.00  0.00     0.156 A 
HETATM   12  N   UNL     1     -45.013  56.802 -60.587  1.00  0.00    -0.277 N 
HETATM   13  C   UNL     1     -43.308  55.822 -59.011  1.00  0.00     0.034 A 
HETATM   14  H   UNL     1     -44.823  56.313 -61.454  1.00  0.00     0.189 HD
HETATM   15  N   UNL     1     -46.016  57.696 -60.568  1.00  0.00    -0.168 NA
HETATM   16  C   UNL     1     -42.875  55.917 -57.682  1.00  0.00     0.032 A 
BRANCH  11  17
HETATM   17  C   UNL     1     -47.005  59.142 -58.841  1.00  0.00     0.270 C 
HETATM   18  N   UNL     1     -47.142  60.219 -59.676  1.00  0.00    -0.365 N 
HETATM   19  H   UNL     1     -46.597  60.241 -60.530  1.00  0.00     0.159 HD
HETATM   20  H   UNL     1     -47.826  60.928 -59.468  1.00  0.00     0.159 HD
HETATM   21  O   UNL     1     -47.680  59.041 -57.822  1.00  0.00    -0.266 OA
ENDBRANCH  11  17
ENDBRANCH   4   7
BRANCH   2  22
HETATM   22  C   UNL     1     -43.119  56.928 -52.617  1.00  0.00     0.153 C 
BRANCH  22  23
HETATM   23  C   UNL     1     -42.698  55.481 -52.314  1.00  0.00     0.195 C 
BRANCH  23  24
HETATM   24  O   UNL     1     -41.267  55.397 -52.329  1.00  0.00    -0.350 OA
BRANCH  24  25
HETATM   25  C   UNL     1     -40.844  54.163 -52.734  1.00  0.00     0.068 A 
HETATM   26  C   UNL     1     -40.950  53.849 -54.087  1.00  0.00     0.038 A 
HETATM   27  C   UNL     1     -40.503  52.610 -54.550  1.00  0.00     0.026 A 
HETATM   28  C   UNL     1     -39.940  51.704 -53.654  1.00  0.00     0.034 A 
HETATM   29 CL   UNL     1     -39.386  50.175 -54.218  1.00  0.00    -0.084 Cl
HETATM   30  C   UNL     1     -39.816  52.027 -52.301  1.00  0.00     0.026 A 
HETATM   31  C   UNL     1     -40.265  53.265 -51.838  1.00  0.00     0.038 A 
ENDBRANCH  24  25
ENDBRANCH  23  24
ENDBRANCH  22  23
ENDBRANCH   2  22
TORSDOF 6
ENDMDL
MODEL 10
REMARK VINA RESULT:      -6.9      5.099      7.770
REMARK  6 active torsions:
REMARK  status: ('A' for Active; 'I' for Inactive)
REMARK       I    between atoms: N_2  and  C_3 
REMARK    1  A    between atoms: N_2  and  C_19 
REMARK       I    between atoms: C_3  and  N_4 
REMARK    2  A    between atoms: N_4  and  C_5 
REMARK    3  A    between atoms: C_12  and  C_13 
REMARK       I    between atoms: C_13  and  N_14 
REMARK    4  A    between atoms: C_19  and  C_20 
REMARK    5  A    between atoms: C_20  and  O_21 
REMARK    6  A    between atoms: O_21  and  C_22 
ROOT
HETATM    1  C   UNL     1     -43.959  55.264 -51.012  1.00  0.00     0.154 C 
HETATM    2  N   UNL     1     -43.392  56.603 -50.950  1.00  0.00    -0.336 N 
HETATM    3  C   UNL     1     -44.319  57.655 -50.932  1.00  0.00     0.322 C 
HETATM    4  N   UNL     1     -43.756  58.896 -50.739  1.00  0.00    -0.309 N 
HETATM    5  O   UNL     1     -45.525  57.447 -51.034  1.00  0.00    -0.247 OA
HETATM    6  H   UNL     1     -42.883  58.891 -50.238  1.00  0.00     0.170 HD
ENDROOT
BRANCH   4   7
HETATM    7  C   UNL     1     -44.391  60.147 -50.881  1.00  0.00     0.037 A 
HETATM    8  C   UNL     1     -45.025  60.807 -49.819  1.00  0.00     0.046 A 
HETATM    9  C   UNL     1     -45.679  62.036 -50.053  1.00  0.00     0.030 A 
HETATM   10  C   UNL     1     -45.657  62.573 -51.333  1.00  0.00     0.063 A 
HETATM   11  C   UNL     1     -46.439  62.960 -49.275  1.00  0.00     0.156 A 
HETATM   12  N   UNL     1     -46.340  63.753 -51.241  1.00  0.00    -0.277 N 
HETATM   13  C   UNL     1     -45.036  61.943 -52.414  1.00  0.00     0.034 A 
HETATM   14  H   UNL     1     -46.516  64.420 -51.984  1.00  0.00     0.189 HD
HETATM   15  N   UNL     1     -46.829  64.021 -50.018  1.00  0.00    -0.168 NA
HETATM   16  C   UNL     1     -44.417  60.712 -52.162  1.00  0.00     0.032 A 
BRANCH  11  17
HETATM   17  C   UNL     1     -46.808  62.846 -47.857  1.00  0.00     0.270 C 
HETATM   18  N   UNL     1     -48.157  62.888 -47.627  1.00  0.00    -0.365 N 
HETATM   19  H   UNL     1     -48.781  62.960 -48.423  1.00  0.00     0.159 HD
HETATM   20  H   UNL     1     -48.508  62.777 -46.690  1.00  0.00     0.159 HD
HETATM   21  O   UNL     1     -46.012  62.706 -46.935  1.00  0.00    -0.266 OA
ENDBRANCH  11  17
ENDBRANCH   4   7
BRANCH   2  22
HETATM   22  C   UNL     1     -42.028  56.755 -51.488  1.00  0.00     0.153 C 
BRANCH  22  23
HETATM   23  C   UNL     1     -41.577  55.571 -52.356  1.00  0.00     0.195 C 
BRANCH  23  24
HETATM   24  O   UNL     1     -40.690  54.741 -51.594  1.00  0.00    -0.350 OA
BRANCH  24  25
HETATM   25  C   UNL     1     -40.428  53.567 -52.240  1.00  0.00     0.068 A 
HETATM   26  C   UNL     1     -40.718  53.491 -53.600  1.00  0.00     0.038 A 
HETATM   27  C   UNL     1     -40.438  52.319 -54.306  1.00  0.00     0.026 A 
HETATM   28  C   UNL     1     -39.857  51.240 -53.644  1.00  0.00     0.034 A 
HETATM   29 CL   UNL     1     -39.509  49.793 -54.509  1.00  0.00    -0.084 Cl
HETATM   30  C   UNL     1     -39.548  51.323 -52.285  1.00  0.00     0.026 A 
HETATM   31  C   UNL     1     -39.829  52.494 -51.579  1.00  0.00     0.038 A 
ENDBRANCH  24  25
ENDBRANCH  23  24
ENDBRANCH  22  23
ENDBRANCH   2  22
TORSDOF 6
ENDMDL
