MODEL 1
REMARK VINA RESULT:      -8.3      0.000      0.000
REMARK  13 active torsions:
REMARK  status: ('A' for Active; 'I' for Inactive)
REMARK    1  A    between atoms: C_2  and  O_3 
REMARK    2  A    between atoms: O_3  and  C_4 
REMARK    3  A    between atoms: C_5  and  O_6 
REMARK    4  A    between atoms: C_9  and  C_10 
REMARK    5  A    between atoms: N_11  and  C_12 
REMARK    6  A    between atoms: C_12  and  C_13 
REMARK    7  A    between atoms: C_13  and  N_14 
REMARK    8  A    between atoms: C_23  and  O_24 
REMARK    9  A    between atoms: C_25  and  C_26 
REMARK   10  A    between atoms: C_26  and  C_27 
REMARK   11  A    between atoms: C_31  and  O_32 
REMARK   12  A    between atoms: O_32  and  C_33 
REMARK   13  A    between atoms: C_33  and  C_34 
ROOT
HETATM    1  C   UNL     1     -43.766  60.376 -52.791  1.00  0.00     0.161 A 
HETATM    2  N   UNL     1     -45.138  60.877 -52.707  1.00  0.00    -0.332 N 
HETATM    3  C   UNL     1     -45.863  60.194 -51.767  1.00  0.00     0.278 A 
HETATM    4  O   UNL     1     -47.069  60.262 -51.597  1.00  0.00    -0.265 OA
HETATM    5  C   UNL     1     -44.960  59.263 -51.077  1.00  0.00     0.146 A 
HETATM    6  C   UNL     1     -43.762  59.375 -51.668  1.00  0.00     0.059 A 
ENDROOT
BRANCH   6   7
HETATM    7  C   UNL     1     -42.504  58.681 -51.315  1.00  0.00     0.194 C 
HETATM    8  O   UNL     1     -41.725  59.162 -50.504  1.00  0.00    -0.287 OA
BRANCH   7   9
HETATM    9  C   UNL     1     -42.220  57.378 -51.946  1.00  0.00     0.021 A 
HETATM   10  C   UNL     1     -41.214  57.243 -52.914  1.00  0.00    -0.045 A 
HETATM   11  C   UNL     1     -40.264  58.355 -53.248  1.00  0.00     0.049 C 
HETATM   12  C   UNL     1     -41.082  56.003 -53.559  1.00  0.00     0.044 A 
HETATM   13  C   UNL     1     -41.941  54.937 -53.264  1.00  0.00     0.069 A 
HETATM   14  C   UNL     1     -42.893  55.075 -52.254  1.00  0.00     0.038 A 
HETATM   15  C   UNL     1     -43.033  56.295 -51.590  1.00  0.00     0.019 A 
BRANCH  13  16
HETATM   16  O   UNL     1     -41.744  53.815 -54.020  1.00  0.00    -0.347 OA
BRANCH  16  17
HETATM   17  C   UNL     1     -40.385  53.468 -54.288  1.00  0.00     0.214 C 
BRANCH  17  18
HETATM   18  C   UNL     1     -40.092  52.143 -53.631  1.00  0.00    -0.034 A 
HETATM   19  C   UNL     1     -39.810  52.080 -52.259  1.00  0.00     0.009 A 
HETATM   20  C   UNL     1     -39.538  50.856 -51.647  1.00  0.00     0.001 A 
HETATM   21  C   UNL     1     -39.538  49.684 -52.402  1.00  0.00     0.000 A 
HETATM   22  C   UNL     1     -39.802  49.734 -53.768  1.00  0.00     0.001 A 
HETATM   23  C   UNL     1     -40.074  50.959 -54.382  1.00  0.00     0.009 A 
ENDBRANCH  17  18
ENDBRANCH  16  17
ENDBRANCH  13  16
ENDBRANCH   7   9
ENDBRANCH   6   7
BRANCH   1  24
HETATM   24  C   UNL     1     -43.512  59.824 -54.183  1.00  0.00    -0.028 A 
HETATM   25  C   UNL     1     -44.182  58.651 -54.581  1.00  0.00     0.012 A 
HETATM   26  C   UNL     1     -43.893  58.043 -55.803  1.00  0.00     0.040 A 
HETATM   27  C   UNL     1     -42.948  58.614 -56.639  1.00  0.00     0.099 A 
HETATM   28  C   UNL     1     -42.298  59.799 -56.295  1.00  0.00     0.102 A 
HETATM   29  C   UNL     1     -42.561  60.391 -55.058  1.00  0.00     0.049 A 
BRANCH  27  30
HETATM   30  O   UNL     1     -42.672  57.988 -57.821  1.00  0.00    -0.358 OA
HETATM   31  H   UNL     1     -42.156  58.625 -58.353  1.00  0.00     0.218 HD
ENDBRANCH  27  30
BRANCH  28  32
HETATM   32  O   UNL     1     -41.381  60.266 -57.199  1.00  0.00    -0.349 OA
BRANCH  32  33
HETATM   33  C   UNL     1     -41.767  61.457 -57.892  1.00  0.00     0.171 C 
HETATM   34  C   UNL     1     -40.517  62.079 -58.487  1.00  0.00     0.034 C 
ENDBRANCH  32  33
ENDBRANCH  28  32
ENDBRANCH   1  24
BRANCH   5  35
HETATM   35  O   UNL     1     -45.354  58.471 -50.045  1.00  0.00    -0.355 OA
HETATM   36  H   UNL     1     -45.425  57.556 -50.383  1.00  0.00     0.218 HD
ENDBRANCH   5  35
BRANCH   2  37
HETATM   37  C   UNL     1     -45.652  61.981 -53.518  1.00  0.00     0.155 C 
BRANCH  37  38
HETATM   38  C   UNL     1     -45.779  63.321 -52.761  1.00  0.00     0.255 C 
BRANCH  38  39
HETATM   39  N   UNL     1     -46.943  63.316 -51.791  1.00  0.00    -0.066 N 
HETATM   40  H   UNL     1     -47.100  62.339 -51.500  1.00  0.00     0.280 HD
HETATM   41  C   UNL     1     -46.674  64.052 -50.483  1.00  0.00     0.261 C 
HETATM   42  C   UNL     1     -47.891  63.894 -49.561  1.00  0.00     0.195 C 
HETATM   43  O   UNL     1     -49.078  64.388 -50.192  1.00  0.00    -0.388 OA
HETATM   44  C   UNL     1     -49.376  63.675 -51.398  1.00  0.00     0.195 C 
HETATM   45  C   UNL     1     -48.238  63.813 -52.415  1.00  0.00     0.261 C 
ENDBRANCH  38  39
ENDBRANCH  37  38
ENDBRANCH   2  37
TORSDOF 13
ENDMDL
MODEL 2
REMARK VINA RESULT:      -8.1      2.945      6.166
REMARK  13 active torsions:
REMARK  status: ('A' for Active; 'I' for Inactive)
REMARK    1  A    between atoms: C_2  and  O_3 
REMARK    2  A    between atoms: O_3  and  C_4 
REMARK    3  A    between atoms: C_5  and  O_6 
REMARK    4  A    between atoms: C_9  and  C_10 
REMARK    5  A    between atoms: N_11  and  C_12 
REMARK    6  A    between atoms: C_12  and  C_13 
REMARK    7  A    between atoms: C_13  and  N_14 
REMARK    8  A    between atoms: C_23  and  O_24 
REMARK    9  A    between atoms: C_25  and  C_26 
REMARK   10  A    between atoms: C_26  and  C_27 
REMARK   11  A    between atoms: C_31  and  O_32 
REMARK   12  A    between atoms: O_32  and  C_33 
REMARK   13  A    between atoms: C_33  and  C_34 
ROOT
HETATM    1  C   UNL     1     -43.249  59.138 -55.172  1.00  0.00     0.161 A 
HETATM    2  N   UNL     1     -42.551  59.599 -56.372  1.00  0.00    -0.332 N 
HETATM    3  C   UNL     1     -42.406  58.588 -57.286  1.00  0.00     0.278 A 
HETATM    4  O   UNL     1     -41.718  58.619 -58.292  1.00  0.00    -0.265 OA
HETATM    5  C   UNL     1     -43.120  57.407 -56.781  1.00  0.00     0.146 A 
HETATM    6  C   UNL     1     -43.600  57.731 -55.573  1.00  0.00     0.059 A 
ENDROOT
BRANCH   6   7
HETATM    7  C   UNL     1     -44.427  56.901 -54.668  1.00  0.00     0.194 C 
HETATM    8  O   UNL     1     -45.649  56.958 -54.703  1.00  0.00    -0.287 OA
BRANCH   7   9
HETATM    9  C   UNL     1     -43.745  55.982 -53.739  1.00  0.00     0.021 A 
HETATM   10  C   UNL     1     -43.687  56.251 -52.362  1.00  0.00    -0.045 A 
HETATM   11  C   UNL     1     -44.443  57.382 -51.731  1.00  0.00     0.049 C 
HETATM   12  C   UNL     1     -42.918  55.396 -51.557  1.00  0.00     0.044 A 
HETATM   13  C   UNL     1     -42.210  54.322 -52.108  1.00  0.00     0.069 A 
HETATM   14  C   UNL     1     -42.332  54.037 -53.468  1.00  0.00     0.038 A 
HETATM   15  C   UNL     1     -43.102  54.866 -54.286  1.00  0.00     0.019 A 
BRANCH  13  16
HETATM   16  O   UNL     1     -41.445  53.621 -51.217  1.00  0.00    -0.347 OA
BRANCH  16  17
HETATM   17  C   UNL     1     -40.078  53.425 -51.579  1.00  0.00     0.214 C 
BRANCH  17  18
HETATM   18  C   UNL     1     -39.890  51.983 -51.975  1.00  0.00    -0.034 A 
HETATM   19  C   UNL     1     -39.829  50.982 -50.995  1.00  0.00     0.009 A 
HETATM   20  C   UNL     1     -39.655  49.646 -51.356  1.00  0.00     0.001 A 
HETATM   21  C   UNL     1     -39.532  49.297 -52.700  1.00  0.00     0.000 A 
HETATM   22  C   UNL     1     -39.576  50.284 -53.683  1.00  0.00     0.001 A 
HETATM   23  C   UNL     1     -39.750  51.621 -53.322  1.00  0.00     0.009 A 
ENDBRANCH  17  18
ENDBRANCH  16  17
ENDBRANCH  13  16
ENDBRANCH   7   9
ENDBRANCH   6   7
BRANCH   1  24
HETATM   24  C   UNL     1     -42.336  59.285 -53.967  1.00  0.00    -0.028 A 
HETATM   25  C   UNL     1     -41.149  58.528 -53.918  1.00  0.00     0.012 A 
HETATM   26  C   UNL     1     -40.340  58.542 -52.782  1.00  0.00     0.040 A 
HETATM   27  C   UNL     1     -40.703  59.325 -51.698  1.00  0.00     0.099 A 
HETATM   28  C   UNL     1     -41.848  60.120 -51.731  1.00  0.00     0.102 A 
HETATM   29  C   UNL     1     -42.677  60.082 -52.854  1.00  0.00     0.049 A 
BRANCH  27  30
HETATM   30  O   UNL     1     -39.902  59.305 -50.593  1.00  0.00    -0.358 OA
HETATM   31  H   UNL     1     -40.495  59.178 -49.827  1.00  0.00     0.218 HD
ENDBRANCH  27  30
BRANCH  28  32
HETATM   32  O   UNL     1     -42.107  60.848 -50.600  1.00  0.00    -0.349 OA
BRANCH  32  33
HETATM   33  C   UNL     1     -43.493  60.986 -50.273  1.00  0.00     0.171 C 
HETATM   34  C   UNL     1     -43.745  62.436 -49.899  1.00  0.00     0.034 C 
ENDBRANCH  32  33
ENDBRANCH  28  32
ENDBRANCH   1  24
BRANCH   5  35
HETATM   35  O   UNL     1     -43.218  56.243 -57.476  1.00  0.00    -0.355 OA
HETATM   36  H   UNL     1     -42.373  56.106 -57.949  1.00  0.00     0.218 HD
ENDBRANCH   5  35
BRANCH   2  37
HETATM   37  C   UNL     1     -42.089  60.973 -56.568  1.00  0.00     0.155 C 
BRANCH  37  38
HETATM   38  C   UNL     1     -42.945  61.798 -57.554  1.00  0.00     0.255 C 
BRANCH  38  39
HETATM   39  N   UNL     1     -42.115  62.372 -58.684  1.00  0.00    -0.066 N 
HETATM   40  H   UNL     1     -42.266  63.392 -58.692  1.00  0.00     0.280 HD
HETATM   41  C   UNL     1     -40.609  62.223 -58.495  1.00  0.00     0.261 C 
HETATM   42  C   UNL     1     -39.888  62.922 -59.656  1.00  0.00     0.195 C 
HETATM   43  O   UNL     1     -40.303  62.379 -60.916  1.00  0.00    -0.388 OA
HETATM   44  C   UNL     1     -41.708  62.555 -61.133  1.00  0.00     0.195 C 
HETATM   45  C   UNL     1     -42.527  61.845 -60.049  1.00  0.00     0.261 C 
ENDBRANCH  38  39
ENDBRANCH  37  38
ENDBRANCH   2  37
TORSDOF 13
ENDMDL
MODEL 3
REMARK VINA RESULT:      -8.0      2.757      4.660
REMARK  13 active torsions:
REMARK  status: ('A' for Active; 'I' for Inactive)
REMARK    1  A    between atoms: C_2  and  O_3 
REMARK    2  A    between atoms: O_3  and  C_4 
REMARK    3  A    between atoms: C_5  and  O_6 
REMARK    4  A    between atoms: C_9  and  C_10 
REMARK    5  A    between atoms: N_11  and  C_12 
REMARK    6  A    between atoms: C_12  and  C_13 
REMARK    7  A    between atoms: C_13  and  N_14 
REMARK    8  A    between atoms: C_23  and  O_24 
REMARK    9  A    between atoms: C_25  and  C_26 
REMARK   10  A    between atoms: C_26  and  C_27 
REMARK   11  A    between atoms: C_31  and  O_32 
REMARK   12  A    between atoms: O_32  and  C_33 
REMARK   13  A    between atoms: C_33  and  C_34 
ROOT
HETATM    1  C   UNL     1     -42.549  60.214 -54.854  1.00  0.00     0.161 A 
HETATM    2  N   UNL     1     -43.911  60.748 -54.840  1.00  0.00    -0.332 N 
HETATM    3  C   UNL     1     -44.597  60.344 -53.725  1.00  0.00     0.278 A 
HETATM    4  O   UNL     1     -45.792  60.479 -53.525  1.00  0.00    -0.265 OA
HETATM    5  C   UNL     1     -43.669  59.602 -52.860  1.00  0.00     0.146 A 
HETATM    6  C   UNL     1     -42.501  59.534 -53.513  1.00  0.00     0.059 A 
ENDROOT
BRANCH   6   7
HETATM    7  C   UNL     1     -41.233  58.926 -53.050  1.00  0.00     0.194 C 
HETATM    8  O   UNL     1     -40.170  59.521 -53.167  1.00  0.00    -0.287 OA
BRANCH   7   9
HETATM    9  C   UNL     1     -41.282  57.594 -52.419  1.00  0.00     0.021 A 
HETATM   10  C   UNL     1     -41.014  57.427 -51.052  1.00  0.00    -0.045 A 
HETATM   11  C   UNL     1     -40.826  58.587 -50.121  1.00  0.00     0.049 C 
HETATM   12  C   UNL     1     -40.958  56.118 -50.547  1.00  0.00     0.044 A 
HETATM   13  C   UNL     1     -41.142  55.010 -51.383  1.00  0.00     0.069 A 
HETATM   14  C   UNL     1     -41.469  55.201 -52.724  1.00  0.00     0.038 A 
HETATM   15  C   UNL     1     -41.542  56.495 -53.246  1.00  0.00     0.019 A 
BRANCH  13  16
HETATM   16  O   UNL     1     -40.987  53.797 -50.770  1.00  0.00    -0.347 OA
BRANCH  16  17
HETATM   17  C   UNL     1     -39.673  53.240 -50.800  1.00  0.00     0.214 C 
BRANCH  17  18
HETATM   18  C   UNL     1     -39.693  52.019 -51.685  1.00  0.00    -0.034 A 
HETATM   19  C   UNL     1     -39.762  52.155 -53.078  1.00  0.00     0.009 A 
HETATM   20  C   UNL     1     -39.782  51.028 -53.900  1.00  0.00     0.001 A 
HETATM   21  C   UNL     1     -39.740  49.753 -53.338  1.00  0.00     0.000 A 
HETATM   22  C   UNL     1     -39.687  49.604 -51.954  1.00  0.00     0.001 A 
HETATM   23  C   UNL     1     -39.668  50.731 -51.130  1.00  0.00     0.009 A 
ENDBRANCH  17  18
ENDBRANCH  16  17
ENDBRANCH  13  16
ENDBRANCH   7   9
ENDBRANCH   6   7
BRANCH   1  24
HETATM   24  C   UNL     1     -42.368  59.319 -56.068  1.00  0.00    -0.028 A 
HETATM   25  C   UNL     1     -41.899  59.889 -57.267  1.00  0.00     0.012 A 
HETATM   26  C   UNL     1     -41.829  59.132 -58.437  1.00  0.00     0.040 A 
HETATM   27  C   UNL     1     -42.208  57.800 -58.409  1.00  0.00     0.099 A 
HETATM   28  C   UNL     1     -42.635  57.194 -57.227  1.00  0.00     0.102 A 
HETATM   29  C   UNL     1     -42.739  57.958 -56.064  1.00  0.00     0.049 A 
BRANCH  27  30
HETATM   30  O   UNL     1     -42.146  57.088 -59.572  1.00  0.00    -0.358 OA
HETATM   31  H   UNL     1     -42.787  56.357 -59.480  1.00  0.00     0.218 HD
ENDBRANCH  27  30
BRANCH  28  32
HETATM   32  O   UNL     1     -42.988  55.874 -57.323  1.00  0.00    -0.349 OA
BRANCH  32  33
HETATM   33  C   UNL     1     -42.335  55.004 -56.392  1.00  0.00     0.171 C 
HETATM   34  C   UNL     1     -43.401  54.174 -55.699  1.00  0.00     0.034 C 
ENDBRANCH  32  33
ENDBRANCH  28  32
ENDBRANCH   1  24
BRANCH   5  35
HETATM   35  O   UNL     1     -44.020  59.108 -51.644  1.00  0.00    -0.355 OA
HETATM   36  H   UNL     1     -44.514  58.277 -51.790  1.00  0.00     0.218 HD
ENDBRANCH   5  35
BRANCH   2  37
HETATM   37  C   UNL     1     -44.454  61.619 -55.883  1.00  0.00     0.155 C 
BRANCH  37  38
HETATM   38  C   UNL     1     -45.759  61.104 -56.528  1.00  0.00     0.255 C 
BRANCH  38  39
HETATM   39  N   UNL     1     -45.494  60.030 -57.563  1.00  0.00    -0.066 N 
HETATM   40  H   UNL     1     -44.526  59.700 -57.428  1.00  0.00     0.280 HD
HETATM   41  C   UNL     1     -46.339  58.771 -57.393  1.00  0.00     0.261 C 
HETATM   42  C   UNL     1     -45.909  57.735 -58.441  1.00  0.00     0.195 C 
HETATM   43  O   UNL     1     -46.041  58.265 -59.766  1.00  0.00    -0.388 OA
HETATM   44  C   UNL     1     -45.215  59.419 -59.961  1.00  0.00     0.195 C 
HETATM   45  C   UNL     1     -45.599  60.542 -58.991  1.00  0.00     0.261 C 
ENDBRANCH  38  39
ENDBRANCH  37  38
ENDBRANCH   2  37
TORSDOF 13
ENDMDL
MODEL 4
REMARK VINA RESULT:      -7.9      1.939      3.515
REMARK  13 active torsions:
REMARK  status: ('A' for Active; 'I' for Inactive)
REMARK    1  A    between atoms: C_2  and  O_3 
REMARK    2  A    between atoms: O_3  and  C_4 
REMARK    3  A    between atoms: C_5  and  O_6 
REMARK    4  A    between atoms: C_9  and  C_10 
REMARK    5  A    between atoms: N_11  and  C_12 
REMARK    6  A    between atoms: C_12  and  C_13 
REMARK    7  A    between atoms: C_13  and  N_14 
REMARK    8  A    between atoms: C_23  and  O_24 
REMARK    9  A    between atoms: C_25  and  C_26 
REMARK   10  A    between atoms: C_26  and  C_27 
REMARK   11  A    between atoms: C_31  and  O_32 
REMARK   12  A    between atoms: O_32  and  C_33 
REMARK   13  A    between atoms: C_33  and  C_34 
ROOT
HETATM    1  C   UNL     1     -43.872  60.147 -53.316  1.00  0.00     0.161 A 
HETATM    2  N   UNL     1     -45.199  60.762 -53.354  1.00  0.00    -0.332 N 
HETATM    3  C   UNL     1     -45.824  60.680 -52.137  1.00  0.00     0.278 A 
HETATM    4  O   UNL     1     -46.993  60.939 -51.909  1.00  0.00    -0.265 OA
HETATM    5  C   UNL     1     -44.878  60.100 -51.174  1.00  0.00     0.146 A 
HETATM    6  C   UNL     1     -43.764  59.800 -51.855  1.00  0.00     0.059 A 
ENDROOT
BRANCH   6   7
HETATM    7  C   UNL     1     -42.501  59.233 -51.333  1.00  0.00     0.194 C 
HETATM    8  O   UNL     1     -41.716  59.924 -50.696  1.00  0.00    -0.287 OA
BRANCH   7   9
HETATM    9  C   UNL     1     -42.219  57.806 -51.574  1.00  0.00     0.021 A 
HETATM   10  C   UNL     1     -41.225  57.404 -52.480  1.00  0.00    -0.045 A 
HETATM   11  C   UNL     1     -40.286  58.377 -53.127  1.00  0.00     0.049 C 
HETATM   12  C   UNL     1     -41.096  56.032 -52.750  1.00  0.00     0.044 A 
HETATM   13  C   UNL     1     -41.945  55.093 -52.154  1.00  0.00     0.069 A 
HETATM   14  C   UNL     1     -42.884  55.508 -51.210  1.00  0.00     0.038 A 
HETATM   15  C   UNL     1     -43.022  56.866 -50.916  1.00  0.00     0.019 A 
BRANCH  13  16
HETATM   16  O   UNL     1     -41.753  53.803 -52.566  1.00  0.00    -0.347 OA
BRANCH  16  17
HETATM   17  C   UNL     1     -40.605  53.568 -53.383  1.00  0.00     0.214 C 
BRANCH  17  18
HETATM   18  C   UNL     1     -40.212  52.119 -53.248  1.00  0.00    -0.034 A 
HETATM   19  C   UNL     1     -39.825  51.603 -52.003  1.00  0.00     0.009 A 
HETATM   20  C   UNL     1     -39.459  50.263 -51.874  1.00  0.00     0.001 A 
HETATM   21  C   UNL     1     -39.469  49.427 -52.989  1.00  0.00     0.000 A 
HETATM   22  C   UNL     1     -39.837  49.930 -54.234  1.00  0.00     0.001 A 
HETATM   23  C   UNL     1     -40.203  51.271 -54.365  1.00  0.00     0.009 A 
ENDBRANCH  17  18
ENDBRANCH  16  17
ENDBRANCH  13  16
ENDBRANCH   7   9
ENDBRANCH   6   7
BRANCH   1  24
HETATM   24  C   UNL     1     -43.825  58.981 -54.288  1.00  0.00    -0.028 A 
HETATM   25  C   UNL     1     -44.626  57.852 -54.033  1.00  0.00     0.012 A 
HETATM   26  C   UNL     1     -44.529  56.713 -54.832  1.00  0.00     0.040 A 
HETATM   27  C   UNL     1     -43.645  56.704 -55.899  1.00  0.00     0.099 A 
HETATM   28  C   UNL     1     -42.869  57.822 -56.206  1.00  0.00     0.102 A 
HETATM   29  C   UNL     1     -42.940  58.950 -55.387  1.00  0.00     0.049 A 
BRANCH  27  30
HETATM   30  O   UNL     1     -43.558  55.569 -56.654  1.00  0.00    -0.358 OA
HETATM   31  H   UNL     1     -43.270  55.854 -57.543  1.00  0.00     0.218 HD
ENDBRANCH  27  30
BRANCH  28  32
HETATM   32  O   UNL     1     -42.029  57.694 -57.280  1.00  0.00    -0.349 OA
BRANCH  32  33
HETATM   33  C   UNL     1     -42.006  58.817 -58.167  1.00  0.00     0.171 C 
HETATM   34  C   UNL     1     -42.111  58.295 -59.588  1.00  0.00     0.034 C 
ENDBRANCH  32  33
ENDBRANCH  28  32
ENDBRANCH   1  24
BRANCH   5  35
HETATM   35  O   UNL     1     -45.168  59.931 -49.857  1.00  0.00    -0.355 OA
HETATM   36  H   UNL     1     -45.741  60.673 -49.580  1.00  0.00     0.218 HD
ENDBRANCH   5  35
BRANCH   2  37
HETATM   37  C   UNL     1     -45.767  61.397 -54.543  1.00  0.00     0.155 C 
BRANCH  37  38
HETATM   38  C   UNL     1     -44.759  62.236 -55.359  1.00  0.00     0.255 C 
BRANCH  38  39
HETATM   39  N   UNL     1     -44.940  62.048 -56.851  1.00  0.00    -0.066 N 
HETATM   40  H   UNL     1     -45.523  62.827 -57.193  1.00  0.00     0.280 HD
HETATM   41  C   UNL     1     -43.653  62.167 -57.660  1.00  0.00     0.261 C 
HETATM   42  C   UNL     1     -43.988  62.048 -59.153  1.00  0.00     0.195 C 
HETATM   43  O   UNL     1     -44.655  60.810 -59.430  1.00  0.00    -0.388 OA
HETATM   44  C   UNL     1     -45.893  60.702 -58.717  1.00  0.00     0.195 C 
HETATM   45  C   UNL     1     -45.663  60.757 -57.202  1.00  0.00     0.261 C 
ENDBRANCH  38  39
ENDBRANCH  37  38
ENDBRANCH   2  37
TORSDOF 13
ENDMDL
MODEL 5
REMARK VINA RESULT:      -7.9      2.975      5.439
REMARK  13 active torsions:
REMARK  status: ('A' for Active; 'I' for Inactive)
REMARK    1  A    between atoms: C_2  and  O_3 
REMARK    2  A    between atoms: O_3  and  C_4 
REMARK    3  A    between atoms: C_5  and  O_6 
REMARK    4  A    between atoms: C_9  and  C_10 
REMARK    5  A    between atoms: N_11  and  C_12 
REMARK    6  A    between atoms: C_12  and  C_13 
REMARK    7  A    between atoms: C_13  and  N_14 
REMARK    8  A    between atoms: C_23  and  O_24 
REMARK    9  A    between atoms: C_25  and  C_26 
REMARK   10  A    between atoms: C_26  and  C_27 
REMARK   11  A    between atoms: C_31  and  O_32 
REMARK   12  A    between atoms: O_32  and  C_33 
REMARK   13  A    between atoms: C_33  and  C_34 
ROOT
HETATM    1  C   UNL     1     -43.112  59.058 -55.323  1.00  0.00     0.161 A 
HETATM    2  N   UNL     1     -42.757  60.456 -55.571  1.00  0.00    -0.332 N 
HETATM    3  C   UNL     1     -43.157  61.264 -54.540  1.00  0.00     0.278 A 
HETATM    4  O   UNL     1     -43.162  62.484 -54.541  1.00  0.00    -0.265 OA
HETATM    5  C   UNL     1     -43.705  60.414 -53.475  1.00  0.00     0.146 A 
HETATM    6  C   UNL     1     -43.674  59.153 -53.930  1.00  0.00     0.059 A 
ENDROOT
BRANCH   6   7
HETATM    7  C   UNL     1     -44.077  57.918 -53.222  1.00  0.00     0.194 C 
HETATM    8  O   UNL     1     -44.975  57.933 -52.390  1.00  0.00    -0.287 OA
BRANCH   7   9
HETATM    9  C   UNL     1     -43.387  56.659 -53.558  1.00  0.00     0.021 A 
HETATM   10  C   UNL     1     -42.055  56.435 -53.177  1.00  0.00    -0.045 A 
HETATM   11  C   UNL     1     -41.309  57.371 -52.274  1.00  0.00     0.049 C 
HETATM   12  C   UNL     1     -41.426  55.267 -53.637  1.00  0.00     0.044 A 
HETATM   13  C   UNL     1     -42.096  54.362 -54.469  1.00  0.00     0.069 A 
HETATM   14  C   UNL     1     -43.437  54.574 -54.784  1.00  0.00     0.038 A 
HETATM   15  C   UNL     1     -44.088  55.722 -54.328  1.00  0.00     0.019 A 
BRANCH  13  16
HETATM   16  O   UNL     1     -41.337  53.309 -54.899  1.00  0.00    -0.347 OA
BRANCH  16  17
HETATM   17  C   UNL     1     -40.010  53.234 -54.377  1.00  0.00     0.214 C 
BRANCH  17  18
HETATM   18  C   UNL     1     -39.871  51.944 -53.609  1.00  0.00    -0.034 A 
HETATM   19  C   UNL     1     -39.682  51.964 -52.220  1.00  0.00     0.009 A 
HETATM   20  C   UNL     1     -39.551  50.772 -51.506  1.00  0.00     0.001 A 
HETATM   21  C   UNL     1     -39.602  49.549 -52.174  1.00  0.00     0.000 A 
HETATM   22  C   UNL     1     -39.775  49.517 -53.556  1.00  0.00     0.001 A 
HETATM   23  C   UNL     1     -39.905  50.708 -54.271  1.00  0.00     0.009 A 
ENDBRANCH  17  18
ENDBRANCH  16  17
ENDBRANCH  13  16
ENDBRANCH   7   9
ENDBRANCH   6   7
BRANCH   1  24
HETATM   24  C   UNL     1     -44.069  58.579 -56.402  1.00  0.00    -0.028 A 
HETATM   25  C   UNL     1     -45.441  58.870 -56.271  1.00  0.00     0.012 A 
HETATM   26  C   UNL     1     -46.369  58.351 -57.172  1.00  0.00     0.040 A 
HETATM   27  C   UNL     1     -45.930  57.556 -58.219  1.00  0.00     0.099 A 
HETATM   28  C   UNL     1     -44.574  57.286 -58.404  1.00  0.00     0.102 A 
HETATM   29  C   UNL     1     -43.647  57.776 -57.482  1.00  0.00     0.049 A 
BRANCH  27  30
HETATM   30  O   UNL     1     -46.863  57.048 -59.077  1.00  0.00    -0.358 OA
HETATM   31  H   UNL     1     -46.546  57.252 -59.978  1.00  0.00     0.218 HD
ENDBRANCH  27  30
BRANCH  28  32
HETATM   32  O   UNL     1     -44.261  56.486 -59.470  1.00  0.00    -0.349 OA
BRANCH  32  33
HETATM   33  C   UNL     1     -43.778  55.183 -59.128  1.00  0.00     0.171 C 
HETATM   34  C   UNL     1     -44.700  54.159 -59.763  1.00  0.00     0.034 C 
ENDBRANCH  32  33
ENDBRANCH  28  32
ENDBRANCH   1  24
BRANCH   5  35
HETATM   35  O   UNL     1     -44.143  60.901 -52.285  1.00  0.00    -0.355 OA
HETATM   36  H   UNL     1     -44.028  60.199 -51.614  1.00  0.00     0.218 HD
ENDBRANCH   5  35
BRANCH   2  37
HETATM   37  C   UNL     1     -42.047  60.915 -56.765  1.00  0.00     0.155 C 
BRANCH  37  38
HETATM   38  C   UNL     1     -42.948  61.596 -57.819  1.00  0.00     0.255 C 
BRANCH  38  39
HETATM   39  N   UNL     1     -42.948  60.847 -59.135  1.00  0.00    -0.066 N 
HETATM   40  H   UNL     1     -42.680  59.871 -58.937  1.00  0.00     0.280 HD
HETATM   41  C   UNL     1     -44.320  60.727 -59.789  1.00  0.00     0.261 C 
HETATM   42  C   UNL     1     -44.195  59.873 -61.059  1.00  0.00     0.195 C 
HETATM   43  O   UNL     1     -43.243  60.442 -61.966  1.00  0.00    -0.388 OA
HETATM   44  C   UNL     1     -41.936  60.517 -61.386  1.00  0.00     0.195 C 
HETATM   45  C   UNL     1     -41.938  61.397 -60.131  1.00  0.00     0.261 C 
ENDBRANCH  38  39
ENDBRANCH  37  38
ENDBRANCH   2  37
TORSDOF 13
ENDMDL
MODEL 6
REMARK VINA RESULT:      -7.8      3.372      6.471
REMARK  13 active torsions:
REMARK  status: ('A' for Active; 'I' for Inactive)
REMARK    1  A    between atoms: C_2  and  O_3 
REMARK    2  A    between atoms: O_3  and  C_4 
REMARK    3  A    between atoms: C_5  and  O_6 
REMARK    4  A    between atoms: C_9  and  C_10 
REMARK    5  A    between atoms: N_11  and  C_12 
REMARK    6  A    between atoms: C_12  and  C_13 
REMARK    7  A    between atoms: C_13  and  N_14 
REMARK    8  A    between atoms: C_23  and  O_24 
REMARK    9  A    between atoms: C_25  and  C_26 
REMARK   10  A    between atoms: C_26  and  C_27 
REMARK   11  A    between atoms: C_31  and  O_32 
REMARK   12  A    between atoms: O_32  and  C_33 
REMARK   13  A    between atoms: C_33  and  C_34 
ROOT
HETATM    1  C   UNL     1     -43.876  58.514 -56.830  1.00  0.00     0.161 A 
HETATM    2  N   UNL     1     -42.878  59.096 -57.728  1.00  0.00    -0.332 N 
HETATM    3  C   UNL     1     -41.961  59.845 -57.039  1.00  0.00     0.278 A 
HETATM    4  O   UNL     1     -41.127  60.589 -57.525  1.00  0.00    -0.265 OA
HETATM    5  C   UNL     1     -42.237  59.701 -55.603  1.00  0.00     0.146 A 
HETATM    6  C   UNL     1     -43.333  58.938 -55.492  1.00  0.00     0.059 A 
ENDROOT
BRANCH   6   7
HETATM    7  C   UNL     1     -43.993  58.466 -54.255  1.00  0.00     0.194 C 
HETATM    8  O   UNL     1     -44.941  59.074 -53.776  1.00  0.00    -0.287 OA
BRANCH   7   9
HETATM    9  C   UNL     1     -43.501  57.228 -53.624  1.00  0.00     0.021 A 
HETATM   10  C   UNL     1     -42.609  57.268 -52.541  1.00  0.00    -0.045 A 
HETATM   11  C   UNL     1     -42.233  58.548 -51.857  1.00  0.00     0.049 C 
HETATM   12  C   UNL     1     -42.088  56.052 -52.072  1.00  0.00     0.044 A 
HETATM   13  C   UNL     1     -42.427  54.836 -52.676  1.00  0.00     0.069 A 
HETATM   14  C   UNL     1     -43.363  54.813 -53.709  1.00  0.00     0.038 A 
HETATM   15  C   UNL     1     -43.904  56.010 -54.185  1.00  0.00     0.019 A 
BRANCH  13  16
HETATM   16  O   UNL     1     -41.788  53.741 -52.162  1.00  0.00    -0.347 OA
BRANCH  16  17
HETATM   17  C   UNL     1     -40.402  53.614 -52.482  1.00  0.00     0.214 C 
BRANCH  17  18
HETATM   18  C   UNL     1     -40.107  52.161 -52.755  1.00  0.00    -0.034 A 
HETATM   19  C   UNL     1     -40.271  51.636 -54.045  1.00  0.00     0.009 A 
HETATM   20  C   UNL     1     -40.000  50.292 -54.303  1.00  0.00     0.001 A 
HETATM   21  C   UNL     1     -39.569  49.458 -53.273  1.00  0.00     0.000 A 
HETATM   22  C   UNL     1     -39.416  49.963 -51.984  1.00  0.00     0.001 A 
HETATM   23  C   UNL     1     -39.687  51.308 -51.725  1.00  0.00     0.009 A 
ENDBRANCH  17  18
ENDBRANCH  16  17
ENDBRANCH  13  16
ENDBRANCH   7   9
ENDBRANCH   6   7
BRANCH   1  24
HETATM   24  C   UNL     1     -45.254  59.043 -57.192  1.00  0.00    -0.028 A 
HETATM   25  C   UNL     1     -46.218  58.143 -57.687  1.00  0.00     0.012 A 
HETATM   26  C   UNL     1     -47.454  58.601 -58.142  1.00  0.00     0.040 A 
HETATM   27  C   UNL     1     -47.739  59.956 -58.088  1.00  0.00     0.099 A 
HETATM   28  C   UNL     1     -46.824  60.868 -57.563  1.00  0.00     0.102 A 
HETATM   29  C   UNL     1     -45.573  60.416 -57.139  1.00  0.00     0.049 A 
BRANCH  27  30
HETATM   30  O   UNL     1     -48.950  60.378 -58.557  1.00  0.00    -0.358 OA
HETATM   31  H   UNL     1     -49.010  61.329 -58.342  1.00  0.00     0.218 HD
ENDBRANCH  27  30
BRANCH  28  32
HETATM   32  O   UNL     1     -47.215  62.180 -57.565  1.00  0.00    -0.349 OA
BRANCH  32  33
HETATM   33  C   UNL     1     -47.234  62.808 -56.279  1.00  0.00     0.171 C 
HETATM   34  C   UNL     1     -48.610  62.594 -55.673  1.00  0.00     0.034 C 
ENDBRANCH  32  33
ENDBRANCH  28  32
ENDBRANCH   1  24
BRANCH   5  35
HETATM   35  O   UNL     1     -41.473  60.277 -54.637  1.00  0.00    -0.355 OA
HETATM   36  H   UNL     1     -40.540  60.048 -54.819  1.00  0.00     0.218 HD
ENDBRANCH   5  35
BRANCH   2  37
HETATM   37  C   UNL     1     -42.862  58.880 -59.175  1.00  0.00     0.155 C 
BRANCH  37  38
HETATM   38  C   UNL     1     -42.134  57.592 -59.618  1.00  0.00     0.255 C 
BRANCH  38  39
HETATM   39  N   UNL     1     -43.105  56.492 -59.996  1.00  0.00    -0.066 N 
HETATM   40  H   UNL     1     -42.667  55.935 -60.745  1.00  0.00     0.280 HD
HETATM   41  C   UNL     1     -43.367  55.478 -58.888  1.00  0.00     0.261 C 
HETATM   42  C   UNL     1     -44.289  54.375 -59.427  1.00  0.00     0.195 C 
HETATM   43  O   UNL     1     -45.517  54.930 -59.916  1.00  0.00    -0.388 OA
HETATM   44  C   UNL     1     -45.294  55.848 -60.993  1.00  0.00     0.195 C 
HETATM   45  C   UNL     1     -44.420  57.024 -60.542  1.00  0.00     0.261 C 
ENDBRANCH  38  39
ENDBRANCH  37  38
ENDBRANCH   2  37
TORSDOF 13
ENDMDL
MODEL 7
REMARK VINA RESULT:      -7.8      2.372      5.911
REMARK  13 active torsions:
REMARK  status: ('A' for Active; 'I' for Inactive)
REMARK    1  A    between atoms: C_2  and  O_3 
REMARK    2  A    between atoms: O_3  and  C_4 
REMARK    3  A    between atoms: C_5  and  O_6 
REMARK    4  A    between atoms: C_9  and  C_10 
REMARK    5  A    between atoms: N_11  and  C_12 
REMARK    6  A    between atoms: C_12  and  C_13 
REMARK    7  A    between atoms: C_13  and  N_14 
REMARK    8  A    between atoms: C_23  and  O_24 
REMARK    9  A    between atoms: C_25  and  C_26 
REMARK   10  A    between atoms: C_26  and  C_27 
REMARK   11  A    between atoms: C_31  and  O_32 
REMARK   12  A    between atoms: O_32  and  C_33 
REMARK   13  A    between atoms: C_33  and  C_34 
ROOT
HETATM    1  C   UNL     1     -43.767  58.864 -54.292  1.00  0.00     0.161 A 
HETATM    2  N   UNL     1     -44.513  59.453 -55.404  1.00  0.00    -0.332 N 
HETATM    3  C   UNL     1     -43.700  60.212 -56.205  1.00  0.00     0.278 A 
HETATM    4  O   UNL     1     -44.063  60.963 -57.095  1.00  0.00    -0.265 OA
HETATM    5  C   UNL     1     -42.319  60.068 -55.726  1.00  0.00     0.146 A 
HETATM    6  C   UNL     1     -42.366  59.294 -54.633  1.00  0.00     0.059 A 
ENDROOT
BRANCH   6   7
HETATM    7  C   UNL     1     -41.236  58.818 -53.804  1.00  0.00     0.194 C 
HETATM    8  O   UNL     1     -40.249  59.519 -53.622  1.00  0.00    -0.287 OA
BRANCH   7   9
HETATM    9  C   UNL     1     -41.335  57.487 -53.179  1.00  0.00     0.021 A 
HETATM   10  C   UNL     1     -41.364  57.338 -51.784  1.00  0.00    -0.045 A 
HETATM   11  C   UNL     1     -41.461  58.509 -50.853  1.00  0.00     0.049 C 
HETATM   12  C   UNL     1     -41.336  56.036 -51.260  1.00  0.00     0.044 A 
HETATM   13  C   UNL     1     -41.259  54.918 -52.098  1.00  0.00     0.069 A 
HETATM   14  C   UNL     1     -41.295  55.086 -53.482  1.00  0.00     0.038 A 
HETATM   15  C   UNL     1     -41.336  56.372 -54.026  1.00  0.00     0.019 A 
BRANCH  13  16
HETATM   16  O   UNL     1     -41.165  53.718 -51.448  1.00  0.00    -0.347 OA
BRANCH  16  17
HETATM   17  C   UNL     1     -39.846  53.196 -51.281  1.00  0.00     0.214 C 
BRANCH  17  18
HETATM   18  C   UNL     1     -39.757  51.881 -52.014  1.00  0.00    -0.034 A 
HETATM   19  C   UNL     1     -39.856  51.842 -53.412  1.00  0.00     0.009 A 
HETATM   20  C   UNL     1     -39.775  50.628 -54.094  1.00  0.00     0.001 A 
HETATM   21  C   UNL     1     -39.603  49.440 -53.386  1.00  0.00     0.000 A 
HETATM   22  C   UNL     1     -39.519  49.463 -51.996  1.00  0.00     0.001 A 
HETATM   23  C   UNL     1     -39.600  50.678 -51.312  1.00  0.00     0.009 A 
ENDBRANCH  17  18
ENDBRANCH  16  17
ENDBRANCH  13  16
ENDBRANCH   7   9
ENDBRANCH   6   7
BRANCH   1  24
HETATM   24  C   UNL     1     -44.326  59.379 -52.977  1.00  0.00    -0.028 A 
HETATM   25  C   UNL     1     -44.919  58.464 -52.086  1.00  0.00     0.012 A 
HETATM   26  C   UNL     1     -45.550  58.906 -50.923  1.00  0.00     0.040 A 
HETATM   27  C   UNL     1     -45.574  60.261 -50.636  1.00  0.00     0.099 A 
HETATM   28  C   UNL     1     -44.957  61.190 -51.474  1.00  0.00     0.102 A 
HETATM   29  C   UNL     1     -44.356  60.753 -52.656  1.00  0.00     0.049 A 
BRANCH  27  30
HETATM   30  O   UNL     1     -46.212  60.668 -49.500  1.00  0.00    -0.358 OA
HETATM   31  H   UNL     1     -45.604  60.474 -48.760  1.00  0.00     0.218 HD
ENDBRANCH  27  30
BRANCH  28  32
HETATM   32  O   UNL     1     -45.050  62.501 -51.090  1.00  0.00    -0.349 OA
BRANCH  32  33
HETATM   33  C   UNL     1     -43.826  63.086 -50.632  1.00  0.00     0.171 C 
HETATM   34  C   UNL     1     -43.988  63.422 -49.161  1.00  0.00     0.034 C 
ENDBRANCH  32  33
ENDBRANCH  28  32
ENDBRANCH   1  24
BRANCH   5  35
HETATM   35  O   UNL     1     -41.255  60.652 -56.337  1.00  0.00    -0.355 OA
HETATM   36  H   UNL     1     -41.297  60.429 -57.288  1.00  0.00     0.218 HD
ENDBRANCH   5  35
BRANCH   2  37
HETATM   37  C   UNL     1     -45.941  59.235 -55.631  1.00  0.00     0.155 C 
BRANCH  37  38
HETATM   38  C   UNL     1     -46.266  58.007 -56.510  1.00  0.00     0.255 C 
BRANCH  38  39
HETATM   39  N   UNL     1     -45.595  58.086 -57.865  1.00  0.00    -0.066 N 
HETATM   40  H   UNL     1     -45.251  59.051 -57.985  1.00  0.00     0.280 HD
HETATM   41  C   UNL     1     -44.340  57.229 -57.995  1.00  0.00     0.261 C 
HETATM   42  C   UNL     1     -43.711  57.470 -59.375  1.00  0.00     0.195 C 
HETATM   43  O   UNL     1     -44.645  57.173 -60.421  1.00  0.00    -0.388 OA
HETATM   44  C   UNL     1     -45.809  58.005 -60.345  1.00  0.00     0.195 C 
HETATM   45  C   UNL     1     -46.547  57.801 -59.016  1.00  0.00     0.261 C 
ENDBRANCH  38  39
ENDBRANCH  37  38
ENDBRANCH   2  37
TORSDOF 13
ENDMDL
MODEL 8
REMARK VINA RESULT:      -7.6      1.225      2.405
REMARK  13 active torsions:
REMARK  status: ('A' for Active; 'I' for Inactive)
REMARK    1  A    between atoms: C_2  and  O_3 
REMARK    2  A    between atoms: O_3  and  C_4 
REMARK    3  A    between atoms: C_5  and  O_6 
REMARK    4  A    between atoms: C_9  and  C_10 
REMARK    5  A    between atoms: N_11  and  C_12 
REMARK    6  A    between atoms: C_12  and  C_13 
REMARK    7  A    between atoms: C_13  and  N_14 
REMARK    8  A    between atoms: C_23  and  O_24 
REMARK    9  A    between atoms: C_25  and  C_26 
REMARK   10  A    between atoms: C_26  and  C_27 
REMARK   11  A    between atoms: C_31  and  O_32 
REMARK   12  A    between atoms: O_32  and  C_33 
REMARK   13  A    between atoms: C_33  and  C_34 
ROOT
HETATM    1  C   UNL     1     -43.672  60.559 -52.935  1.00  0.00     0.161 A 
HETATM    2  N   UNL     1     -45.074  60.950 -53.077  1.00  0.00    -0.332 N 
HETATM    3  C   UNL     1     -45.849  60.404 -52.087  1.00  0.00     0.278 A 
HETATM    4  O   UNL     1     -47.068  60.403 -52.044  1.00  0.00    -0.265 OA
HETATM    5  C   UNL     1     -44.965  59.704 -51.146  1.00  0.00     0.146 A 
HETATM    6  C   UNL     1     -43.721  59.799 -51.637  1.00  0.00     0.059 A 
ENDROOT
BRANCH   6   7
HETATM    7  C   UNL     1     -42.465  59.294 -51.040  1.00  0.00     0.194 C 
HETATM    8  O   UNL     1     -41.755  60.021 -50.357  1.00  0.00    -0.287 OA
BRANCH   7   9
HETATM    9  C   UNL     1     -42.097  57.884 -51.265  1.00  0.00     0.021 A 
HETATM   10  C   UNL     1     -41.093  57.531 -52.180  1.00  0.00    -0.045 A 
HETATM   11  C   UNL     1     -40.226  58.551 -52.855  1.00  0.00     0.049 C 
HETATM   12  C   UNL     1     -40.882  56.166 -52.432  1.00  0.00     0.044 A 
HETATM   13  C   UNL     1     -41.662  55.185 -51.810  1.00  0.00     0.069 A 
HETATM   14  C   UNL     1     -42.612  55.555 -50.858  1.00  0.00     0.038 A 
HETATM   15  C   UNL     1     -42.831  56.906 -50.582  1.00  0.00     0.019 A 
BRANCH  13  16
HETATM   16  O   UNL     1     -41.395  53.903 -52.206  1.00  0.00    -0.347 OA
BRANCH  16  17
HETATM   17  C   UNL     1     -40.139  53.366 -51.792  1.00  0.00     0.214 C 
BRANCH  17  18
HETATM   18  C   UNL     1     -39.952  52.024 -52.453  1.00  0.00    -0.034 A 
HETATM   19  C   UNL     1     -40.122  51.888 -53.838  1.00  0.00     0.009 A 
HETATM   20  C   UNL     1     -39.951  50.648 -54.454  1.00  0.00     0.001 A 
HETATM   21  C   UNL     1     -39.616  49.530 -53.692  1.00  0.00     0.000 A 
HETATM   22  C   UNL     1     -39.459  49.649 -52.313  1.00  0.00     0.001 A 
HETATM   23  C   UNL     1     -39.630  50.889 -51.695  1.00  0.00     0.009 A 
ENDBRANCH  17  18
ENDBRANCH  16  17
ENDBRANCH  13  16
ENDBRANCH   7   9
ENDBRANCH   6   7
BRANCH   1  24
HETATM   24  C   UNL     1     -43.238  59.770 -54.158  1.00  0.00    -0.028 A 
HETATM   25  C   UNL     1     -42.436  60.405 -55.127  1.00  0.00     0.012 A 
HETATM   26  C   UNL     1     -42.113  59.759 -56.320  1.00  0.00     0.040 A 
HETATM   27  C   UNL     1     -42.573  58.471 -56.542  1.00  0.00     0.099 A 
HETATM   28  C   UNL     1     -43.332  57.798 -55.585  1.00  0.00     0.102 A 
HETATM   29  C   UNL     1     -43.685  58.455 -54.405  1.00  0.00     0.049 A 
BRANCH  27  30
HETATM   30  O   UNL     1     -42.255  57.870 -57.726  1.00  0.00    -0.358 OA
HETATM   31  H   UNL     1     -41.364  58.190 -57.965  1.00  0.00     0.218 HD
ENDBRANCH  27  30
BRANCH  28  32
HETATM   32  O   UNL     1     -43.733  56.532 -55.919  1.00  0.00    -0.349 OA
BRANCH  32  33
HETATM   33  C   UNL     1     -43.674  55.578 -54.853  1.00  0.00     0.171 C 
HETATM   34  C   UNL     1     -42.936  54.352 -55.360  1.00  0.00     0.034 C 
ENDBRANCH  32  33
ENDBRANCH  28  32
ENDBRANCH   1  24
BRANCH   5  35
HETATM   35  O   UNL     1     -45.413  59.097 -50.015  1.00  0.00    -0.355 OA
HETATM   36  H   UNL     1     -46.257  58.652 -50.230  1.00  0.00     0.218 HD
ENDBRANCH   5  35
BRANCH   2  37
HETATM   37  C   UNL     1     -45.570  61.829 -54.136  1.00  0.00     0.155 C 
BRANCH  37  38
HETATM   38  C   UNL     1     -45.982  63.237 -53.654  1.00  0.00     0.255 C 
BRANCH  38  39
HETATM   39  N   UNL     1     -47.452  63.308 -53.298  1.00  0.00    -0.066 N 
HETATM   40  H   UNL     1     -47.815  62.342 -53.286  1.00  0.00     0.280 HD
HETATM   41  C   UNL     1     -47.734  63.824 -51.892  1.00  0.00     0.261 C 
HETATM   42  C   UNL     1     -49.245  63.759 -51.628  1.00  0.00     0.195 C 
HETATM   43  O   UNL     1     -49.968  64.517 -52.607  1.00  0.00    -0.388 OA
HETATM   44  C   UNL     1     -49.755  64.013 -53.931  1.00  0.00     0.195 C 
HETATM   45  C   UNL     1     -48.273  64.084 -54.316  1.00  0.00     0.261 C 
ENDBRANCH  38  39
ENDBRANCH  37  38
ENDBRANCH   2  37
TORSDOF 13
ENDMDL
MODEL 9
REMARK VINA RESULT:      -7.6      1.888      4.384
REMARK  13 active torsions:
REMARK  status: ('A' for Active; 'I' for Inactive)
REMARK    1  A    between atoms: C_2  and  O_3 
REMARK    2  A    between atoms: O_3  and  C_4 
REMARK    3  A    between atoms: C_5  and  O_6 
REMARK    4  A    between atoms: C_9  and  C_10 
REMARK    5  A    between atoms: N_11  and  C_12 
REMARK    6  A    between atoms: C_12  and  C_13 
REMARK    7  A    between atoms: C_13  and  N_14 
REMARK    8  A    between atoms: C_23  and  O_24 
REMARK    9  A    between atoms: C_25  and  C_26 
REMARK   10  A    between atoms: C_26  and  C_27 
REMARK   11  A    between atoms: C_31  and  O_32 
REMARK   12  A    between atoms: O_32  and  C_33 
REMARK   13  A    between atoms: C_33  and  C_34 
ROOT
HETATM    1  C   UNL     1     -44.327  59.561 -54.377  1.00  0.00     0.161 A 
HETATM    2  N   UNL     1     -43.537  60.518 -55.151  1.00  0.00    -0.332 N 
HETATM    3  C   UNL     1     -42.559  59.890 -55.876  1.00  0.00     0.278 A 
HETATM    4  O   UNL     1     -41.641  60.431 -56.470  1.00  0.00    -0.265 OA
HETATM    5  C   UNL     1     -42.726  58.439 -55.712  1.00  0.00     0.146 A 
HETATM    6  C   UNL     1     -43.740  58.260 -54.854  1.00  0.00     0.059 A 
ENDROOT
BRANCH   6   7
HETATM    7  C   UNL     1     -44.328  56.983 -54.392  1.00  0.00     0.194 C 
HETATM    8  O   UNL     1     -45.459  56.654 -54.725  1.00  0.00    -0.287 OA
BRANCH   7   9
HETATM    9  C   UNL     1     -43.510  56.101 -53.540  1.00  0.00     0.021 A 
HETATM   10  C   UNL     1     -43.044  54.863 -54.009  1.00  0.00    -0.045 A 
HETATM   11  C   UNL     1     -43.201  54.435 -55.438  1.00  0.00     0.049 C 
HETATM   12  C   UNL     1     -42.377  54.024 -53.103  1.00  0.00     0.044 A 
HETATM   13  C   UNL     1     -42.199  54.396 -51.766  1.00  0.00     0.069 A 
HETATM   14  C   UNL     1     -42.615  55.656 -51.336  1.00  0.00     0.038 A 
HETATM   15  C   UNL     1     -43.270  56.513 -52.223  1.00  0.00     0.019 A 
BRANCH  13  16
HETATM   16  O   UNL     1     -41.598  53.450 -50.982  1.00  0.00    -0.347 OA
BRANCH  16  17
HETATM   17  C   UNL     1     -40.193  53.277 -51.171  1.00  0.00     0.214 C 
BRANCH  17  18
HETATM   18  C   UNL     1     -39.955  51.905 -51.750  1.00  0.00    -0.034 A 
HETATM   19  C   UNL     1     -39.852  50.789 -50.907  1.00  0.00     0.009 A 
HETATM   20  C   UNL     1     -39.631  49.518 -51.438  1.00  0.00     0.001 A 
HETATM   21  C   UNL     1     -39.504  49.350 -52.816  1.00  0.00     0.000 A 
HETATM   22  C   UNL     1     -39.590  50.453 -53.663  1.00  0.00     0.001 A 
HETATM   23  C   UNL     1     -39.810  51.725 -53.133  1.00  0.00     0.009 A 
ENDBRANCH  17  18
ENDBRANCH  16  17
ENDBRANCH  13  16
ENDBRANCH   7   9
ENDBRANCH   6   7
BRANCH   1  24
HETATM   24  C   UNL     1     -44.177  59.862 -52.895  1.00  0.00    -0.028 A 
HETATM   25  C   UNL     1     -45.338  60.048 -52.119  1.00  0.00     0.012 A 
HETATM   26  C   UNL     1     -45.248  60.441 -50.784  1.00  0.00     0.040 A 
HETATM   27  C   UNL     1     -44.000  60.630 -50.213  1.00  0.00     0.099 A 
HETATM   28  C   UNL     1     -42.830  60.411 -50.941  1.00  0.00     0.102 A 
HETATM   29  C   UNL     1     -42.918  60.051 -52.287  1.00  0.00     0.049 A 
BRANCH  27  30
HETATM   30  O   UNL     1     -43.942  61.031 -48.909  1.00  0.00    -0.358 OA
HETATM   31  H   UNL     1     -43.012  60.921 -48.630  1.00  0.00     0.218 HD
ENDBRANCH  27  30
BRANCH  28  32
HETATM   32  O   UNL     1     -41.656  60.634 -50.273  1.00  0.00    -0.349 OA
BRANCH  32  33
HETATM   33  C   UNL     1     -40.916  59.456 -49.938  1.00  0.00     0.171 C 
HETATM   34  C   UNL     1     -39.747  59.347 -50.900  1.00  0.00     0.034 C 
ENDBRANCH  32  33
ENDBRANCH  28  32
ENDBRANCH   1  24
BRANCH   5  35
HETATM   35  O   UNL     1     -41.947  57.524 -56.346  1.00  0.00    -0.355 OA
HETATM   36  H   UNL     1     -41.407  57.999 -57.008  1.00  0.00     0.218 HD
ENDBRANCH   5  35
BRANCH   2  37
HETATM   37  C   UNL     1     -43.784  61.960 -55.157  1.00  0.00     0.155 C 
BRANCH  37  38
HETATM   38  C   UNL     1     -45.216  62.359 -55.574  1.00  0.00     0.255 C 
BRANCH  38  39
HETATM   39  N   UNL     1     -45.937  63.115 -54.476  1.00  0.00    -0.066 N 
HETATM   40  H   UNL     1     -46.261  64.008 -54.876  1.00  0.00     0.280 HD
HETATM   41  C   UNL     1     -47.216  62.444 -53.988  1.00  0.00     0.261 C 
HETATM   42  C   UNL     1     -47.892  63.351 -52.949  1.00  0.00     0.195 C 
HETATM   43  O   UNL     1     -47.006  63.623 -51.856  1.00  0.00    -0.388 OA
HETATM   44  C   UNL     1     -45.820  64.300 -52.289  1.00  0.00     0.195 C 
HETATM   45  C   UNL     1     -45.038  63.450 -53.297  1.00  0.00     0.261 C 
ENDBRANCH  38  39
ENDBRANCH  37  38
ENDBRANCH   2  37
TORSDOF 13
ENDMDL
MODEL 10
REMARK VINA RESULT:      -7.5      2.181      5.200
REMARK  13 active torsions:
REMARK  status: ('A' for Active; 'I' for Inactive)
REMARK    1  A    between atoms: C_2  and  O_3 
REMARK    2  A    between atoms: O_3  and  C_4 
REMARK    3  A    between atoms: C_5  and  O_6 
REMARK    4  A    between atoms: C_9  and  C_10 
REMARK    5  A    between atoms: N_11  and  C_12 
REMARK    6  A    between atoms: C_12  and  C_13 
REMARK    7  A    between atoms: C_13  and  N_14 
REMARK    8  A    between atoms: C_23  and  O_24 
REMARK    9  A    between atoms: C_25  and  C_26 
REMARK   10  A    between atoms: C_26  and  C_27 
REMARK   11  A    between atoms: C_31  and  O_32 
REMARK   12  A    between atoms: O_32  and  C_33 
REMARK   13  A    between atoms: C_33  and  C_34 
ROOT
HETATM    1  C   UNL     1     -44.730  60.578 -51.972  1.00  0.00     0.161 A 
HETATM    2  N   UNL     1     -45.132  61.454 -53.072  1.00  0.00    -0.332 N 
HETATM    3  C   UNL     1     -44.088  61.695 -53.927  1.00  0.00     0.278 A 
HETATM    4  O   UNL     1     -44.067  62.520 -54.825  1.00  0.00    -0.265 OA
HETATM    5  C   UNL     1     -42.944  60.880 -53.496  1.00  0.00     0.146 A 
HETATM    6  C   UNL     1     -43.320  60.243 -52.378  1.00  0.00     0.059 A 
ENDROOT
BRANCH   6   7
HETATM    7  C   UNL     1     -42.544  59.270 -51.579  1.00  0.00     0.194 C 
HETATM    8  O   UNL     1     -42.037  59.592 -50.513  1.00  0.00    -0.287 OA
BRANCH   7   9
HETATM    9  C   UNL     1     -42.414  57.890 -52.084  1.00  0.00     0.021 A 
HETATM   10  C   UNL     1     -43.338  56.896 -51.731  1.00  0.00    -0.045 A 
HETATM   11  C   UNL     1     -44.591  57.199 -50.965  1.00  0.00     0.049 C 
HETATM   12  C   UNL     1     -43.083  55.580 -52.149  1.00  0.00     0.044 A 
HETATM   13  C   UNL     1     -41.931  55.262 -52.878  1.00  0.00     0.069 A 
HETATM   14  C   UNL     1     -41.058  56.275 -53.271  1.00  0.00     0.038 A 
HETATM   15  C   UNL     1     -41.298  57.593 -52.877  1.00  0.00     0.019 A 
BRANCH  13  16
HETATM   16  O   UNL     1     -41.776  53.931 -53.153  1.00  0.00    -0.347 OA
BRANCH  16  17
HETATM   17  C   UNL     1     -40.572  53.565 -53.829  1.00  0.00     0.214 C 
BRANCH  17  18
HETATM   18  C   UNL     1     -40.204  52.161 -53.420  1.00  0.00    -0.034 A 
HETATM   19  C   UNL     1     -39.831  51.884 -52.097  1.00  0.00     0.009 A 
HETATM   20  C   UNL     1     -39.488  50.587 -51.714  1.00  0.00     0.001 A 
HETATM   21  C   UNL     1     -39.507  49.555 -52.651  1.00  0.00     0.000 A 
HETATM   22  C   UNL     1     -39.861  49.820 -53.972  1.00  0.00     0.001 A 
HETATM   23  C   UNL     1     -40.204  51.118 -54.356  1.00  0.00     0.009 A 
ENDBRANCH  17  18
ENDBRANCH  16  17
ENDBRANCH  13  16
ENDBRANCH   7   9
ENDBRANCH   6   7
BRANCH   1  24
HETATM   24  C   UNL     1     -44.891  61.314 -50.653  1.00  0.00    -0.028 A 
HETATM   25  C   UNL     1     -44.115  62.466 -50.419  1.00  0.00     0.012 A 
HETATM   26  C   UNL     1     -44.143  63.106 -49.180  1.00  0.00     0.040 A 
HETATM   27  C   UNL     1     -44.960  62.610 -48.177  1.00  0.00     0.099 A 
HETATM   28  C   UNL     1     -45.774  61.498 -48.390  1.00  0.00     0.102 A 
HETATM   29  C   UNL     1     -45.722  60.836 -49.618  1.00  0.00     0.049 A 
BRANCH  27  30
HETATM   30  O   UNL     1     -44.954  63.246 -46.969  1.00  0.00    -0.358 OA
HETATM   31  H   UNL     1     -45.890  63.330 -46.700  1.00  0.00     0.218 HD
ENDBRANCH  27  30
BRANCH  28  32
HETATM   32  O   UNL     1     -46.535  61.097 -47.324  1.00  0.00    -0.349 OA
BRANCH  32  33
HETATM   33  C   UNL     1     -45.982  60.024 -46.555  1.00  0.00     0.171 C 
HETATM   34  C   UNL     1     -47.118  59.351 -45.805  1.00  0.00     0.034 C 
ENDBRANCH  32  33
ENDBRANCH  28  32
ENDBRANCH   1  24
BRANCH   5  35
HETATM   35  O   UNL     1     -41.762  60.845 -54.165  1.00  0.00    -0.355 OA
HETATM   36  H   UNL     1     -41.338  59.984 -53.976  1.00  0.00     0.218 HD
ENDBRANCH   5  35
BRANCH   2  37
HETATM   37  C   UNL     1     -46.486  61.982 -53.239  1.00  0.00     0.155 C 
BRANCH  37  38
HETATM   38  C   UNL     1     -46.621  63.491 -52.940  1.00  0.00     0.255 C 
BRANCH  38  39
HETATM   39  N   UNL     1     -47.904  63.811 -52.200  1.00  0.00    -0.066 N 
HETATM   40  H   UNL     1     -48.129  64.801 -52.382  1.00  0.00     0.280 HD
HETATM   41  C   UNL     1     -49.127  63.055 -52.709  1.00  0.00     0.261 C 
HETATM   42  C   UNL     1     -50.367  63.536 -51.941  1.00  0.00     0.195 C 
HETATM   43  O   UNL     1     -50.199  63.348 -50.531  1.00  0.00    -0.388 OA
HETATM   44  C   UNL     1     -49.083  64.091 -50.025  1.00  0.00     0.195 C 
HETATM   45  C   UNL     1     -47.777  63.648 -50.694  1.00  0.00     0.261 C 
ENDBRANCH  38  39
ENDBRANCH  37  38
ENDBRANCH   2  37
TORSDOF 13
ENDMDL
