MODEL 1
REMARK VINA RESULT:      -7.6      0.000      0.000
REMARK  2 active torsions:
REMARK  status: ('A' for Active; 'I' for Inactive)
REMARK    1  A    between atoms: C_8  and  S_9 
REMARK    2  A    between atoms: S_9  and  C_10 
ROOT
HETATM    1  C   UNL     1     -39.823  49.856 -54.184  1.00  0.00     0.002 A 
HETATM    2  C   UNL     1     -40.254  51.170 -54.363  1.00  0.00     0.034 A 
HETATM    3  C   UNL     1     -40.278  52.071 -53.306  1.00  0.00     0.087 A 
HETATM    4  C   UNL     1     -39.852  51.640 -52.021  1.00  0.00     0.087 A 
HETATM    5  N   UNL     1     -39.856  52.473 -50.961  1.00  0.00    -0.232 NA
HETATM    6  C   UNL     1     -40.254  53.740 -51.194  1.00  0.00     0.164 A 
HETATM    7 CL   UNL     1     -40.241  54.745 -49.803  1.00  0.00    -0.059 Cl
HETATM    8  C   UNL     1     -40.673  54.161 -52.443  1.00  0.00     0.165 A 
HETATM    9  N   UNL     1     -40.712  53.331 -53.516  1.00  0.00    -0.234 NA
HETATM   10  C   UNL     1     -39.428  50.327 -51.857  1.00  0.00     0.034 A 
HETATM   11  C   UNL     1     -39.410  49.432 -52.927  1.00  0.00     0.002 A 
ENDROOT
BRANCH   8  12
HETATM   12  S   UNL     1     -41.233  55.820 -52.806  1.00  0.00     0.076 S 
HETATM   13  O   UNL     1     -40.633  56.237 -54.117  1.00  0.00    -0.251 OA
BRANCH  12  14
HETATM   14  C   UNL     1     -43.012  55.484 -53.127  1.00  0.00     0.089 C 
HETATM   15  C   UNL     1     -43.874  56.740 -53.300  1.00  0.00     0.045 C 
HETATM   16  C   UNL     1     -44.080  57.522 -52.011  1.00  0.00     0.233 C 
HETATM   17  N   UNL     1     -44.626  56.610 -50.961  1.00  0.00    -0.075 N 
HETATM   18  H   UNL     1     -45.589  56.337 -51.196  1.00  0.00     0.277 HD
HETATM   19  H   UNL     1     -44.696  57.148 -50.085  1.00  0.00     0.277 HD
HETATM   20  C   UNL     1     -43.797  55.399 -50.691  1.00  0.00     0.233 C 
HETATM   21  C   UNL     1     -43.573  54.621 -51.984  1.00  0.00     0.045 C 
ENDBRANCH  12  14
ENDBRANCH   8  12
TORSDOF 2
ENDMDL
MODEL 2
REMARK VINA RESULT:      -7.1      2.158      2.745
REMARK  2 active torsions:
REMARK  status: ('A' for Active; 'I' for Inactive)
REMARK    1  A    between atoms: C_8  and  S_9 
REMARK    2  A    between atoms: S_9  and  C_10 
ROOT
HETATM    1  C   UNL     1     -39.861  50.087 -50.541  1.00  0.00     0.002 A 
HETATM    2  C   UNL     1     -40.241  51.428 -50.593  1.00  0.00     0.034 A 
HETATM    3  C   UNL     1     -40.277  52.120 -51.797  1.00  0.00     0.087 A 
HETATM    4  C   UNL     1     -39.923  51.442 -52.994  1.00  0.00     0.087 A 
HETATM    5  N   UNL     1     -39.941  52.067 -54.189  1.00  0.00    -0.232 NA
HETATM    6  C   UNL     1     -40.342  53.354 -54.189  1.00  0.00     0.164 A 
HETATM    7 CL   UNL     1     -40.337  54.090 -55.739  1.00  0.00    -0.059 Cl
HETATM    8  C   UNL     1     -40.685  54.016 -53.024  1.00  0.00     0.165 A 
HETATM    9  N   UNL     1     -40.640  53.420 -51.807  1.00  0.00    -0.234 NA
HETATM   10  C   UNL     1     -39.544  50.108 -52.927  1.00  0.00     0.034 A 
HETATM   11  C   UNL     1     -39.510  49.425 -51.710  1.00  0.00     0.002 A 
ENDROOT
BRANCH   8  12
HETATM   12  S   UNL     1     -41.202  55.727 -52.959  1.00  0.00     0.076 S 
HETATM   13  O   UNL     1     -42.374  55.895 -53.881  1.00  0.00    -0.251 OA
BRANCH  12  14
HETATM   14  C   UNL     1     -41.870  55.784 -51.246  1.00  0.00     0.089 C 
HETATM   15  C   UNL     1     -43.313  56.292 -51.144  1.00  0.00     0.045 C 
HETATM   16  C   UNL     1     -43.458  57.780 -51.432  1.00  0.00     0.233 C 
HETATM   17  N   UNL     1     -42.531  58.547 -50.546  1.00  0.00    -0.075 N 
HETATM   18  H   UNL     1     -42.848  58.492 -49.569  1.00  0.00     0.277 HD
HETATM   19  H   UNL     1     -42.604  59.542 -50.805  1.00  0.00     0.277 HD
HETATM   20  C   UNL     1     -41.097  58.151 -50.647  1.00  0.00     0.233 C 
HETATM   21  C   UNL     1     -40.948  56.657 -50.378  1.00  0.00     0.045 C 
ENDBRANCH  12  14
ENDBRANCH   8  12
TORSDOF 2
ENDMDL
MODEL 3
REMARK VINA RESULT:      -7.0      1.668      1.903
REMARK  2 active torsions:
REMARK  status: ('A' for Active; 'I' for Inactive)
REMARK    1  A    between atoms: C_8  and  S_9 
REMARK    2  A    between atoms: S_9  and  C_10 
ROOT
HETATM    1  C   UNL     1     -39.951  51.119 -54.264  1.00  0.00     0.002 A 
HETATM    2  C   UNL     1     -40.473  52.386 -54.004  1.00  0.00     0.034 A 
HETATM    3  C   UNL     1     -40.534  52.889 -52.711  1.00  0.00     0.087 A 
HETATM    4  C   UNL     1     -40.052  52.093 -51.637  1.00  0.00     0.087 A 
HETATM    5  N   UNL     1     -40.088  52.533 -50.363  1.00  0.00    -0.232 NA
HETATM    6  C   UNL     1     -40.575  53.775 -50.169  1.00  0.00     0.164 A 
HETATM    7 CL   UNL     1     -40.599  54.270 -48.527  1.00  0.00    -0.059 Cl
HETATM    8  C   UNL     1     -41.048  54.550 -51.213  1.00  0.00     0.165 A 
HETATM    9  N   UNL     1     -41.055  54.115 -52.498  1.00  0.00    -0.234 NA
HETATM   10  C   UNL     1     -39.538  50.832 -51.910  1.00  0.00     0.034 A 
HETATM   11  C   UNL     1     -39.484  50.339 -53.215  1.00  0.00     0.002 A 
ENDROOT
BRANCH   8  12
HETATM   12  S   UNL     1     -41.725  56.193 -51.015  1.00  0.00     0.076 S 
HETATM   13  O   UNL     1     -40.614  57.107 -50.587  1.00  0.00    -0.251 OA
BRANCH  12  14
HETATM   14  C   UNL     1     -42.086  56.594 -52.773  1.00  0.00     0.089 C 
HETATM   15  C   UNL     1     -41.548  57.953 -53.238  1.00  0.00     0.045 C 
HETATM   16  C   UNL     1     -42.288  59.140 -52.638  1.00  0.00     0.233 C 
HETATM   17  N   UNL     1     -43.751  58.997 -52.905  1.00  0.00    -0.075 N 
HETATM   18  H   UNL     1     -43.941  59.118 -53.909  1.00  0.00     0.277 HD
HETATM   19  H   UNL     1     -44.232  59.779 -52.436  1.00  0.00     0.277 HD
HETATM   20  C   UNL     1     -44.356  57.725 -52.415  1.00  0.00     0.233 C 
HETATM   21  C   UNL     1     -43.606  56.531 -52.999  1.00  0.00     0.045 C 
ENDBRANCH  12  14
ENDBRANCH   8  12
TORSDOF 2
ENDMDL
MODEL 4
REMARK VINA RESULT:      -7.0      2.787      3.561
REMARK  2 active torsions:
REMARK  status: ('A' for Active; 'I' for Inactive)
REMARK    1  A    between atoms: C_8  and  S_9 
REMARK    2  A    between atoms: S_9  and  C_10 
ROOT
HETATM    1  C   UNL     1     -39.336  51.300 -52.254  1.00  0.00     0.002 A 
HETATM    2  C   UNL     1     -39.922  52.455 -51.735  1.00  0.00     0.034 A 
HETATM    3  C   UNL     1     -40.783  53.232 -52.499  1.00  0.00     0.087 A 
HETATM    4  C   UNL     1     -41.071  52.835 -53.833  1.00  0.00     0.087 A 
HETATM    5  N   UNL     1     -41.900  53.554 -54.617  1.00  0.00    -0.232 NA
HETATM    6  C   UNL     1     -42.462  54.645 -54.059  1.00  0.00     0.164 A 
HETATM    7 CL   UNL     1     -43.500  55.515 -55.112  1.00  0.00    -0.059 Cl
HETATM    8  C   UNL     1     -42.180  55.034 -52.762  1.00  0.00     0.165 A 
HETATM    9  N   UNL     1     -41.322  54.348 -51.966  1.00  0.00    -0.234 NA
HETATM   10  C   UNL     1     -40.479  51.685 -54.337  1.00  0.00     0.034 A 
HETATM   11  C   UNL     1     -39.614  50.914 -53.559  1.00  0.00     0.002 A 
ENDROOT
BRANCH   8  12
HETATM   12  S   UNL     1     -42.875  56.482 -51.976  1.00  0.00     0.076 S 
HETATM   13  O   UNL     1     -43.299  56.100 -50.588  1.00  0.00    -0.251 OA
BRANCH  12  14
HETATM   14  C   UNL     1     -41.354  57.500 -51.799  1.00  0.00     0.089 C 
HETATM   15  C   UNL     1     -41.556  58.816 -51.039  1.00  0.00     0.045 C 
HETATM   16  C   UNL     1     -42.363  59.850 -51.812  1.00  0.00     0.233 C 
HETATM   17  N   UNL     1     -41.735  60.068 -53.150  1.00  0.00    -0.075 N 
HETATM   18  H   UNL     1     -40.830  60.546 -53.042  1.00  0.00     0.277 HD
HETATM   19  H   UNL     1     -42.334  60.723 -53.674  1.00  0.00     0.277 HD
HETATM   20  C   UNL     1     -41.572  58.835 -53.973  1.00  0.00     0.233 C 
HETATM   21  C   UNL     1     -40.780  57.788 -53.196  1.00  0.00     0.045 C 
ENDBRANCH  12  14
ENDBRANCH   8  12
TORSDOF 2
ENDMDL
MODEL 5
REMARK VINA RESULT:      -6.6      4.686      5.762
REMARK  2 active torsions:
REMARK  status: ('A' for Active; 'I' for Inactive)
REMARK    1  A    between atoms: C_8  and  S_9 
REMARK    2  A    between atoms: S_9  and  C_10 
ROOT
HETATM    1  C   UNL     1     -40.127  52.891 -54.220  1.00  0.00     0.002 A 
HETATM    2  C   UNL     1     -40.635  53.702 -55.235  1.00  0.00     0.034 A 
HETATM    3  C   UNL     1     -41.647  54.620 -54.985  1.00  0.00     0.087 A 
HETATM    4  C   UNL     1     -42.168  54.732 -53.668  1.00  0.00     0.087 A 
HETATM    5  N   UNL     1     -43.150  55.606 -53.371  1.00  0.00    -0.232 NA
HETATM    6  C   UNL     1     -43.587  56.386 -54.380  1.00  0.00     0.164 A 
HETATM    7 CL   UNL     1     -44.840  57.471 -53.937  1.00  0.00    -0.059 Cl
HETATM    8  C   UNL     1     -43.083  56.277 -55.664  1.00  0.00     0.165 A 
HETATM    9  N   UNL     1     -42.120  55.380 -55.994  1.00  0.00    -0.234 NA
HETATM   10  C   UNL     1     -41.654  53.916 -52.668  1.00  0.00     0.034 A 
HETATM   11  C   UNL     1     -40.638  52.996 -52.934  1.00  0.00     0.002 A 
ENDROOT
BRANCH   8  12
HETATM   12  S   UNL     1     -43.637  57.267 -57.046  1.00  0.00     0.076 S 
HETATM   13  O   UNL     1     -42.887  58.567 -57.018  1.00  0.00    -0.251 OA
BRANCH  12  14
HETATM   14  C   UNL     1     -42.933  56.285 -58.433  1.00  0.00     0.089 C 
HETATM   15  C   UNL     1     -42.375  57.126 -59.587  1.00  0.00     0.045 C 
HETATM   16  C   UNL     1     -43.449  57.829 -60.405  1.00  0.00     0.233 C 
HETATM   17  N   UNL     1     -44.447  56.823 -60.878  1.00  0.00    -0.075 N 
HETATM   18  H   UNL     1     -44.021  56.205 -61.581  1.00  0.00     0.277 HD
HETATM   19  H   UNL     1     -45.193  57.333 -61.374  1.00  0.00     0.277 HD
HETATM   20  C   UNL     1     -45.083  56.016 -59.798  1.00  0.00     0.233 C 
HETATM   21  C   UNL     1     -44.010  55.324 -58.963  1.00  0.00     0.045 C 
ENDBRANCH  12  14
ENDBRANCH   8  12
TORSDOF 2
ENDMDL
MODEL 6
REMARK VINA RESULT:      -6.2      2.338      3.135
REMARK  2 active torsions:
REMARK  status: ('A' for Active; 'I' for Inactive)
REMARK    1  A    between atoms: C_8  and  S_9 
REMARK    2  A    between atoms: S_9  and  C_10 
ROOT
HETATM    1  C   UNL     1     -39.615  51.723 -51.930  1.00  0.00     0.002 A 
HETATM    2  C   UNL     1     -40.084  53.011 -51.671  1.00  0.00     0.034 A 
HETATM    3  C   UNL     1     -40.614  53.802 -52.682  1.00  0.00     0.087 A 
HETATM    4  C   UNL     1     -40.680  53.282 -54.003  1.00  0.00     0.087 A 
HETATM    5  N   UNL     1     -41.186  54.008 -55.020  1.00  0.00    -0.232 NA
HETATM    6  C   UNL     1     -41.652  55.235 -54.712  1.00  0.00     0.164 A 
HETATM    7 CL   UNL     1     -42.275  56.106 -56.052  1.00  0.00    -0.059 Cl
HETATM    8  C   UNL     1     -41.585  55.743 -53.427  1.00  0.00     0.165 A 
HETATM    9  N   UNL     1     -41.049  55.046 -52.395  1.00  0.00    -0.234 NA
HETATM   10  C   UNL     1     -40.207  51.999 -54.247  1.00  0.00     0.034 A 
HETATM   11  C   UNL     1     -39.675  51.216 -53.222  1.00  0.00     0.002 A 
ENDROOT
BRANCH   8  12
HETATM   12  S   UNL     1     -42.165  57.370 -52.962  1.00  0.00     0.076 S 
HETATM   13  O   UNL     1     -41.856  58.314 -54.087  1.00  0.00    -0.251 OA
BRANCH  12  14
HETATM   14  C   UNL     1     -43.981  57.077 -53.008  1.00  0.00     0.089 C 
HETATM   15  C   UNL     1     -44.738  57.945 -54.019  1.00  0.00     0.045 C 
HETATM   16  C   UNL     1     -44.814  59.413 -53.628  1.00  0.00     0.233 C 
HETATM   17  N   UNL     1     -45.386  59.529 -52.252  1.00  0.00    -0.075 N 
HETATM   18  H   UNL     1     -46.380  59.264 -52.258  1.00  0.00     0.277 HD
HETATM   19  H   UNL     1     -45.368  60.526 -51.989  1.00  0.00     0.277 HD
HETATM   20  C   UNL     1     -44.653  58.764 -51.203  1.00  0.00     0.233 C 
HETATM   21  C   UNL     1     -44.558  57.294 -51.599  1.00  0.00     0.045 C 
ENDBRANCH  12  14
ENDBRANCH   8  12
TORSDOF 2
ENDMDL
MODEL 7
REMARK VINA RESULT:      -6.2     14.678     15.796
REMARK  2 active torsions:
REMARK  status: ('A' for Active; 'I' for Inactive)
REMARK    1  A    between atoms: C_8  and  S_9 
REMARK    2  A    between atoms: S_9  and  C_10 
ROOT
HETATM    1  C   UNL     1     -34.426  40.666 -50.778  1.00  0.00     0.002 A 
HETATM    2  C   UNL     1     -34.977  40.536 -52.053  1.00  0.00     0.034 A 
HETATM    3  C   UNL     1     -34.171  40.419 -53.178  1.00  0.00     0.087 A 
HETATM    4  C   UNL     1     -32.759  40.431 -53.020  1.00  0.00     0.087 A 
HETATM    5  N   UNL     1     -31.931  40.321 -54.079  1.00  0.00    -0.232 NA
HETATM    6  C   UNL     1     -32.514  40.169 -55.285  1.00  0.00     0.164 A 
HETATM    7 CL   UNL     1     -31.405  40.041 -56.588  1.00  0.00    -0.059 Cl
HETATM    8  C   UNL     1     -33.888  40.160 -55.441  1.00  0.00     0.165 A 
HETATM    9  N   UNL     1     -34.740  40.305 -54.396  1.00  0.00    -0.234 NA
HETATM   10  C   UNL     1     -32.224  40.564 -51.746  1.00  0.00     0.034 A 
HETATM   11  C   UNL     1     -33.046  40.682 -50.624  1.00  0.00     0.002 A 
ENDROOT
BRANCH   8  12
HETATM   12  S   UNL     1     -34.717  39.984 -57.016  1.00  0.00     0.076 S 
HETATM   13  O   UNL     1     -34.821  38.520 -57.327  1.00  0.00    -0.251 OA
BRANCH  12  14
HETATM   14  C   UNL     1     -36.405  40.540 -56.542  1.00  0.00     0.089 C 
HETATM   15  C   UNL     1     -37.533  39.613 -57.009  1.00  0.00     0.045 C 
HETATM   16  C   UNL     1     -37.762  39.641 -58.513  1.00  0.00     0.233 C 
HETATM   17  N   UNL     1     -37.979  41.052 -58.954  1.00  0.00    -0.075 N 
HETATM   18  H   UNL     1     -38.880  41.399 -58.600  1.00  0.00     0.277 HD
HETATM   19  H   UNL     1     -38.069  41.048 -59.981  1.00  0.00     0.277 HD
HETATM   20  C   UNL     1     -36.883  41.996 -58.593  1.00  0.00     0.233 C 
HETATM   21  C   UNL     1     -36.636  41.959 -57.088  1.00  0.00     0.045 C 
ENDBRANCH  12  14
ENDBRANCH   8  12
TORSDOF 2
ENDMDL
MODEL 8
REMARK VINA RESULT:      -6.0      3.368      4.797
REMARK  2 active torsions:
REMARK  status: ('A' for Active; 'I' for Inactive)
REMARK    1  A    between atoms: C_8  and  S_9 
REMARK    2  A    between atoms: S_9  and  C_10 
ROOT
HETATM    1  C   UNL     1     -40.615  53.077 -52.519  1.00  0.00     0.002 A 
HETATM    2  C   UNL     1     -41.299  54.136 -51.921  1.00  0.00     0.034 A 
HETATM    3  C   UNL     1     -42.143  54.956 -52.658  1.00  0.00     0.087 A 
HETATM    4  C   UNL     1     -42.312  54.704 -54.047  1.00  0.00     0.087 A 
HETATM    5  N   UNL     1     -43.120  55.469 -54.808  1.00  0.00    -0.232 NA
HETATM    6  C   UNL     1     -43.780  56.461 -54.176  1.00  0.00     0.164 A 
HETATM    7 CL   UNL     1     -44.785  57.399 -55.203  1.00  0.00    -0.059 Cl
HETATM    8  C   UNL     1     -43.614  56.710 -52.826  1.00  0.00     0.165 A 
HETATM    9  N   UNL     1     -42.780  55.977 -52.047  1.00  0.00    -0.234 NA
HETATM   10  C   UNL     1     -41.623  53.648 -54.629  1.00  0.00     0.034 A 
HETATM   11  C   UNL     1     -40.776  52.833 -53.877  1.00  0.00     0.002 A 
ENDROOT
BRANCH   8  12
HETATM   12  S   UNL     1     -44.443  58.023 -51.939  1.00  0.00     0.076 S 
HETATM   13  O   UNL     1     -45.032  57.441 -50.688  1.00  0.00    -0.251 OA
BRANCH  12  14
HETATM   14  C   UNL     1     -42.985  59.017 -51.421  1.00  0.00     0.089 C 
HETATM   15  C   UNL     1     -43.331  60.302 -50.659  1.00  0.00     0.045 C 
HETATM   16  C   UNL     1     -43.965  61.376 -51.531  1.00  0.00     0.233 C 
HETATM   17  N   UNL     1     -43.083  61.643 -52.707  1.00  0.00    -0.075 N 
HETATM   18  H   UNL     1     -42.217  62.106 -52.402  1.00  0.00     0.277 HD
HETATM   19  H   UNL     1     -43.565  62.326 -53.310  1.00  0.00     0.277 HD
HETATM   20  C   UNL     1     -42.764  60.444 -53.535  1.00  0.00     0.233 C 
HETATM   21  C   UNL     1     -42.144  59.357 -52.662  1.00  0.00     0.045 C 
ENDBRANCH  12  14
ENDBRANCH   8  12
TORSDOF 2
ENDMDL
MODEL 9
REMARK VINA RESULT:      -5.9      2.867      4.021
REMARK  2 active torsions:
REMARK  status: ('A' for Active; 'I' for Inactive)
REMARK    1  A    between atoms: C_8  and  S_9 
REMARK    2  A    between atoms: S_9  and  C_10 
ROOT
HETATM    1  C   UNL     1     -40.478  52.763 -51.203  1.00  0.00     0.002 A 
HETATM    2  C   UNL     1     -40.992  53.620 -52.176  1.00  0.00     0.034 A 
HETATM    3  C   UNL     1     -41.205  54.967 -51.910  1.00  0.00     0.087 A 
HETATM    4  C   UNL     1     -40.889  55.475 -50.622  1.00  0.00     0.087 A 
HETATM    5  N   UNL     1     -41.076  56.774 -50.312  1.00  0.00    -0.232 NA
HETATM    6  C   UNL     1     -41.549  57.565 -51.296  1.00  0.00     0.164 A 
HETATM    7 CL   UNL     1     -41.769  59.202 -50.833  1.00  0.00    -0.059 Cl
HETATM    8  C   UNL     1     -41.860  57.071 -52.550  1.00  0.00     0.165 A 
HETATM    9  N   UNL     1     -41.714  55.762 -52.874  1.00  0.00    -0.234 NA
HETATM   10  C   UNL     1     -40.380  54.610 -49.662  1.00  0.00     0.034 A 
HETATM   11  C   UNL     1     -40.172  53.258 -49.942  1.00  0.00     0.002 A 
ENDROOT
BRANCH   8  12
HETATM   12  S   UNL     1     -42.510  58.067 -53.886  1.00  0.00     0.076 S 
HETATM   13  O   UNL     1     -42.138  57.407 -55.182  1.00  0.00    -0.251 OA
BRANCH  12  14
HETATM   14  C   UNL     1     -44.309  57.773 -53.645  1.00  0.00     0.089 C 
HETATM   15  C   UNL     1     -45.108  57.623 -54.945  1.00  0.00     0.045 C 
HETATM   16  C   UNL     1     -45.251  58.921 -55.727  1.00  0.00     0.233 C 
HETATM   17  N   UNL     1     -45.827  59.974 -54.836  1.00  0.00    -0.075 N 
HETATM   18  H   UNL     1     -46.807  59.753 -54.615  1.00  0.00     0.277 HD
HETATM   19  H   UNL     1     -45.854  60.855 -55.370  1.00  0.00     0.277 HD
HETATM   20  C   UNL     1     -45.058  60.221 -53.582  1.00  0.00     0.233 C 
HETATM   21  C   UNL     1     -44.895  58.919 -52.803  1.00  0.00     0.045 C 
ENDBRANCH  12  14
ENDBRANCH   8  12
TORSDOF 2
ENDMDL
MODEL 10
REMARK VINA RESULT:      -5.8      4.138      6.293
REMARK  2 active torsions:
REMARK  status: ('A' for Active; 'I' for Inactive)
REMARK    1  A    between atoms: C_8  and  S_9 
REMARK    2  A    between atoms: S_9  and  C_10 
ROOT
HETATM    1  C   UNL     1     -43.235  55.780 -59.416  1.00  0.00     0.002 A 
HETATM    2  C   UNL     1     -43.199  55.496 -58.051  1.00  0.00     0.034 A 
HETATM    3  C   UNL     1     -42.848  56.468 -57.122  1.00  0.00     0.087 A 
HETATM    4  C   UNL     1     -42.523  57.774 -57.578  1.00  0.00     0.087 A 
HETATM    5  N   UNL     1     -42.176  58.753 -56.719  1.00  0.00    -0.232 NA
HETATM    6  C   UNL     1     -42.184  58.435 -55.409  1.00  0.00     0.164 A 
HETATM    7 CL   UNL     1     -41.727  59.724 -54.372  1.00  0.00    -0.059 Cl
HETATM    8  C   UNL     1     -42.496  57.164 -54.964  1.00  0.00     0.165 A 
HETATM    9  N   UNL     1     -42.814  56.153 -55.811  1.00  0.00    -0.234 NA
HETATM   10  C   UNL     1     -42.561  58.041 -58.940  1.00  0.00     0.034 A 
HETATM   11  C   UNL     1     -42.913  57.055 -59.863  1.00  0.00     0.002 A 
ENDROOT
BRANCH   8  12
HETATM   12  S   UNL     1     -42.502  56.677 -53.242  1.00  0.00     0.076 S 
HETATM   13  O   UNL     1     -43.815  57.094 -52.645  1.00  0.00    -0.251 OA
BRANCH  12  14
HETATM   14  C   UNL     1     -42.570  54.850 -53.436  1.00  0.00     0.089 C 
HETATM   15  C   UNL     1     -43.474  54.137 -52.424  1.00  0.00     0.045 C 
HETATM   16  C   UNL     1     -42.920  54.136 -51.006  1.00  0.00     0.233 C 
HETATM   17  N   UNL     1     -41.537  53.571 -51.016  1.00  0.00    -0.075 N 
HETATM   18  H   UNL     1     -41.568  52.565 -51.229  1.00  0.00     0.277 HD
HETATM   19  H   UNL     1     -41.165  53.639 -50.058  1.00  0.00     0.277 HD
HETATM   20  C   UNL     1     -40.584  54.263 -51.930  1.00  0.00     0.233 C 
HETATM   21  C   UNL     1     -41.143  54.284 -53.350  1.00  0.00     0.045 C 
ENDBRANCH  12  14
ENDBRANCH   8  12
TORSDOF 2
ENDMDL
