MODEL 1
REMARK VINA RESULT:      -8.5      0.000      0.000
REMARK  7 active torsions:
REMARK  status: ('A' for Active; 'I' for Inactive)
REMARK    1  A    between atoms: C_2  and  S_3 
REMARK    2  A    between atoms: C_2  and  C_20 
REMARK    3  A    between atoms: S_3  and  C_4 
REMARK    4  A    between atoms: C_4  and  C_5 
REMARK       I    between atoms: C_5  and  N_6 
REMARK    5  A    between atoms: N_6  and  C_7 
REMARK    6  A    between atoms: C_10  and  C_11 
REMARK       I    between atoms: C_11  and  N_12 
REMARK    7  A    between atoms: N_12  and  C_13 
ROOT
HETATM    1  C   UNL     1     -42.354  56.876 -52.095  1.00  0.00     0.231 C 
HETATM    2  N   UNL     1     -41.628  56.383 -53.169  1.00  0.00    -0.327 N 
HETATM    3  O   UNL     1     -43.493  57.334 -52.141  1.00  0.00    -0.272 OA
HETATM    4  H   UNL     1     -40.695  56.042 -52.972  1.00  0.00     0.169 HD
ENDROOT
BRANCH   1   5
HETATM    5  C   UNL     1     -41.593  56.819 -50.777  1.00  0.00     0.177 C 
BRANCH   5   6
HETATM    6  S   UNL     1     -42.027  55.289 -49.886  1.00  0.00    -0.147 SA
BRANCH   6   7
HETATM    7  C   UNL     1     -40.363  54.524 -49.849  1.00  0.00     0.113 C 
HETATM    8  C   UNL     1     -40.080  53.982 -48.449  1.00  0.00     0.029 C 
BRANCH   7   9
HETATM    9  C   UNL     1     -40.251  53.460 -50.896  1.00  0.00     0.118 A 
HETATM   10  N   UNL     1     -40.450  53.615 -52.192  1.00  0.00    -0.232 NA
HETATM   11  C   UNL     1     -40.207  52.386 -52.756  1.00  0.00     0.085 A 
HETATM   12  C   UNL     1     -39.880  51.450 -51.783  1.00  0.00     0.062 A 
HETATM   13  C   UNL     1     -40.244  51.992 -54.101  1.00  0.00     0.034 A 
HETATM   14  N   UNL     1     -39.929  52.154 -50.608  1.00  0.00    -0.342 N 
HETATM   15  C   UNL     1     -39.582  50.116 -52.069  1.00  0.00     0.032 A 
HETATM   16  H   UNL     1     -39.755  51.782 -49.685  1.00  0.00     0.167 HD
HETATM   17  C   UNL     1     -39.621  49.741 -53.418  1.00  0.00     0.002 A 
HETATM   18  C   UNL     1     -39.945  50.660 -54.419  1.00  0.00     0.002 A 
ENDBRANCH   7   9
ENDBRANCH   6   7
ENDBRANCH   5   6
ENDBRANCH   1   5
BRANCH   2  19
HETATM   19  C   UNL     1     -42.028  56.335 -54.522  1.00  0.00     0.034 A 
HETATM   20  C   UNL     1     -42.358  55.158 -55.197  1.00  0.00     0.030 A 
HETATM   21  C   UNL     1     -42.778  55.192 -56.534  1.00  0.00     0.019 A 
HETATM   22  C   UNL     1     -42.888  56.410 -57.210  1.00  0.00     0.032 A 
HETATM   23  C   UNL     1     -42.526  57.589 -56.546  1.00  0.00     0.019 A 
HETATM   24  C   UNL     1     -42.097  57.549 -55.214  1.00  0.00     0.030 A 
BRANCH  22  25
HETATM   25  C   UNL     1     -43.367  56.510 -58.621  1.00  0.00     0.251 C 
HETATM   26  N   UNL     1     -44.605  55.960 -58.889  1.00  0.00    -0.353 N 
HETATM   27  H   UNL     1     -45.183  55.682 -58.108  1.00  0.00     0.163 HD
HETATM   28  O   UNL     1     -42.682  57.095 -59.452  1.00  0.00    -0.268 OA
BRANCH  26  29
HETATM   29  C   UNL     1     -45.281  56.064 -60.178  1.00  0.00     0.076 C 
HETATM   30  C   UNL     1     -44.981  54.866 -61.074  1.00  0.00     0.032 C 
HETATM   31  C   UNL     1     -46.782  56.309 -60.047  1.00  0.00     0.032 C 
ENDBRANCH  26  29
ENDBRANCH  22  25
ENDBRANCH   2  19
TORSDOF 7
ENDMDL
MODEL 2
REMARK VINA RESULT:      -7.6      1.805      2.130
REMARK  7 active torsions:
REMARK  status: ('A' for Active; 'I' for Inactive)
REMARK    1  A    between atoms: C_2  and  S_3 
REMARK    2  A    between atoms: C_2  and  C_20 
REMARK    3  A    between atoms: S_3  and  C_4 
REMARK    4  A    between atoms: C_4  and  C_5 
REMARK       I    between atoms: C_5  and  N_6 
REMARK    5  A    between atoms: N_6  and  C_7 
REMARK    6  A    between atoms: C_10  and  C_11 
REMARK       I    between atoms: C_11  and  N_12 
REMARK    7  A    between atoms: N_12  and  C_13 
ROOT
HETATM    1  C   UNL     1     -43.333  56.234 -53.085  1.00  0.00     0.231 C 
HETATM    2  N   UNL     1     -42.476  55.852 -54.106  1.00  0.00    -0.327 N 
HETATM    3  O   UNL     1     -44.360  56.895 -53.212  1.00  0.00    -0.272 OA
HETATM    4  H   UNL     1     -41.662  55.310 -53.841  1.00  0.00     0.169 HD
ENDROOT
BRANCH   1   5
HETATM    5  C   UNL     1     -42.879  55.761 -51.710  1.00  0.00     0.177 C 
BRANCH   5   6
HETATM    6  S   UNL     1     -41.206  56.399 -51.366  1.00  0.00    -0.147 SA
BRANCH   6   7
HETATM    7  C   UNL     1     -40.577  54.980 -50.393  1.00  0.00     0.113 C 
HETATM    8  C   UNL     1     -41.520  54.702 -49.224  1.00  0.00     0.029 C 
BRANCH   7   9
HETATM    9  C   UNL     1     -40.401  53.780 -51.270  1.00  0.00     0.118 A 
HETATM   10  N   UNL     1     -40.543  53.743 -52.581  1.00  0.00    -0.232 NA
HETATM   11  C   UNL     1     -40.254  52.452 -52.951  1.00  0.00     0.085 A 
HETATM   12  C   UNL     1     -39.956  51.672 -51.840  1.00  0.00     0.062 A 
HETATM   13  C   UNL     1     -40.223  51.867 -54.225  1.00  0.00     0.034 A 
HETATM   14  N   UNL     1     -40.070  52.536 -50.782  1.00  0.00    -0.342 N 
HETATM   15  C   UNL     1     -39.623  50.318 -51.918  1.00  0.00     0.032 A 
HETATM   16  H   UNL     1     -39.932  52.305 -49.808  1.00  0.00     0.167 HD
HETATM   17  C   UNL     1     -39.595  49.753 -53.198  1.00  0.00     0.002 A 
HETATM   18  C   UNL     1     -39.889  50.511 -54.334  1.00  0.00     0.002 A 
ENDBRANCH   7   9
ENDBRANCH   6   7
ENDBRANCH   5   6
ENDBRANCH   1   5
BRANCH   2  19
HETATM   19  C   UNL     1     -42.587  56.165 -55.478  1.00  0.00     0.034 A 
HETATM   20  C   UNL     1     -42.937  55.240 -56.464  1.00  0.00     0.030 A 
HETATM   21  C   UNL     1     -43.059  55.631 -57.804  1.00  0.00     0.019 A 
HETATM   22  C   UNL     1     -42.846  56.962 -58.174  1.00  0.00     0.032 A 
HETATM   23  C   UNL     1     -42.463  57.885 -57.193  1.00  0.00     0.019 A 
HETATM   24  C   UNL     1     -42.332  57.488 -55.857  1.00  0.00     0.030 A 
BRANCH  22  25
HETATM   25  C   UNL     1     -43.001  57.444 -59.579  1.00  0.00     0.251 C 
HETATM   26  N   UNL     1     -43.213  58.799 -59.743  1.00  0.00    -0.353 N 
HETATM   27  H   UNL     1     -43.081  59.402 -58.944  1.00  0.00     0.163 HD
HETATM   28  O   UNL     1     -42.896  56.649 -60.505  1.00  0.00    -0.268 OA
BRANCH  26  29
HETATM   29  C   UNL     1     -43.271  59.462 -61.042  1.00  0.00     0.076 C 
HETATM   30  C   UNL     1     -44.480  60.388 -61.151  1.00  0.00     0.032 C 
HETATM   31  C   UNL     1     -41.975  60.182 -61.404  1.00  0.00     0.032 C 
ENDBRANCH  26  29
ENDBRANCH  22  25
ENDBRANCH   2  19
TORSDOF 7
ENDMDL
MODEL 3
REMARK VINA RESULT:      -7.5      3.413      6.241
REMARK  7 active torsions:
REMARK  status: ('A' for Active; 'I' for Inactive)
REMARK    1  A    between atoms: C_2  and  S_3 
REMARK    2  A    between atoms: C_2  and  C_20 
REMARK    3  A    between atoms: S_3  and  C_4 
REMARK    4  A    between atoms: C_4  and  C_5 
REMARK       I    between atoms: C_5  and  N_6 
REMARK    5  A    between atoms: N_6  and  C_7 
REMARK    6  A    between atoms: C_10  and  C_11 
REMARK       I    between atoms: C_11  and  N_12 
REMARK    7  A    between atoms: N_12  and  C_13 
ROOT
HETATM    1  C   UNL     1     -41.555  59.215 -53.973  1.00  0.00     0.231 C 
HETATM    2  N   UNL     1     -42.346  58.140 -54.349  1.00  0.00    -0.327 N 
HETATM    3  O   UNL     1     -40.395  59.156 -53.573  1.00  0.00    -0.272 OA
HETATM    4  H   UNL     1     -43.289  58.351 -54.653  1.00  0.00     0.169 HD
ENDROOT
BRANCH   1   5
HETATM    5  C   UNL     1     -42.271  60.556 -54.081  1.00  0.00     0.177 C 
BRANCH   5   6
HETATM    6  S   UNL     1     -43.738  60.554 -52.998  1.00  0.00    -0.147 SA
BRANCH   6   7
HETATM    7  C   UNL     1     -42.887  60.262 -51.402  1.00  0.00     0.113 C 
HETATM    8  C   UNL     1     -43.646  60.968 -50.281  1.00  0.00     0.029 C 
BRANCH   7   9
HETATM    9  C   UNL     1     -42.744  58.794 -51.146  1.00  0.00     0.118 A 
HETATM   10  N   UNL     1     -43.666  57.872 -51.345  1.00  0.00    -0.232 NA
HETATM   11  C   UNL     1     -43.080  56.678 -51.004  1.00  0.00     0.085 A 
HETATM   12  C   UNL     1     -41.778  56.873 -50.558  1.00  0.00     0.062 A 
HETATM   13  C   UNL     1     -43.599  55.376 -51.051  1.00  0.00     0.034 A 
HETATM   14  N   UNL     1     -41.594  58.229 -50.644  1.00  0.00    -0.342 N 
HETATM   15  C   UNL     1     -40.943  55.834 -50.145  1.00  0.00     0.032 A 
HETATM   16  H   UNL     1     -40.756  58.732 -50.388  1.00  0.00     0.167 HD
HETATM   17  C   UNL     1     -41.477  54.541 -50.201  1.00  0.00     0.002 A 
HETATM   18  C   UNL     1     -42.781  54.312 -50.646  1.00  0.00     0.002 A 
ENDBRANCH   7   9
ENDBRANCH   6   7
ENDBRANCH   5   6
ENDBRANCH   1   5
BRANCH   2  19
HETATM   19  C   UNL     1     -41.999  56.772 -54.324  1.00  0.00     0.034 A 
HETATM   20  C   UNL     1     -40.736  56.294 -53.968  1.00  0.00     0.030 A 
HETATM   21  C   UNL     1     -40.473  54.917 -53.935  1.00  0.00     0.019 A 
HETATM   22  C   UNL     1     -41.480  53.998 -54.244  1.00  0.00     0.032 A 
HETATM   23  C   UNL     1     -42.737  54.475 -54.633  1.00  0.00     0.019 A 
HETATM   24  C   UNL     1     -42.992  55.851 -54.675  1.00  0.00     0.030 A 
BRANCH  22  25
HETATM   25  C   UNL     1     -41.269  52.521 -54.187  1.00  0.00     0.251 C 
HETATM   26  N   UNL     1     -40.253  52.077 -53.363  1.00  0.00    -0.353 N 
HETATM   27  H   UNL     1     -39.833  52.739 -52.726  1.00  0.00     0.163 HD
HETATM   28  O   UNL     1     -42.009  51.780 -54.823  1.00  0.00    -0.268 OA
BRANCH  26  29
HETATM   29  C   UNL     1     -39.978  50.670 -53.094  1.00  0.00     0.076 C 
HETATM   30  C   UNL     1     -39.082  50.053 -54.165  1.00  0.00     0.032 C 
HETATM   31  C   UNL     1     -39.430  50.425 -51.691  1.00  0.00     0.032 C 
ENDBRANCH  26  29
ENDBRANCH  22  25
ENDBRANCH   2  19
TORSDOF 7
ENDMDL
MODEL 4
REMARK VINA RESULT:      -7.2      2.685      8.017
REMARK  7 active torsions:
REMARK  status: ('A' for Active; 'I' for Inactive)
REMARK    1  A    between atoms: C_2  and  S_3 
REMARK    2  A    between atoms: C_2  and  C_20 
REMARK    3  A    between atoms: S_3  and  C_4 
REMARK    4  A    between atoms: C_4  and  C_5 
REMARK       I    between atoms: C_5  and  N_6 
REMARK    5  A    between atoms: N_6  and  C_7 
REMARK    6  A    between atoms: C_10  and  C_11 
REMARK       I    between atoms: C_11  and  N_12 
REMARK    7  A    between atoms: N_12  and  C_13 
ROOT
HETATM    1  C   UNL     1     -41.404  59.025 -53.811  1.00  0.00     0.231 C 
HETATM    2  N   UNL     1     -42.074  57.823 -53.986  1.00  0.00    -0.327 N 
HETATM    3  O   UNL     1     -40.230  59.156 -53.474  1.00  0.00    -0.272 OA
HETATM    4  H   UNL     1     -43.048  57.879 -54.262  1.00  0.00     0.169 HD
ENDROOT
BRANCH   1   5
HETATM    5  C   UNL     1     -42.280  60.245 -54.066  1.00  0.00     0.177 C 
BRANCH   5   6
HETATM    6  S   UNL     1     -43.977  59.707 -54.460  1.00  0.00    -0.147 SA
BRANCH   6   7
HETATM    7  C   UNL     1     -44.032  60.265 -56.204  1.00  0.00     0.113 C 
HETATM    8  C   UNL     1     -42.899  61.256 -56.461  1.00  0.00     0.029 C 
BRANCH   7   9
HETATM    9  C   UNL     1     -43.972  59.091 -57.132  1.00  0.00     0.118 A 
HETATM   10  N   UNL     1     -43.292  57.977 -56.939  1.00  0.00    -0.232 NA
HETATM   11  C   UNL     1     -43.561  57.184 -58.028  1.00  0.00     0.085 A 
HETATM   12  C   UNL     1     -44.401  57.836 -58.923  1.00  0.00     0.062 A 
HETATM   13  C   UNL     1     -43.122  55.885 -58.324  1.00  0.00     0.034 A 
HETATM   14  N   UNL     1     -44.636  59.053 -58.337  1.00  0.00    -0.342 N 
HETATM   15  C   UNL     1     -44.840  57.267 -60.119  1.00  0.00     0.032 A 
HETATM   16  H   UNL     1     -45.203  59.796 -58.719  1.00  0.00     0.167 HD
HETATM   17  C   UNL     1     -44.394  55.969 -60.397  1.00  0.00     0.002 A 
HETATM   18  C   UNL     1     -43.551  55.287 -59.516  1.00  0.00     0.002 A 
ENDBRANCH   7   9
ENDBRANCH   6   7
ENDBRANCH   5   6
ENDBRANCH   1   5
BRANCH   2  19
HETATM   19  C   UNL     1     -41.564  56.522 -53.788  1.00  0.00     0.034 A 
HETATM   20  C   UNL     1     -41.530  55.876 -52.551  1.00  0.00     0.030 A 
HETATM   21  C   UNL     1     -41.037  54.569 -52.436  1.00  0.00     0.019 A 
HETATM   22  C   UNL     1     -40.583  53.884 -53.567  1.00  0.00     0.032 A 
HETATM   23  C   UNL     1     -40.585  54.541 -54.804  1.00  0.00     0.019 A 
HETATM   24  C   UNL     1     -41.069  55.850 -54.911  1.00  0.00     0.030 A 
BRANCH  22  25
HETATM   25  C   UNL     1     -40.084  52.478 -53.512  1.00  0.00     0.251 C 
HETATM   26  N   UNL     1     -39.781  51.983 -52.259  1.00  0.00    -0.353 N 
HETATM   27  H   UNL     1     -40.069  52.519 -51.452  1.00  0.00     0.163 HD
HETATM   28  O   UNL     1     -40.004  51.824 -54.545  1.00  0.00    -0.268 OA
BRANCH  26  29
HETATM   29  C   UNL     1     -39.392  50.600 -52.001  1.00  0.00     0.076 C 
HETATM   30  C   UNL     1     -39.850  50.130 -50.623  1.00  0.00     0.032 C 
HETATM   31  C   UNL     1     -39.835  49.640 -53.102  1.00  0.00     0.032 C 
ENDBRANCH  26  29
ENDBRANCH  22  25
ENDBRANCH   2  19
TORSDOF 7
ENDMDL
MODEL 5
REMARK VINA RESULT:      -7.1     14.706     16.699
REMARK  7 active torsions:
REMARK  status: ('A' for Active; 'I' for Inactive)
REMARK    1  A    between atoms: C_2  and  S_3 
REMARK    2  A    between atoms: C_2  and  C_20 
REMARK    3  A    between atoms: S_3  and  C_4 
REMARK    4  A    between atoms: C_4  and  C_5 
REMARK       I    between atoms: C_5  and  N_6 
REMARK    5  A    between atoms: N_6  and  C_7 
REMARK    6  A    between atoms: C_10  and  C_11 
REMARK       I    between atoms: C_11  and  N_12 
REMARK    7  A    between atoms: N_12  and  C_13 
ROOT
HETATM    1  C   UNL     1     -35.485  41.454 -52.880  1.00  0.00     0.231 C 
HETATM    2  N   UNL     1     -34.738  41.532 -54.045  1.00  0.00    -0.327 N 
HETATM    3  O   UNL     1     -36.668  41.131 -52.799  1.00  0.00    -0.272 OA
HETATM    4  H   UNL     1     -33.771  41.820 -53.949  1.00  0.00     0.169 HD
ENDROOT
BRANCH   1   5
HETATM    5  C   UNL     1     -34.697  41.832 -51.632  1.00  0.00     0.177 C 
BRANCH   5   6
HETATM    6  S   UNL     1     -34.202  40.321 -50.741  1.00  0.00    -0.147 SA
BRANCH   6   7
HETATM    7  C   UNL     1     -32.399  40.410 -51.052  1.00  0.00     0.113 C 
HETATM    8  C   UNL     1     -31.649  39.714 -49.918  1.00  0.00     0.029 C 
BRANCH   7   9
HETATM    9  C   UNL     1     -32.068  39.822 -52.389  1.00  0.00     0.118 A 
HETATM   10  N   UNL     1     -31.956  40.480 -53.526  1.00  0.00    -0.232 NA
HETATM   11  C   UNL     1     -31.613  39.541 -54.468  1.00  0.00     0.085 A 
HETATM   12  C   UNL     1     -31.541  38.274 -53.903  1.00  0.00     0.062 A 
HETATM   13  C   UNL     1     -31.343  39.697 -55.836  1.00  0.00     0.034 A 
HETATM   14  N   UNL     1     -31.849  38.477 -52.583  1.00  0.00    -0.342 N 
HETATM   15  C   UNL     1     -31.213  37.127 -54.628  1.00  0.00     0.032 A 
HETATM   16  H   UNL     1     -31.904  37.764 -51.869  1.00  0.00     0.167 HD
HETATM   17  C   UNL     1     -30.944  37.302 -55.990  1.00  0.00     0.002 A 
HETATM   18  C   UNL     1     -31.006  38.564 -56.587  1.00  0.00     0.002 A 
ENDBRANCH   7   9
ENDBRANCH   6   7
ENDBRANCH   5   6
ENDBRANCH   1   5
BRANCH   2  19
HETATM   19  C   UNL     1     -35.180  41.291 -55.363  1.00  0.00     0.034 A 
HETATM   20  C   UNL     1     -35.006  40.079 -56.035  1.00  0.00     0.030 A 
HETATM   21  C   UNL     1     -35.501  39.902 -57.335  1.00  0.00     0.019 A 
HETATM   22  C   UNL     1     -36.193  40.934 -57.974  1.00  0.00     0.032 A 
HETATM   23  C   UNL     1     -36.340  42.161 -57.316  1.00  0.00     0.019 A 
HETATM   24  C   UNL     1     -35.835  42.337 -56.023  1.00  0.00     0.030 A 
BRANCH  22  25
HETATM   25  C   UNL     1     -36.777  40.789 -59.341  1.00  0.00     0.251 C 
HETATM   26  N   UNL     1     -36.597  39.567 -59.959  1.00  0.00    -0.353 N 
HETATM   27  H   UNL     1     -36.244  38.800 -59.404  1.00  0.00     0.163 HD
HETATM   28  O   UNL     1     -37.409  41.717 -59.830  1.00  0.00    -0.268 OA
BRANCH  26  29
HETATM   29  C   UNL     1     -37.192  39.206 -61.241  1.00  0.00     0.076 C 
HETATM   30  C   UNL     1     -36.253  38.344 -62.080  1.00  0.00     0.032 C 
HETATM   31  C   UNL     1     -38.571  38.566 -61.100  1.00  0.00     0.032 C 
ENDBRANCH  26  29
ENDBRANCH  22  25
ENDBRANCH   2  19
TORSDOF 7
ENDMDL
MODEL 6
REMARK VINA RESULT:      -7.1      1.730      2.281
REMARK  7 active torsions:
REMARK  status: ('A' for Active; 'I' for Inactive)
REMARK    1  A    between atoms: C_2  and  S_3 
REMARK    2  A    between atoms: C_2  and  C_20 
REMARK    3  A    between atoms: S_3  and  C_4 
REMARK    4  A    between atoms: C_4  and  C_5 
REMARK       I    between atoms: C_5  and  N_6 
REMARK    5  A    between atoms: N_6  and  C_7 
REMARK    6  A    between atoms: C_10  and  C_11 
REMARK       I    between atoms: C_11  and  N_12 
REMARK    7  A    between atoms: N_12  and  C_13 
ROOT
HETATM    1  C   UNL     1     -42.713  56.222 -52.583  1.00  0.00     0.231 C 
HETATM    2  N   UNL     1     -42.754  57.350 -53.388  1.00  0.00    -0.327 N 
HETATM    3  O   UNL     1     -43.044  55.085 -52.911  1.00  0.00    -0.272 OA
HETATM    4  H   UNL     1     -42.452  58.221 -52.969  1.00  0.00     0.169 HD
ENDROOT
BRANCH   1   5
HETATM    5  C   UNL     1     -42.214  56.507 -51.172  1.00  0.00     0.177 C 
BRANCH   5   6
HETATM    6  S   UNL     1     -42.398  55.012 -50.145  1.00  0.00    -0.147 SA
BRANCH   6   7
HETATM    7  C   UNL     1     -40.634  54.524 -50.069  1.00  0.00     0.113 C 
HETATM    8  C   UNL     1     -40.253  54.204 -48.625  1.00  0.00     0.029 C 
BRANCH   7   9
HETATM    9  C   UNL     1     -40.369  53.373 -50.989  1.00  0.00     0.118 A 
HETATM   10  N   UNL     1     -39.984  52.162 -50.634  1.00  0.00    -0.232 NA
HETATM   11  C   UNL     1     -39.900  51.441 -51.800  1.00  0.00     0.085 A 
HETATM   12  C   UNL     1     -40.211  52.234 -52.898  1.00  0.00     0.062 A 
HETATM   13  C   UNL     1     -39.563  50.095 -52.003  1.00  0.00     0.034 A 
HETATM   14  N   UNL     1     -40.491  53.462 -52.357  1.00  0.00    -0.342 N 
HETATM   15  C   UNL     1     -40.206  51.764 -54.212  1.00  0.00     0.032 A 
HETATM   16  H   UNL     1     -40.749  54.293 -52.871  1.00  0.00     0.167 HD
HETATM   17  C   UNL     1     -39.870  50.417 -54.395  1.00  0.00     0.002 A 
HETATM   18  C   UNL     1     -39.554  49.594 -53.311  1.00  0.00     0.002 A 
ENDBRANCH   7   9
ENDBRANCH   6   7
ENDBRANCH   5   6
ENDBRANCH   1   5
BRANCH   2  19
HETATM   19  C   UNL     1     -43.205  57.431 -54.723  1.00  0.00     0.034 A 
HETATM   20  C   UNL     1     -42.452  57.029 -55.828  1.00  0.00     0.030 A 
HETATM   21  C   UNL     1     -42.979  57.111 -57.124  1.00  0.00     0.019 A 
HETATM   22  C   UNL     1     -44.278  57.584 -57.330  1.00  0.00     0.032 A 
HETATM   23  C   UNL     1     -45.024  58.019 -56.228  1.00  0.00     0.019 A 
HETATM   24  C   UNL     1     -44.489  57.945 -54.936  1.00  0.00     0.030 A 
BRANCH  22  25
HETATM   25  C   UNL     1     -44.906  57.656 -58.683  1.00  0.00     0.251 C 
HETATM   26  N   UNL     1     -45.521  58.848 -59.012  1.00  0.00    -0.353 N 
HETATM   27  H   UNL     1     -45.368  59.645 -58.411  1.00  0.00     0.163 HD
HETATM   28  O   UNL     1     -44.818  56.697 -59.442  1.00  0.00    -0.268 OA
BRANCH  26  29
HETATM   29  C   UNL     1     -46.083  59.138 -60.327  1.00  0.00     0.076 C 
HETATM   30  C   UNL     1     -47.544  59.571 -60.235  1.00  0.00     0.032 C 
HETATM   31  C   UNL     1     -45.249  60.135 -61.127  1.00  0.00     0.032 C 
ENDBRANCH  26  29
ENDBRANCH  22  25
ENDBRANCH   2  19
TORSDOF 7
ENDMDL
MODEL 7
REMARK VINA RESULT:      -7.0      3.233      8.733
REMARK  7 active torsions:
REMARK  status: ('A' for Active; 'I' for Inactive)
REMARK    1  A    between atoms: C_2  and  S_3 
REMARK    2  A    between atoms: C_2  and  C_20 
REMARK    3  A    between atoms: S_3  and  C_4 
REMARK    4  A    between atoms: C_4  and  C_5 
REMARK       I    between atoms: C_5  and  N_6 
REMARK    5  A    between atoms: N_6  and  C_7 
REMARK    6  A    between atoms: C_10  and  C_11 
REMARK       I    between atoms: C_11  and  N_12 
REMARK    7  A    between atoms: N_12  and  C_13 
ROOT
HETATM    1  C   UNL     1     -42.719  59.798 -56.886  1.00  0.00     0.231 C 
HETATM    2  N   UNL     1     -43.409  58.605 -56.738  1.00  0.00    -0.327 N 
HETATM    3  O   UNL     1     -41.725  60.143 -56.251  1.00  0.00    -0.272 OA
HETATM    4  H   UNL     1     -44.217  58.468 -57.334  1.00  0.00     0.169 HD
ENDROOT
BRANCH   1   5
HETATM    5  C   UNL     1     -43.321  60.715 -57.943  1.00  0.00     0.177 C 
BRANCH   5   6
HETATM    6  S   UNL     1     -42.059  61.112 -59.197  1.00  0.00    -0.147 SA
BRANCH   6   7
HETATM    7  C   UNL     1     -42.953  60.501 -60.675  1.00  0.00     0.113 C 
HETATM    8  C   UNL     1     -42.076  60.678 -61.912  1.00  0.00     0.029 C 
BRANCH   7   9
HETATM    9  C   UNL     1     -43.373  59.078 -60.482  1.00  0.00     0.118 A 
HETATM   10  N   UNL     1     -42.599  58.080 -60.098  1.00  0.00    -0.232 NA
HETATM   11  C   UNL     1     -43.417  56.979 -60.029  1.00  0.00     0.085 A 
HETATM   12  C   UNL     1     -44.715  57.301 -60.408  1.00  0.00     0.062 A 
HETATM   13  C   UNL     1     -43.122  55.662 -59.648  1.00  0.00     0.034 A 
HETATM   14  N   UNL     1     -44.657  58.638 -60.705  1.00  0.00    -0.342 N 
HETATM   15  C   UNL     1     -45.760  56.375 -60.434  1.00  0.00     0.032 A 
HETATM   16  H   UNL     1     -45.426  59.208 -61.028  1.00  0.00     0.167 HD
HETATM   17  C   UNL     1     -45.447  55.066 -60.048  1.00  0.00     0.002 A 
HETATM   18  C   UNL     1     -44.152  54.712 -59.660  1.00  0.00     0.002 A 
ENDBRANCH   7   9
ENDBRANCH   6   7
ENDBRANCH   5   6
ENDBRANCH   1   5
BRANCH   2  19
HETATM   19  C   UNL     1     -43.137  57.567 -55.821  1.00  0.00     0.034 A 
HETATM   20  C   UNL     1     -43.721  57.468 -54.557  1.00  0.00     0.030 A 
HETATM   21  C   UNL     1     -43.425  56.390 -53.711  1.00  0.00     0.019 A 
HETATM   22  C   UNL     1     -42.550  55.384 -54.130  1.00  0.00     0.032 A 
HETATM   23  C   UNL     1     -41.937  55.496 -55.384  1.00  0.00     0.019 A 
HETATM   24  C   UNL     1     -42.227  56.581 -56.220  1.00  0.00     0.030 A 
BRANCH  22  25
HETATM   25  C   UNL     1     -42.229  54.192 -53.289  1.00  0.00     0.251 C 
HETATM   26  N   UNL     1     -41.020  53.572 -53.538  1.00  0.00    -0.353 N 
HETATM   27  H   UNL     1     -40.357  54.044 -54.136  1.00  0.00     0.163 HD
HETATM   28  O   UNL     1     -43.008  53.846 -52.409  1.00  0.00    -0.268 OA
BRANCH  26  29
HETATM   29  C   UNL     1     -40.491  52.470 -52.742  1.00  0.00     0.076 C 
HETATM   30  C   UNL     1     -39.582  51.562 -53.566  1.00  0.00     0.032 C 
HETATM   31  C   UNL     1     -39.810  52.934 -51.457  1.00  0.00     0.032 C 
ENDBRANCH  26  29
ENDBRANCH  22  25
ENDBRANCH   2  19
TORSDOF 7
ENDMDL
MODEL 8
REMARK VINA RESULT:      -6.9      2.994      8.120
REMARK  7 active torsions:
REMARK  status: ('A' for Active; 'I' for Inactive)
REMARK    1  A    between atoms: C_2  and  S_3 
REMARK    2  A    between atoms: C_2  and  C_20 
REMARK    3  A    between atoms: S_3  and  C_4 
REMARK    4  A    between atoms: C_4  and  C_5 
REMARK       I    between atoms: C_5  and  N_6 
REMARK    5  A    between atoms: N_6  and  C_7 
REMARK    6  A    between atoms: C_10  and  C_11 
REMARK       I    between atoms: C_11  and  N_12 
REMARK    7  A    between atoms: N_12  and  C_13 
ROOT
HETATM    1  C   UNL     1     -43.567  56.482 -58.315  1.00  0.00     0.231 C 
HETATM    2  N   UNL     1     -43.829  56.151 -56.994  1.00  0.00    -0.327 N 
HETATM    3  O   UNL     1     -42.528  56.249 -58.927  1.00  0.00    -0.272 OA
HETATM    4  H   UNL     1     -44.735  56.416 -56.627  1.00  0.00     0.169 HD
ENDROOT
BRANCH   1   5
HETATM    5  C   UNL     1     -44.720  57.211 -58.993  1.00  0.00     0.177 C 
BRANCH   5   6
HETATM    6  S   UNL     1     -44.530  59.009 -58.754  1.00  0.00    -0.147 SA
BRANCH   6   7
HETATM    7  C   UNL     1     -45.728  59.222 -57.385  1.00  0.00     0.113 C 
HETATM    8  C   UNL     1     -46.934  58.314 -57.614  1.00  0.00     0.029 C 
BRANCH   7   9
HETATM    9  C   UNL     1     -45.070  58.958 -56.067  1.00  0.00     0.118 A 
HETATM   10  N   UNL     1     -45.455  58.078 -55.163  1.00  0.00    -0.232 NA
HETATM   11  C   UNL     1     -44.540  58.167 -54.142  1.00  0.00     0.085 A 
HETATM   12  C   UNL     1     -43.588  59.143 -54.412  1.00  0.00     0.062 A 
HETATM   13  C   UNL     1     -44.454  57.440 -52.946  1.00  0.00     0.034 A 
HETATM   14  N   UNL     1     -43.956  59.642 -55.635  1.00  0.00    -0.342 N 
HETATM   15  C   UNL     1     -42.536  59.450 -53.548  1.00  0.00     0.032 A 
HETATM   16  H   UNL     1     -43.489  60.383 -56.139  1.00  0.00     0.167 HD
HETATM   17  C   UNL     1     -42.465  58.713 -52.359  1.00  0.00     0.002 A 
HETATM   18  C   UNL     1     -43.406  57.724 -52.061  1.00  0.00     0.002 A 
ENDBRANCH   7   9
ENDBRANCH   6   7
ENDBRANCH   5   6
ENDBRANCH   1   5
BRANCH   2  19
HETATM   19  C   UNL     1     -42.959  55.514 -56.083  1.00  0.00     0.034 A 
HETATM   20  C   UNL     1     -41.825  56.118 -55.534  1.00  0.00     0.030 A 
HETATM   21  C   UNL     1     -41.025  55.433 -54.609  1.00  0.00     0.019 A 
HETATM   22  C   UNL     1     -41.359  54.136 -54.209  1.00  0.00     0.032 A 
HETATM   23  C   UNL     1     -42.475  53.516 -54.783  1.00  0.00     0.019 A 
HETATM   24  C   UNL     1     -43.266  54.200 -55.714  1.00  0.00     0.030 A 
BRANCH  22  25
HETATM   25  C   UNL     1     -40.566  53.374 -53.199  1.00  0.00     0.251 C 
HETATM   26  N   UNL     1     -40.341  52.039 -53.474  1.00  0.00    -0.353 N 
HETATM   27  H   UNL     1     -40.566  51.699 -54.398  1.00  0.00     0.163 HD
HETATM   28  O   UNL     1     -40.123  53.955 -52.215  1.00  0.00    -0.268 OA
BRANCH  26  29
HETATM   29  C   UNL     1     -39.495  51.171 -52.663  1.00  0.00     0.076 C 
HETATM   30  C   UNL     1     -39.863  51.242 -51.183  1.00  0.00     0.032 C 
HETATM   31  C   UNL     1     -39.459  49.731 -53.167  1.00  0.00     0.032 C 
ENDBRANCH  26  29
ENDBRANCH  22  25
ENDBRANCH   2  19
TORSDOF 7
ENDMDL
MODEL 9
REMARK VINA RESULT:      -6.9      4.275      5.528
REMARK  7 active torsions:
REMARK  status: ('A' for Active; 'I' for Inactive)
REMARK    1  A    between atoms: C_2  and  S_3 
REMARK    2  A    between atoms: C_2  and  C_20 
REMARK    3  A    between atoms: S_3  and  C_4 
REMARK    4  A    between atoms: C_4  and  C_5 
REMARK       I    between atoms: C_5  and  N_6 
REMARK    5  A    between atoms: N_6  and  C_7 
REMARK    6  A    between atoms: C_10  and  C_11 
REMARK       I    between atoms: C_11  and  N_12 
REMARK    7  A    between atoms: N_12  and  C_13 
ROOT
HETATM    1  C   UNL     1     -43.171  56.695 -57.440  1.00  0.00     0.231 C 
HETATM    2  N   UNL     1     -42.070  57.198 -58.116  1.00  0.00    -0.327 N 
HETATM    3  O   UNL     1     -44.264  57.244 -57.326  1.00  0.00    -0.272 OA
HETATM    4  H   UNL     1     -41.233  56.627 -58.117  1.00  0.00     0.169 HD
ENDROOT
BRANCH   1   5
HETATM    5  C   UNL     1     -42.913  55.338 -56.796  1.00  0.00     0.177 C 
BRANCH   5   6
HETATM    6  S   UNL     1     -43.008  55.496 -54.983  1.00  0.00    -0.147 SA
BRANCH   6   7
HETATM    7  C   UNL     1     -41.212  55.519 -54.625  1.00  0.00     0.113 C 
HETATM    8  C   UNL     1     -40.888  56.693 -53.704  1.00  0.00     0.029 C 
BRANCH   7   9
HETATM    9  C   UNL     1     -40.778  54.211 -54.040  1.00  0.00     0.118 A 
HETATM   10  N   UNL     1     -40.480  53.980 -52.776  1.00  0.00    -0.232 NA
HETATM   11  C   UNL     1     -40.170  52.644 -52.703  1.00  0.00     0.085 A 
HETATM   12  C   UNL     1     -40.250  52.047 -53.956  1.00  0.00     0.062 A 
HETATM   13  C   UNL     1     -39.810  51.863 -51.595  1.00  0.00     0.034 A 
HETATM   14  N   UNL     1     -40.624  53.068 -54.791  1.00  0.00    -0.342 N 
HETATM   15  C   UNL     1     -39.987  50.695 -54.181  1.00  0.00     0.032 A 
HETATM   16  H   UNL     1     -40.767  52.996 -55.789  1.00  0.00     0.167 HD
HETATM   17  C   UNL     1     -39.631  49.931 -53.063  1.00  0.00     0.002 A 
HETATM   18  C   UNL     1     -39.544  50.502 -51.791  1.00  0.00     0.002 A 
ENDBRANCH   7   9
ENDBRANCH   6   7
ENDBRANCH   5   6
ENDBRANCH   1   5
BRANCH   2  19
HETATM   19  C   UNL     1     -41.967  58.440 -58.779  1.00  0.00     0.034 A 
HETATM   20  C   UNL     1     -41.773  59.660 -58.127  1.00  0.00     0.030 A 
HETATM   21  C   UNL     1     -41.649  60.851 -58.855  1.00  0.00     0.019 A 
HETATM   22  C   UNL     1     -41.701  60.834 -60.252  1.00  0.00     0.032 A 
HETATM   23  C   UNL     1     -41.928  59.618 -60.907  1.00  0.00     0.019 A 
HETATM   24  C   UNL     1     -42.063  58.432 -60.175  1.00  0.00     0.030 A 
BRANCH  22  25
HETATM   25  C   UNL     1     -41.535  62.066 -61.080  1.00  0.00     0.251 C 
HETATM   26  N   UNL     1     -40.935  61.900 -62.313  1.00  0.00    -0.353 N 
HETATM   27  H   UNL     1     -40.802  60.959 -62.656  1.00  0.00     0.163 HD
HETATM   28  O   UNL     1     -41.962  63.136 -60.664  1.00  0.00    -0.268 OA
BRANCH  26  29
HETATM   29  C   UNL     1     -40.794  62.965 -63.300  1.00  0.00     0.076 C 
HETATM   30  C   UNL     1     -42.149  63.510 -63.744  1.00  0.00     0.032 C 
HETATM   31  C   UNL     1     -39.858  64.082 -62.846  1.00  0.00     0.032 C 
ENDBRANCH  26  29
ENDBRANCH  22  25
ENDBRANCH   2  19
TORSDOF 7
ENDMDL
MODEL 10
REMARK VINA RESULT:      -6.8      2.722      8.340
REMARK  7 active torsions:
REMARK  status: ('A' for Active; 'I' for Inactive)
REMARK    1  A    between atoms: C_2  and  S_3 
REMARK    2  A    between atoms: C_2  and  C_20 
REMARK    3  A    between atoms: S_3  and  C_4 
REMARK    4  A    between atoms: C_4  and  C_5 
REMARK       I    between atoms: C_5  and  N_6 
REMARK    5  A    between atoms: N_6  and  C_7 
REMARK    6  A    between atoms: C_10  and  C_11 
REMARK       I    between atoms: C_11  and  N_12 
REMARK    7  A    between atoms: N_12  and  C_13 
ROOT
HETATM    1  C   UNL     1     -43.429  57.932 -55.302  1.00  0.00     0.231 C 
HETATM    2  N   UNL     1     -42.350  57.840 -54.435  1.00  0.00    -0.327 N 
HETATM    3  O   UNL     1     -44.097  56.994 -55.729  1.00  0.00    -0.272 OA
HETATM    4  H   UNL     1     -41.895  58.708 -54.177  1.00  0.00     0.169 HD
ENDROOT
BRANCH   1   5
HETATM    5  C   UNL     1     -43.739  59.362 -55.726  1.00  0.00     0.177 C 
BRANCH   5   6
HETATM    6  S   UNL     1     -42.268  60.100 -56.509  1.00  0.00    -0.147 SA
BRANCH   6   7
HETATM    7  C   UNL     1     -42.944  60.311 -58.198  1.00  0.00     0.113 C 
HETATM    8  C   UNL     1     -41.847  60.822 -59.129  1.00  0.00     0.029 C 
BRANCH   7   9
HETATM    9  C   UNL     1     -43.543  59.029 -58.686  1.00  0.00     0.118 A 
HETATM   10  N   UNL     1     -44.781  58.855 -59.109  1.00  0.00    -0.232 NA
HETATM   11  C   UNL     1     -44.865  57.536 -59.482  1.00  0.00     0.085 A 
HETATM   12  C   UNL     1     -43.662  56.878 -59.257  1.00  0.00     0.062 A 
HETATM   13  C   UNL     1     -45.944  56.823 -60.028  1.00  0.00     0.034 A 
HETATM   14  N   UNL     1     -42.842  57.845 -58.737  1.00  0.00    -0.342 N 
HETATM   15  C   UNL     1     -43.460  55.527 -59.544  1.00  0.00     0.032 A 
HETATM   16  H   UNL     1     -41.884  57.716 -58.443  1.00  0.00     0.167 HD
HETATM   17  C   UNL     1     -44.546  54.832 -60.090  1.00  0.00     0.002 A 
HETATM   18  C   UNL     1     -45.768  55.467 -60.330  1.00  0.00     0.002 A 
ENDBRANCH   7   9
ENDBRANCH   6   7
ENDBRANCH   5   6
ENDBRANCH   1   5
BRANCH   2  19
HETATM   19  C   UNL     1     -41.785  56.665 -53.896  1.00  0.00     0.034 A 
HETATM   20  C   UNL     1     -41.915  56.277 -52.560  1.00  0.00     0.030 A 
HETATM   21  C   UNL     1     -41.352  55.078 -52.103  1.00  0.00     0.019 A 
HETATM   22  C   UNL     1     -40.661  54.241 -52.983  1.00  0.00     0.032 A 
HETATM   23  C   UNL     1     -40.500  54.642 -54.315  1.00  0.00     0.019 A 
HETATM   24  C   UNL     1     -41.055  55.845 -54.765  1.00  0.00     0.030 A 
BRANCH  22  25
HETATM   25  C   UNL     1     -40.075  52.934 -52.561  1.00  0.00     0.251 C 
HETATM   26  N   UNL     1     -40.093  51.921 -53.500  1.00  0.00    -0.353 N 
HETATM   27  H   UNL     1     -40.334  52.157 -54.452  1.00  0.00     0.163 HD
HETATM   28  O   UNL     1     -39.578  52.826 -51.446  1.00  0.00    -0.268 OA
BRANCH  26  29
HETATM   29  C   UNL     1     -39.465  50.618 -53.305  1.00  0.00     0.076 C 
HETATM   30  C   UNL     1     -39.922  49.956 -52.008  1.00  0.00     0.032 C 
HETATM   31  C   UNL     1     -39.634  49.688 -54.504  1.00  0.00     0.032 C 
ENDBRANCH  26  29
ENDBRANCH  22  25
ENDBRANCH   2  19
TORSDOF 7
ENDMDL
