MODEL 1
REMARK VINA RESULT:      -6.9      0.000      0.000
REMARK  14 active torsions:
REMARK  status: ('A' for Active; 'I' for Inactive)
REMARK    1  A    between atoms: C_2  and  N_3 
REMARK    2  A    between atoms: N_3  and  C_5 
REMARK    3  A    between atoms: N_3  and  C_37 
REMARK    4  A    between atoms: C_5  and  C_6 
REMARK    5  A    between atoms: C_6  and  N_7 
REMARK    6  A    between atoms: C_10  and  O_11 
REMARK    7  A    between atoms: C_12  and  C_13 
REMARK    8  A    between atoms: C_13  and  C_14 
REMARK    9  A    between atoms: C_18  and  O_19 
REMARK   10  A    between atoms: O_19  and  C_20 
REMARK   11  A    between atoms: C_26  and  C_27 
REMARK   12  A    between atoms: C_29  and  O_30 
REMARK   13  A    between atoms: O_30  and  C_31 
REMARK   14  A    between atoms: C_33  and  O_34 
ROOT
HETATM    1  N   UNL     1     -42.665  59.189 -55.820  1.00  0.00    -0.332 N 
HETATM    2  C   UNL     1     -42.252  58.414 -56.877  1.00  0.00     0.278 C 
HETATM    3  O   UNL     1     -41.843  58.802 -57.957  1.00  0.00    -0.265 OA
HETATM    4  C   UNL     1     -42.427  56.997 -56.488  1.00  0.00     0.146 C 
HETATM    5  C   UNL     1     -42.902  56.987 -55.235  1.00  0.00     0.059 C 
HETATM    6  C   UNL     1     -42.996  58.376 -54.660  1.00  0.00     0.161 C 
ENDROOT
BRANCH   5   7
HETATM    7  C   UNL     1     -43.358  55.884 -54.360  1.00  0.00     0.193 C 
HETATM    8  O   UNL     1     -44.535  55.848 -54.004  1.00  0.00    -0.287 OA
BRANCH   7   9
HETATM    9  C   UNL     1     -42.451  54.824 -53.882  1.00  0.00     0.015 A 
HETATM   10  C   UNL     1     -41.819  54.893 -52.638  1.00  0.00     0.025 A 
HETATM   11  C   UNL     1     -40.898  53.904 -52.257  1.00  0.00    -0.028 A 
HETATM   12  C   UNL     1     -40.233  53.976 -50.910  1.00  0.00     0.051 C 
HETATM   13  C   UNL     1     -40.563  52.888 -53.168  1.00  0.00     0.075 A 
HETATM   14  C   UNL     1     -41.202  52.817 -54.407  1.00  0.00     0.038 A 
HETATM   15  C   UNL     1     -42.136  53.791 -54.769  1.00  0.00     0.018 A 
BRANCH  13  16
HETATM   16  O   UNL     1     -39.624  51.979 -52.758  1.00  0.00    -0.346 OA
BRANCH  16  17
HETATM   17  C   UNL     1     -39.993  50.592 -52.833  1.00  0.00     0.121 C 
HETATM   18  C   UNL     1     -39.331  49.904 -54.028  1.00  0.00     0.040 C 
HETATM   19  C   UNL     1     -39.508  49.946 -51.536  1.00  0.00     0.040 C 
ENDBRANCH  16  17
ENDBRANCH  13  16
ENDBRANCH   7   9
ENDBRANCH   5   7
BRANCH   4  20
HETATM   20  O   UNL     1     -42.168  55.965 -57.333  1.00  0.00    -0.355 OA
HETATM   21  H   UNL     1     -41.915  56.358 -58.195  1.00  0.00     0.218 HD
ENDBRANCH   4  20
BRANCH   6  22
HETATM   22  C   UNL     1     -42.055  58.659 -53.499  1.00  0.00    -0.028 A 
HETATM   23  C   UNL     1     -42.556  59.299 -52.346  1.00  0.00     0.049 A 
HETATM   24  C   UNL     1     -41.704  59.642 -51.295  1.00  0.00     0.102 A 
HETATM   25  C   UNL     1     -40.347  59.327 -51.398  1.00  0.00     0.099 A 
HETATM   26  C   UNL     1     -39.833  58.674 -52.510  1.00  0.00     0.040 A 
HETATM   27  C   UNL     1     -40.685  58.338 -53.560  1.00  0.00     0.012 A 
BRANCH  24  28
HETATM   28  O   UNL     1     -42.061  60.294 -50.144  1.00  0.00    -0.349 OA
BRANCH  28  29
HETATM   29  C   UNL     1     -43.343  60.923 -50.124  1.00  0.00     0.171 C 
HETATM   30  C   UNL     1     -43.131  62.420 -50.258  1.00  0.00     0.034 C 
ENDBRANCH  28  29
ENDBRANCH  24  28
BRANCH  25  31
HETATM   31  O   UNL     1     -39.482  59.658 -50.392  1.00  0.00    -0.358 OA
HETATM   32  H   UNL     1     -39.713  60.574 -50.142  1.00  0.00     0.218 HD
ENDBRANCH  25  31
ENDBRANCH   6  22
BRANCH   1  33
HETATM   33  C   UNL     1     -42.506  60.633 -55.779  1.00  0.00     0.155 C 
BRANCH  33  34
HETATM   34  C   UNL     1     -43.764  61.377 -56.256  1.00  0.00     0.254 C 
BRANCH  34  35
HETATM   35  N   UNL     1     -44.571  62.008 -55.124  1.00  0.00    -0.070 N 
HETATM   36  H   UNL     1     -44.905  62.909 -55.495  1.00  0.00     0.279 HD
BRANCH  35  37
HETATM   37  C   UNL     1     -43.740  62.366 -53.898  1.00  0.00     0.230 C 
HETATM   38  C   UNL     1     -43.471  63.859 -53.826  1.00  0.00     0.034 C 
ENDBRANCH  35  37
BRANCH  35  39
HETATM   39  C   UNL     1     -45.821  61.244 -54.716  1.00  0.00     0.230 C 
HETATM   40  C   UNL     1     -45.797  60.884 -53.242  1.00  0.00     0.034 C 
ENDBRANCH  35  39
ENDBRANCH  34  35
ENDBRANCH  33  34
ENDBRANCH   1  33
TORSDOF 14
ENDMDL
MODEL 2
REMARK VINA RESULT:      -6.8      2.218      5.015
REMARK  14 active torsions:
REMARK  status: ('A' for Active; 'I' for Inactive)
REMARK    1  A    between atoms: C_2  and  N_3 
REMARK    2  A    between atoms: N_3  and  C_5 
REMARK    3  A    between atoms: N_3  and  C_37 
REMARK    4  A    between atoms: C_5  and  C_6 
REMARK    5  A    between atoms: C_6  and  N_7 
REMARK    6  A    between atoms: C_10  and  O_11 
REMARK    7  A    between atoms: C_12  and  C_13 
REMARK    8  A    between atoms: C_13  and  C_14 
REMARK    9  A    between atoms: C_18  and  O_19 
REMARK   10  A    between atoms: O_19  and  C_20 
REMARK   11  A    between atoms: C_26  and  C_27 
REMARK   12  A    between atoms: C_29  and  O_30 
REMARK   13  A    between atoms: O_30  and  C_31 
REMARK   14  A    between atoms: C_33  and  O_34 
ROOT
HETATM    1  N   UNL     1     -44.693  59.547 -51.787  1.00  0.00    -0.332 N 
HETATM    2  C   UNL     1     -45.355  58.493 -51.203  1.00  0.00     0.278 C 
HETATM    3  O   UNL     1     -46.533  58.446 -50.895  1.00  0.00    -0.265 OA
HETATM    4  C   UNL     1     -44.367  57.417 -50.972  1.00  0.00     0.146 C 
HETATM    5  C   UNL     1     -43.190  57.853 -51.440  1.00  0.00     0.059 C 
HETATM    6  C   UNL     1     -43.314  59.204 -52.095  1.00  0.00     0.161 C 
ENDROOT
BRANCH   5   7
HETATM    7  C   UNL     1     -41.832  57.267 -51.402  1.00  0.00     0.193 C 
HETATM    8  O   UNL     1     -40.921  57.896 -50.864  1.00  0.00    -0.287 OA
BRANCH   7   9
HETATM    9  C   UNL     1     -41.518  55.954 -51.996  1.00  0.00     0.015 A 
HETATM   10  C   UNL     1     -41.061  55.825 -53.309  1.00  0.00     0.025 A 
HETATM   11  C   UNL     1     -40.854  54.552 -53.864  1.00  0.00    -0.028 A 
HETATM   12  C   UNL     1     -40.347  54.419 -55.274  1.00  0.00     0.051 C 
HETATM   13  C   UNL     1     -41.182  53.411 -53.111  1.00  0.00     0.075 A 
HETATM   14  C   UNL     1     -41.630  53.544 -51.796  1.00  0.00     0.038 A 
HETATM   15  C   UNL     1     -41.810  54.814 -51.243  1.00  0.00     0.018 A 
BRANCH  13  16
HETATM   16  O   UNL     1     -41.003  52.198 -53.720  1.00  0.00    -0.346 OA
BRANCH  16  17
HETATM   17  C   UNL     1     -39.721  51.572 -53.549  1.00  0.00     0.121 C 
HETATM   18  C   UNL     1     -39.428  51.302 -52.072  1.00  0.00     0.040 C 
HETATM   19  C   UNL     1     -39.781  50.249 -54.311  1.00  0.00     0.040 C 
ENDBRANCH  16  17
ENDBRANCH  13  16
ENDBRANCH   7   9
ENDBRANCH   5   7
BRANCH   4  20
HETATM   20  O   UNL     1     -44.682  56.250 -50.350  1.00  0.00    -0.355 OA
HETATM   21  H   UNL     1     -45.583  56.359 -49.979  1.00  0.00     0.218 HD
ENDBRANCH   4  20
BRANCH   6  22
HETATM   22  C   UNL     1     -43.063  59.219 -53.596  1.00  0.00    -0.028 A 
HETATM   23  C   UNL     1     -43.667  58.234 -54.405  1.00  0.00     0.049 A 
HETATM   24  C   UNL     1     -43.397  58.173 -55.774  1.00  0.00     0.102 A 
HETATM   25  C   UNL     1     -42.528  59.115 -56.331  1.00  0.00     0.099 A 
HETATM   26  C   UNL     1     -41.942  60.109 -55.561  1.00  0.00     0.040 A 
HETATM   27  C   UNL     1     -42.208  60.164 -54.195  1.00  0.00     0.012 A 
BRANCH  24  28
HETATM   28  O   UNL     1     -43.891  57.248 -56.656  1.00  0.00    -0.349 OA
BRANCH  28  29
HETATM   29  C   UNL     1     -43.137  56.047 -56.827  1.00  0.00     0.171 C 
HETATM   30  C   UNL     1     -43.084  55.737 -58.312  1.00  0.00     0.034 C 
ENDBRANCH  28  29
ENDBRANCH  24  28
BRANCH  25  31
HETATM   31  O   UNL     1     -42.233  59.077 -57.665  1.00  0.00    -0.358 OA
HETATM   32  H   UNL     1     -41.549  59.763 -57.800  1.00  0.00     0.218 HD
ENDBRANCH  25  31
ENDBRANCH   6  22
BRANCH   1  33
HETATM   33  C   UNL     1     -45.367  60.732 -52.292  1.00  0.00     0.155 C 
BRANCH  33  34
HETATM   34  C   UNL     1     -44.908  62.017 -51.583  1.00  0.00     0.254 C 
BRANCH  34  35
HETATM   35  N   UNL     1     -44.841  61.889 -50.063  1.00  0.00    -0.070 N 
HETATM   36  H   UNL     1     -44.506  60.932 -49.883  1.00  0.00     0.279 HD
BRANCH  35  37
HETATM   37  C   UNL     1     -46.198  61.974 -49.376  1.00  0.00     0.230 C 
HETATM   38  C   UNL     1     -46.093  62.649 -48.020  1.00  0.00     0.034 C 
ENDBRANCH  35  37
BRANCH  35  39
HETATM   39  C   UNL     1     -43.839  62.808 -49.381  1.00  0.00     0.230 C 
HETATM   40  C   UNL     1     -42.958  63.519 -50.392  1.00  0.00     0.034 C 
ENDBRANCH  35  39
ENDBRANCH  34  35
ENDBRANCH  33  34
ENDBRANCH   1  33
TORSDOF 14
ENDMDL
MODEL 3
REMARK VINA RESULT:      -6.7      2.100      4.696
REMARK  14 active torsions:
REMARK  status: ('A' for Active; 'I' for Inactive)
REMARK    1  A    between atoms: C_2  and  N_3 
REMARK    2  A    between atoms: N_3  and  C_5 
REMARK    3  A    between atoms: N_3  and  C_37 
REMARK    4  A    between atoms: C_5  and  C_6 
REMARK    5  A    between atoms: C_6  and  N_7 
REMARK    6  A    between atoms: C_10  and  O_11 
REMARK    7  A    between atoms: C_12  and  C_13 
REMARK    8  A    between atoms: C_13  and  C_14 
REMARK    9  A    between atoms: C_18  and  O_19 
REMARK   10  A    between atoms: O_19  and  C_20 
REMARK   11  A    between atoms: C_26  and  C_27 
REMARK   12  A    between atoms: C_29  and  O_30 
REMARK   13  A    between atoms: O_30  and  C_31 
REMARK   14  A    between atoms: C_33  and  O_34 
ROOT
HETATM    1  N   UNL     1     -44.544  59.341 -52.209  1.00  0.00    -0.332 N 
HETATM    2  C   UNL     1     -45.146  58.407 -51.400  1.00  0.00     0.278 C 
HETATM    3  O   UNL     1     -46.297  58.413 -51.003  1.00  0.00    -0.265 OA
HETATM    4  C   UNL     1     -44.127  57.392 -51.054  1.00  0.00     0.146 C 
HETATM    5  C   UNL     1     -42.993  57.740 -51.678  1.00  0.00     0.059 C 
HETATM    6  C   UNL     1     -43.185  58.951 -52.552  1.00  0.00     0.161 C 
ENDROOT
BRANCH   5   7
HETATM    7  C   UNL     1     -41.627  57.172 -51.635  1.00  0.00     0.193 C 
HETATM    8  O   UNL     1     -40.710  57.851 -51.174  1.00  0.00    -0.287 OA
BRANCH   7   9
HETATM    9  C   UNL     1     -41.314  55.822 -52.137  1.00  0.00     0.015 A 
HETATM   10  C   UNL     1     -40.935  55.592 -53.461  1.00  0.00     0.025 A 
HETATM   11  C   UNL     1     -40.727  54.282 -53.920  1.00  0.00    -0.028 A 
HETATM   12  C   UNL     1     -40.304  54.042 -55.344  1.00  0.00     0.051 C 
HETATM   13  C   UNL     1     -40.975  53.202 -53.055  1.00  0.00     0.075 A 
HETATM   14  C   UNL     1     -41.346  53.435 -51.730  1.00  0.00     0.038 A 
HETATM   15  C   UNL     1     -41.527  54.743 -51.274  1.00  0.00     0.018 A 
BRANCH  13  16
HETATM   16  O   UNL     1     -40.800  51.946 -53.572  1.00  0.00    -0.346 OA
BRANCH  16  17
HETATM   17  C   UNL     1     -39.545  51.304 -53.297  1.00  0.00     0.121 C 
HETATM   18  C   UNL     1     -39.498  50.764 -51.867  1.00  0.00     0.040 C 
HETATM   19  C   UNL     1     -39.426  50.146 -54.287  1.00  0.00     0.040 C 
ENDBRANCH  16  17
ENDBRANCH  13  16
ENDBRANCH   7   9
ENDBRANCH   5   7
BRANCH   4  20
HETATM   20  O   UNL     1     -44.379  56.354 -50.213  1.00  0.00    -0.355 OA
HETATM   21  H   UNL     1     -45.308  56.448 -49.914  1.00  0.00     0.218 HD
ENDBRANCH   4  20
BRANCH   6  22
HETATM   22  C   UNL     1     -43.042  58.699 -54.045  1.00  0.00    -0.028 A 
HETATM   23  C   UNL     1     -42.244  59.568 -54.818  1.00  0.00     0.049 A 
HETATM   24  C   UNL     1     -42.152  59.410 -56.202  1.00  0.00     0.102 A 
HETATM   25  C   UNL     1     -42.855  58.365 -56.807  1.00  0.00     0.099 A 
HETATM   26  C   UNL     1     -43.627  57.481 -56.067  1.00  0.00     0.040 A 
HETATM   27  C   UNL     1     -43.721  57.645 -54.687  1.00  0.00     0.012 A 
BRANCH  24  28
HETATM   28  O   UNL     1     -41.442  60.205 -57.063  1.00  0.00    -0.349 OA
BRANCH  28  29
HETATM   29  C   UNL     1     -42.025  61.459 -57.419  1.00  0.00     0.171 C 
HETATM   30  C   UNL     1     -42.038  61.554 -58.934  1.00  0.00     0.034 C 
ENDBRANCH  28  29
ENDBRANCH  24  28
BRANCH  25  31
HETATM   31  O   UNL     1     -42.798  58.188 -58.162  1.00  0.00    -0.358 OA
HETATM   32  H   UNL     1     -42.184  57.440 -58.301  1.00  0.00     0.218 HD
ENDBRANCH  25  31
ENDBRANCH   6  22
BRANCH   1  33
HETATM   33  C   UNL     1     -45.270  60.415 -52.866  1.00  0.00     0.155 C 
BRANCH  33  34
HETATM   34  C   UNL     1     -44.622  61.790 -52.636  1.00  0.00     0.254 C 
BRANCH  34  35
HETATM   35  N   UNL     1     -44.977  62.420 -51.292  1.00  0.00    -0.070 N 
HETATM   36  H   UNL     1     -45.038  63.432 -51.471  1.00  0.00     0.279 HD
BRANCH  35  37
HETATM   37  C   UNL     1     -43.893  62.267 -50.232  1.00  0.00     0.230 C 
HETATM   38  C   UNL     1     -44.332  61.331 -49.120  1.00  0.00     0.034 C 
ENDBRANCH  35  37
BRANCH  35  39
HETATM   39  C   UNL     1     -46.333  62.023 -50.729  1.00  0.00     0.230 C 
HETATM   40  C   UNL     1     -47.320  63.174 -50.793  1.00  0.00     0.034 C 
ENDBRANCH  35  39
ENDBRANCH  34  35
ENDBRANCH  33  34
ENDBRANCH   1  33
TORSDOF 14
ENDMDL
MODEL 4
REMARK VINA RESULT:      -6.7      2.225      4.123
REMARK  14 active torsions:
REMARK  status: ('A' for Active; 'I' for Inactive)
REMARK    1  A    between atoms: C_2  and  N_3 
REMARK    2  A    between atoms: N_3  and  C_5 
REMARK    3  A    between atoms: N_3  and  C_37 
REMARK    4  A    between atoms: C_5  and  C_6 
REMARK    5  A    between atoms: C_6  and  N_7 
REMARK    6  A    between atoms: C_10  and  O_11 
REMARK    7  A    between atoms: C_12  and  C_13 
REMARK    8  A    between atoms: C_13  and  C_14 
REMARK    9  A    between atoms: C_18  and  O_19 
REMARK   10  A    between atoms: O_19  and  C_20 
REMARK   11  A    between atoms: C_26  and  C_27 
REMARK   12  A    between atoms: C_29  and  O_30 
REMARK   13  A    between atoms: O_30  and  C_31 
REMARK   14  A    between atoms: C_33  and  O_34 
ROOT
HETATM    1  N   UNL     1     -42.977  58.815 -53.955  1.00  0.00    -0.332 N 
HETATM    2  C   UNL     1     -41.725  59.281 -54.275  1.00  0.00     0.278 C 
HETATM    3  O   UNL     1     -41.400  59.877 -55.286  1.00  0.00    -0.265 OA
HETATM    4  C   UNL     1     -40.810  58.895 -53.179  1.00  0.00     0.146 C 
HETATM    5  C   UNL     1     -41.543  58.252 -52.260  1.00  0.00     0.059 C 
HETATM    6  C   UNL     1     -43.005  58.236 -52.620  1.00  0.00     0.161 C 
ENDROOT
BRANCH   5   7
HETATM    7  C   UNL     1     -41.170  57.557 -51.007  1.00  0.00     0.193 C 
HETATM    8  O   UNL     1     -40.856  58.225 -50.022  1.00  0.00    -0.287 OA
BRANCH   7   9
HETATM    9  C   UNL     1     -41.146  56.087 -50.892  1.00  0.00     0.015 A 
HETATM   10  C   UNL     1     -40.885  55.443 -49.680  1.00  0.00     0.025 A 
HETATM   11  C   UNL     1     -40.789  54.043 -49.631  1.00  0.00    -0.028 A 
HETATM   12  C   UNL     1     -40.522  53.353 -48.321  1.00  0.00     0.051 C 
HETATM   13  C   UNL     1     -40.883  53.304 -50.823  1.00  0.00     0.075 A 
HETATM   14  C   UNL     1     -41.153  53.951 -52.030  1.00  0.00     0.038 A 
HETATM   15  C   UNL     1     -41.272  55.342 -52.067  1.00  0.00     0.018 A 
BRANCH  13  16
HETATM   16  O   UNL     1     -40.735  51.946 -50.719  1.00  0.00    -0.346 OA
BRANCH  16  17
HETATM   17  C   UNL     1     -39.559  51.378 -51.319  1.00  0.00     0.121 C 
HETATM   18  C   UNL     1     -39.373  49.918 -50.901  1.00  0.00     0.040 C 
HETATM   19  C   UNL     1     -39.764  51.457 -52.831  1.00  0.00     0.040 C 
ENDBRANCH  16  17
ENDBRANCH  13  16
ENDBRANCH   7   9
ENDBRANCH   5   7
BRANCH   4  20
HETATM   20  O   UNL     1     -39.475  59.152 -53.210  1.00  0.00    -0.355 OA
HETATM   21  H   UNL     1     -39.187  59.048 -54.141  1.00  0.00     0.218 HD
ENDBRANCH   4  20
BRANCH   6  22
HETATM   22  C   UNL     1     -43.908  59.032 -51.691  1.00  0.00    -0.028 A 
HETATM   23  C   UNL     1     -43.499  60.312 -51.262  1.00  0.00     0.049 A 
HETATM   24  C   UNL     1     -44.267  61.038 -50.350  1.00  0.00     0.102 A 
HETATM   25  C   UNL     1     -45.458  60.478 -49.879  1.00  0.00     0.099 A 
HETATM   26  C   UNL     1     -45.896  59.232 -50.305  1.00  0.00     0.040 A 
HETATM   27  C   UNL     1     -45.124  58.508 -51.211  1.00  0.00     0.012 A 
BRANCH  24  28
HETATM   28  O   UNL     1     -43.962  62.269 -49.833  1.00  0.00    -0.349 OA
BRANCH  28  29
HETATM   29  C   UNL     1     -43.973  63.374 -50.737  1.00  0.00     0.171 C 
HETATM   30  C   UNL     1     -45.120  64.288 -50.344  1.00  0.00     0.034 C 
ENDBRANCH  28  29
ENDBRANCH  24  28
BRANCH  25  31
HETATM   31  O   UNL     1     -46.229  61.156 -48.976  1.00  0.00    -0.358 OA
HETATM   32  H   UNL     1     -45.985  62.097 -49.078  1.00  0.00     0.218 HD
ENDBRANCH  25  31
ENDBRANCH   6  22
BRANCH   1  33
HETATM   33  C   UNL     1     -44.168  59.128 -54.728  1.00  0.00     0.155 C 
BRANCH  33  34
HETATM   34  C   UNL     1     -44.900  57.868 -55.218  1.00  0.00     0.254 C 
BRANCH  34  35
HETATM   35  N   UNL     1     -44.312  57.274 -56.495  1.00  0.00    -0.070 N 
HETATM   36  H   UNL     1     -45.076  56.732 -56.922  1.00  0.00     0.279 HD
BRANCH  35  37
HETATM   37  C   UNL     1     -43.195  56.266 -56.251  1.00  0.00     0.230 C 
HETATM   38  C   UNL     1     -43.457  55.438 -55.006  1.00  0.00     0.034 C 
ENDBRANCH  35  37
BRANCH  35  39
HETATM   39  C   UNL     1     -43.894  58.289 -57.548  1.00  0.00     0.230 C 
HETATM   40  C   UNL     1     -44.911  58.376 -58.671  1.00  0.00     0.034 C 
ENDBRANCH  35  39
ENDBRANCH  34  35
ENDBRANCH  33  34
ENDBRANCH   1  33
TORSDOF 14
ENDMDL
MODEL 5
REMARK VINA RESULT:      -6.6      1.908      5.141
REMARK  14 active torsions:
REMARK  status: ('A' for Active; 'I' for Inactive)
REMARK    1  A    between atoms: C_2  and  N_3 
REMARK    2  A    between atoms: N_3  and  C_5 
REMARK    3  A    between atoms: N_3  and  C_37 
REMARK    4  A    between atoms: C_5  and  C_6 
REMARK    5  A    between atoms: C_6  and  N_7 
REMARK    6  A    between atoms: C_10  and  O_11 
REMARK    7  A    between atoms: C_12  and  C_13 
REMARK    8  A    between atoms: C_13  and  C_14 
REMARK    9  A    between atoms: C_18  and  O_19 
REMARK   10  A    between atoms: O_19  and  C_20 
REMARK   11  A    between atoms: C_26  and  C_27 
REMARK   12  A    between atoms: C_29  and  O_30 
REMARK   13  A    between atoms: O_30  and  C_31 
REMARK   14  A    between atoms: C_33  and  O_34 
ROOT
HETATM    1  N   UNL     1     -43.337  61.243 -53.481  1.00  0.00    -0.332 N 
HETATM    2  C   UNL     1     -43.501  61.036 -52.133  1.00  0.00     0.278 C 
HETATM    3  O   UNL     1     -44.251  61.637 -51.384  1.00  0.00    -0.265 OA
HETATM    4  C   UNL     1     -42.566  59.964 -51.728  1.00  0.00     0.146 C 
HETATM    5  C   UNL     1     -41.917  59.567 -52.831  1.00  0.00     0.059 C 
HETATM    6  C   UNL     1     -42.424  60.272 -54.062  1.00  0.00     0.161 C 
ENDROOT
BRANCH   5   7
HETATM    7  C   UNL     1     -40.809  58.608 -53.035  1.00  0.00     0.193 C 
HETATM    8  O   UNL     1     -39.656  59.031 -53.113  1.00  0.00    -0.287 OA
BRANCH   7   9
HETATM    9  C   UNL     1     -41.030  57.156 -53.162  1.00  0.00     0.015 A 
HETATM   10  C   UNL     1     -41.590  56.398 -52.132  1.00  0.00     0.025 A 
HETATM   11  C   UNL     1     -41.706  55.005 -52.261  1.00  0.00    -0.028 A 
HETATM   12  C   UNL     1     -42.325  54.196 -51.154  1.00  0.00     0.051 C 
HETATM   13  C   UNL     1     -41.185  54.374 -53.405  1.00  0.00     0.075 A 
HETATM   14  C   UNL     1     -40.633  55.135 -54.436  1.00  0.00     0.038 A 
HETATM   15  C   UNL     1     -40.544  56.523 -54.310  1.00  0.00     0.018 A 
BRANCH  13  16
HETATM   16  O   UNL     1     -41.285  53.009 -53.454  1.00  0.00    -0.346 OA
BRANCH  16  17
HETATM   17  C   UNL     1     -40.052  52.272 -53.479  1.00  0.00     0.121 C 
HETATM   18  C   UNL     1     -39.604  51.889 -52.068  1.00  0.00     0.040 C 
HETATM   19  C   UNL     1     -40.322  51.007 -54.293  1.00  0.00     0.040 C 
ENDBRANCH  16  17
ENDBRANCH  13  16
ENDBRANCH   7   9
ENDBRANCH   5   7
BRANCH   4  20
HETATM   20  O   UNL     1     -42.431  59.554 -50.439  1.00  0.00    -0.355 OA
HETATM   21  H   UNL     1     -41.585  59.924 -50.109  1.00  0.00     0.218 HD
ENDBRANCH   4  20
BRANCH   6  22
HETATM   22  C   UNL     1     -43.133  59.380 -55.070  1.00  0.00    -0.028 A 
HETATM   23  C   UNL     1     -42.754  59.437 -56.428  1.00  0.00     0.049 A 
HETATM   24  C   UNL     1     -43.434  58.689 -57.390  1.00  0.00     0.102 A 
HETATM   25  C   UNL     1     -44.491  57.870 -56.982  1.00  0.00     0.099 A 
HETATM   26  C   UNL     1     -44.867  57.776 -55.649  1.00  0.00     0.040 A 
HETATM   27  C   UNL     1     -44.189  58.528 -54.693  1.00  0.00     0.012 A 
BRANCH  24  28
HETATM   28  O   UNL     1     -43.186  58.685 -58.737  1.00  0.00    -0.349 OA
BRANCH  28  29
HETATM   29  C   UNL     1     -41.953  58.110 -59.169  1.00  0.00     0.171 C 
HETATM   30  C   UNL     1     -42.269  56.806 -59.880  1.00  0.00     0.034 C 
ENDBRANCH  28  29
ENDBRANCH  24  28
BRANCH  25  31
HETATM   31  O   UNL     1     -45.187  57.133 -57.899  1.00  0.00    -0.358 OA
HETATM   32  H   UNL     1     -45.336  57.732 -58.657  1.00  0.00     0.218 HD
ENDBRANCH  25  31
ENDBRANCH   6  22
BRANCH   1  33
HETATM   33  C   UNL     1     -44.188  62.125 -54.263  1.00  0.00     0.155 C 
BRANCH  33  34
HETATM   34  C   UNL     1     -43.410  62.882 -55.351  1.00  0.00     0.254 C 
BRANCH  34  35
HETATM   35  N   UNL     1     -44.208  63.108 -56.633  1.00  0.00    -0.070 N 
HETATM   36  H   UNL     1     -44.339  64.128 -56.697  1.00  0.00     0.279 HD
BRANCH  35  37
HETATM   37  C   UNL     1     -45.616  62.526 -56.595  1.00  0.00     0.230 C 
HETATM   38  C   UNL     1     -45.806  61.462 -57.661  1.00  0.00     0.034 C 
ENDBRANCH  35  37
BRANCH  35  39
HETATM   39  C   UNL     1     -43.499  62.706 -57.916  1.00  0.00     0.230 C 
HETATM   40  C   UNL     1     -41.998  62.898 -57.806  1.00  0.00     0.034 C 
ENDBRANCH  35  39
ENDBRANCH  34  35
ENDBRANCH  33  34
ENDBRANCH   1  33
TORSDOF 14
ENDMDL
MODEL 6
REMARK VINA RESULT:      -6.5      2.182      5.585
REMARK  14 active torsions:
REMARK  status: ('A' for Active; 'I' for Inactive)
REMARK    1  A    between atoms: C_2  and  N_3 
REMARK    2  A    between atoms: N_3  and  C_5 
REMARK    3  A    between atoms: N_3  and  C_37 
REMARK    4  A    between atoms: C_5  and  C_6 
REMARK    5  A    between atoms: C_6  and  N_7 
REMARK    6  A    between atoms: C_10  and  O_11 
REMARK    7  A    between atoms: C_12  and  C_13 
REMARK    8  A    between atoms: C_13  and  C_14 
REMARK    9  A    between atoms: C_18  and  O_19 
REMARK   10  A    between atoms: O_19  and  C_20 
REMARK   11  A    between atoms: C_26  and  C_27 
REMARK   12  A    between atoms: C_29  and  O_30 
REMARK   13  A    between atoms: O_30  and  C_31 
REMARK   14  A    between atoms: C_33  and  O_34 
ROOT
HETATM    1  N   UNL     1     -42.205  60.284 -55.337  1.00  0.00    -0.332 N 
HETATM    2  C   UNL     1     -42.921  61.409 -55.005  1.00  0.00     0.278 C 
HETATM    3  O   UNL     1     -43.372  62.244 -55.768  1.00  0.00    -0.265 OA
HETATM    4  C   UNL     1     -43.021  61.456 -53.530  1.00  0.00     0.146 C 
HETATM    5  C   UNL     1     -42.398  60.369 -53.056  1.00  0.00     0.059 C 
HETATM    6  C   UNL     1     -41.915  59.472 -54.165  1.00  0.00     0.161 C 
ENDROOT
BRANCH   5   7
HETATM    7  C   UNL     1     -42.091  59.928 -51.677  1.00  0.00     0.193 C 
HETATM    8  O   UNL     1     -41.882  60.775 -50.809  1.00  0.00    -0.287 OA
BRANCH   7   9
HETATM    9  C   UNL     1     -42.015  58.505 -51.298  1.00  0.00     0.015 A 
HETATM   10  C   UNL     1     -43.156  57.713 -51.154  1.00  0.00     0.025 A 
HETATM   11  C   UNL     1     -43.044  56.386 -50.710  1.00  0.00    -0.028 A 
HETATM   12  C   UNL     1     -44.276  55.533 -50.571  1.00  0.00     0.051 C 
HETATM   13  C   UNL     1     -41.782  55.887 -50.341  1.00  0.00     0.075 A 
HETATM   14  C   UNL     1     -40.643  56.679 -50.494  1.00  0.00     0.038 A 
HETATM   15  C   UNL     1     -40.760  57.990 -50.960  1.00  0.00     0.018 A 
BRANCH  13  16
HETATM   16  O   UNL     1     -41.742  54.601 -49.871  1.00  0.00    -0.346 OA
BRANCH  16  17
HETATM   17  C   UNL     1     -40.450  54.085 -49.515  1.00  0.00     0.121 C 
HETATM   18  C   UNL     1     -40.299  53.964 -47.997  1.00  0.00     0.040 C 
HETATM   19  C   UNL     1     -40.347  52.701 -50.153  1.00  0.00     0.040 C 
ENDBRANCH  16  17
ENDBRANCH  13  16
ENDBRANCH   7   9
ENDBRANCH   5   7
BRANCH   4  20
HETATM   20  O   UNL     1     -43.620  62.480 -52.866  1.00  0.00    -0.355 OA
HETATM   21  H   UNL     1     -43.298  62.448 -51.941  1.00  0.00     0.218 HD
ENDBRANCH   4  20
BRANCH   6  22
HETATM   22  C   UNL     1     -42.603  58.118 -54.246  1.00  0.00    -0.028 A 
HETATM   23  C   UNL     1     -41.818  56.953 -54.375  1.00  0.00     0.049 A 
HETATM   24  C   UNL     1     -42.418  55.702 -54.529  1.00  0.00     0.102 A 
HETATM   25  C   UNL     1     -43.813  55.623 -54.538  1.00  0.00     0.099 A 
HETATM   26  C   UNL     1     -44.608  56.750 -54.386  1.00  0.00     0.040 A 
HETATM   27  C   UNL     1     -44.006  57.997 -54.239  1.00  0.00     0.012 A 
BRANCH  24  28
HETATM   28  O   UNL     1     -41.769  54.508 -54.698  1.00  0.00    -0.349 OA
BRANCH  28  29
HETATM   29  C   UNL     1     -41.013  54.017 -53.590  1.00  0.00     0.171 C 
HETATM   30  C   UNL     1     -40.416  52.679 -53.989  1.00  0.00     0.034 C 
ENDBRANCH  28  29
ENDBRANCH  24  28
BRANCH  25  31
HETATM   31  O   UNL     1     -44.435  54.415 -54.698  1.00  0.00    -0.358 OA
HETATM   32  H   UNL     1     -45.317  54.624 -55.064  1.00  0.00     0.218 HD
ENDBRANCH  25  31
ENDBRANCH   6  22
BRANCH   1  33
HETATM   33  C   UNL     1     -42.024  59.827 -56.705  1.00  0.00     0.155 C 
BRANCH  33  34
HETATM   34  C   UNL     1     -43.354  59.708 -57.467  1.00  0.00     0.254 C 
BRANCH  34  35
HETATM   35  N   UNL     1     -43.381  58.568 -58.482  1.00  0.00    -0.070 N 
HETATM   36  H   UNL     1     -44.030  58.874 -59.220  1.00  0.00     0.279 HD
BRANCH  35  37
HETATM   37  C   UNL     1     -43.973  57.273 -57.941  1.00  0.00     0.230 C 
HETATM   38  C   UNL     1     -43.025  56.104 -58.137  1.00  0.00     0.034 C 
ENDBRANCH  35  37
BRANCH  35  39
HETATM   39  C   UNL     1     -42.060  58.297 -59.186  1.00  0.00     0.230 C 
HETATM   40  C   UNL     1     -41.979  59.025 -60.516  1.00  0.00     0.034 C 
ENDBRANCH  35  39
ENDBRANCH  34  35
ENDBRANCH  33  34
ENDBRANCH   1  33
TORSDOF 14
ENDMDL
MODEL 7
REMARK VINA RESULT:      -6.5      2.425      5.371
REMARK  14 active torsions:
REMARK  status: ('A' for Active; 'I' for Inactive)
REMARK    1  A    between atoms: C_2  and  N_3 
REMARK    2  A    between atoms: N_3  and  C_5 
REMARK    3  A    between atoms: N_3  and  C_37 
REMARK    4  A    between atoms: C_5  and  C_6 
REMARK    5  A    between atoms: C_6  and  N_7 
REMARK    6  A    between atoms: C_10  and  O_11 
REMARK    7  A    between atoms: C_12  and  C_13 
REMARK    8  A    between atoms: C_13  and  C_14 
REMARK    9  A    between atoms: C_18  and  O_19 
REMARK   10  A    between atoms: O_19  and  C_20 
REMARK   11  A    between atoms: C_26  and  C_27 
REMARK   12  A    between atoms: C_29  and  O_30 
REMARK   13  A    between atoms: O_30  and  C_31 
REMARK   14  A    between atoms: C_33  and  O_34 
ROOT
HETATM    1  N   UNL     1     -42.084  59.005 -55.358  1.00  0.00    -0.332 N 
HETATM    2  C   UNL     1     -42.197  59.413 -54.051  1.00  0.00     0.278 C 
HETATM    3  O   UNL     1     -41.882  60.495 -53.589  1.00  0.00    -0.265 OA
HETATM    4  C   UNL     1     -42.743  58.278 -53.274  1.00  0.00     0.146 C 
HETATM    5  C   UNL     1     -42.951  57.273 -54.135  1.00  0.00     0.059 C 
HETATM    6  C   UNL     1     -42.651  57.680 -55.554  1.00  0.00     0.161 C 
ENDROOT
BRANCH   5   7
HETATM    7  C   UNL     1     -43.387  55.874 -53.933  1.00  0.00     0.193 C 
HETATM    8  O   UNL     1     -44.586  55.603 -54.005  1.00  0.00    -0.287 OA
BRANCH   7   9
HETATM    9  C   UNL     1     -42.441  54.783 -53.636  1.00  0.00     0.015 A 
HETATM   10  C   UNL     1     -41.812  54.665 -52.395  1.00  0.00     0.025 A 
HETATM   11  C   UNL     1     -40.854  53.661 -52.181  1.00  0.00    -0.028 A 
HETATM   12  C   UNL     1     -40.191  53.528 -50.837  1.00  0.00     0.051 C 
HETATM   13  C   UNL     1     -40.481  52.825 -53.249  1.00  0.00     0.075 A 
HETATM   14  C   UNL     1     -41.118  52.941 -54.485  1.00  0.00     0.038 A 
HETATM   15  C   UNL     1     -42.088  53.927 -54.683  1.00  0.00     0.018 A 
BRANCH  13  16
HETATM   16  O   UNL     1     -39.508  51.896 -52.993  1.00  0.00    -0.346 OA
BRANCH  16  17
HETATM   17  C   UNL     1     -39.905  50.516 -53.042  1.00  0.00     0.121 C 
HETATM   18  C   UNL     1     -39.265  49.795 -54.229  1.00  0.00     0.040 C 
HETATM   19  C   UNL     1     -39.426  49.882 -51.737  1.00  0.00     0.040 C 
ENDBRANCH  16  17
ENDBRANCH  13  16
ENDBRANCH   7   9
ENDBRANCH   5   7
BRANCH   4  20
HETATM   20  O   UNL     1     -42.922  58.328 -51.928  1.00  0.00    -0.355 OA
HETATM   21  H   UNL     1     -42.287  58.988 -51.579  1.00  0.00     0.218 HD
ENDBRANCH   4  20
BRANCH   6  22
HETATM   22  C   UNL     1     -43.857  57.725 -56.481  1.00  0.00    -0.028 A 
HETATM   23  C   UNL     1     -43.732  57.236 -57.798  1.00  0.00     0.049 A 
HETATM   24  C   UNL     1     -44.794  57.331 -58.698  1.00  0.00     0.102 A 
HETATM   25  C   UNL     1     -45.991  57.909 -58.266  1.00  0.00     0.099 A 
HETATM   26  C   UNL     1     -46.149  58.375 -56.968  1.00  0.00     0.040 A 
HETATM   27  C   UNL     1     -45.084  58.283 -56.074  1.00  0.00     0.012 A 
BRANCH  24  28
HETATM   28  O   UNL     1     -44.786  56.927 -60.007  1.00  0.00    -0.349 OA
BRANCH  28  29
HETATM   29  C   UNL     1     -44.076  55.726 -60.311  1.00  0.00     0.171 C 
HETATM   30  C   UNL     1     -44.977  54.552 -59.969  1.00  0.00     0.034 C 
ENDBRANCH  28  29
ENDBRANCH  24  28
BRANCH  25  31
HETATM   31  O   UNL     1     -47.049  58.030 -59.124  1.00  0.00    -0.358 OA
HETATM   32  H   UNL     1     -46.674  57.907 -60.019  1.00  0.00     0.218 HD
ENDBRANCH  25  31
ENDBRANCH   6  22
BRANCH   1  33
HETATM   33  C   UNL     1     -41.717  59.899 -56.445  1.00  0.00     0.155 C 
BRANCH  33  34
HETATM   34  C   UNL     1     -42.782  60.976 -56.706  1.00  0.00     0.254 C 
BRANCH  34  35
HETATM   35  N   UNL     1     -43.345  60.952 -58.125  1.00  0.00    -0.070 N 
HETATM   36  H   UNL     1     -43.798  60.033 -58.224  1.00  0.00     0.279 HD
BRANCH  35  37
HETATM   37  C   UNL     1     -42.279  60.989 -59.214  1.00  0.00     0.230 C 
HETATM   38  C   UNL     1     -42.360  59.768 -60.113  1.00  0.00     0.034 C 
ENDBRANCH  35  37
BRANCH  35  39
HETATM   39  C   UNL     1     -44.432  61.977 -58.408  1.00  0.00     0.230 C 
HETATM   40  C   UNL     1     -45.540  61.390 -59.263  1.00  0.00     0.034 C 
ENDBRANCH  35  39
ENDBRANCH  34  35
ENDBRANCH  33  34
ENDBRANCH   1  33
TORSDOF 14
ENDMDL
MODEL 8
REMARK VINA RESULT:      -6.4     17.208     20.558
REMARK  14 active torsions:
REMARK  status: ('A' for Active; 'I' for Inactive)
REMARK    1  A    between atoms: C_2  and  N_3 
REMARK    2  A    between atoms: N_3  and  C_5 
REMARK    3  A    between atoms: N_3  and  C_37 
REMARK    4  A    between atoms: C_5  and  C_6 
REMARK    5  A    between atoms: C_6  and  N_7 
REMARK    6  A    between atoms: C_10  and  O_11 
REMARK    7  A    between atoms: C_12  and  C_13 
REMARK    8  A    between atoms: C_13  and  C_14 
REMARK    9  A    between atoms: C_18  and  O_19 
REMARK   10  A    between atoms: O_19  and  C_20 
REMARK   11  A    between atoms: C_26  and  C_27 
REMARK   12  A    between atoms: C_29  and  O_30 
REMARK   13  A    between atoms: O_30  and  C_31 
REMARK   14  A    between atoms: C_33  and  O_34 
ROOT
HETATM    1  N   UNL     1     -32.730  39.577 -51.138  1.00  0.00    -0.332 N 
HETATM    2  C   UNL     1     -32.258  38.336 -51.495  1.00  0.00     0.278 C 
HETATM    3  O   UNL     1     -31.956  37.423 -50.748  1.00  0.00    -0.265 OA
HETATM    4  C   UNL     1     -32.142  38.310 -52.969  1.00  0.00     0.146 C 
HETATM    5  C   UNL     1     -32.563  39.498 -53.421  1.00  0.00     0.059 C 
HETATM    6  C   UNL     1     -33.074  40.372 -52.306  1.00  0.00     0.161 C 
ENDROOT
BRANCH   5   7
HETATM    7  C   UNL     1     -32.587  40.088 -54.778  1.00  0.00     0.193 C 
HETATM    8  O   UNL     1     -31.529  40.439 -55.299  1.00  0.00    -0.287 OA
BRANCH   7   9
HETATM    9  C   UNL     1     -33.837  40.284 -55.536  1.00  0.00     0.015 A 
HETATM   10  C   UNL     1     -34.750  39.247 -55.741  1.00  0.00     0.025 A 
HETATM   11  C   UNL     1     -35.887  39.453 -56.539  1.00  0.00    -0.028 A 
HETATM   12  C   UNL     1     -36.874  38.337 -56.744  1.00  0.00     0.051 C 
HETATM   13  C   UNL     1     -36.057  40.689 -57.188  1.00  0.00     0.075 A 
HETATM   14  C   UNL     1     -35.147  41.725 -56.974  1.00  0.00     0.038 A 
HETATM   15  C   UNL     1     -34.032  41.519 -56.159  1.00  0.00     0.018 A 
BRANCH  13  16
HETATM   16  O   UNL     1     -37.160  40.816 -57.990  1.00  0.00    -0.346 OA
BRANCH  16  17
HETATM   17  C   UNL     1     -36.926  40.852 -59.408  1.00  0.00     0.121 C 
HETATM   18  C   UNL     1     -37.757  39.794 -60.135  1.00  0.00     0.040 C 
HETATM   19  C   UNL     1     -37.343  42.244 -59.879  1.00  0.00     0.040 C 
ENDBRANCH  16  17
ENDBRANCH  13  16
ENDBRANCH   7   9
ENDBRANCH   5   7
BRANCH   4  20
HETATM   20  O   UNL     1     -31.645  37.242 -53.648  1.00  0.00    -0.355 OA
HETATM   21  H   UNL     1     -31.734  37.444 -54.603  1.00  0.00     0.218 HD
ENDBRANCH   4  20
BRANCH   6  22
HETATM   22  C   UNL     1     -34.564  40.672 -52.352  1.00  0.00    -0.028 A 
HETATM   23  C   UNL     1     -35.484  39.635 -52.087  1.00  0.00     0.049 A 
HETATM   24  C   UNL     1     -36.858  39.856 -52.194  1.00  0.00     0.102 A 
HETATM   25  C   UNL     1     -37.307  41.129 -52.555  1.00  0.00     0.099 A 
HETATM   26  C   UNL     1     -36.425  42.173 -52.795  1.00  0.00     0.040 A 
HETATM   27  C   UNL     1     -35.054  41.947 -52.693  1.00  0.00     0.012 A 
BRANCH  24  28
HETATM   28  O   UNL     1     -37.846  38.928 -51.999  1.00  0.00    -0.349 OA
BRANCH  28  29
HETATM   29  C   UNL     1     -38.084  38.506 -50.655  1.00  0.00     0.171 C 
HETATM   30  C   UNL     1     -39.566  38.202 -50.518  1.00  0.00     0.034 C 
ENDBRANCH  28  29
ENDBRANCH  24  28
BRANCH  25  31
HETATM   31  O   UNL     1     -38.646  41.379 -52.681  1.00  0.00    -0.358 OA
HETATM   32  H   UNL     1     -38.748  41.822 -53.547  1.00  0.00     0.218 HD
ENDBRANCH  25  31
ENDBRANCH   6  22
BRANCH   1  33
HETATM   33  C   UNL     1     -33.107  39.927 -49.778  1.00  0.00     0.155 C 
BRANCH  33  34
HETATM   34  C   UNL     1     -31.914  39.898 -48.810  1.00  0.00     0.254 C 
BRANCH  34  35
HETATM   35  N   UNL     1     -31.917  38.698 -47.867  1.00  0.00    -0.070 N 
HETATM   36  H   UNL     1     -31.398  37.959 -48.363  1.00  0.00     0.279 HD
BRANCH  35  37
HETATM   37  C   UNL     1     -33.301  38.113 -47.615  1.00  0.00     0.230 C 
HETATM   38  C   UNL     1     -33.478  37.711 -46.162  1.00  0.00     0.034 C 
ENDBRANCH  35  37
BRANCH  35  39
HETATM   39  C   UNL     1     -31.178  38.905 -46.554  1.00  0.00     0.230 C 
HETATM   40  C   UNL     1     -30.312  40.150 -46.593  1.00  0.00     0.034 C 
ENDBRANCH  35  39
ENDBRANCH  34  35
ENDBRANCH  33  34
ENDBRANCH   1  33
TORSDOF 14
ENDMDL
MODEL 9
REMARK VINA RESULT:      -6.4      1.965      4.939
REMARK  14 active torsions:
REMARK  status: ('A' for Active; 'I' for Inactive)
REMARK    1  A    between atoms: C_2  and  N_3 
REMARK    2  A    between atoms: N_3  and  C_5 
REMARK    3  A    between atoms: N_3  and  C_37 
REMARK    4  A    between atoms: C_5  and  C_6 
REMARK    5  A    between atoms: C_6  and  N_7 
REMARK    6  A    between atoms: C_10  and  O_11 
REMARK    7  A    between atoms: C_12  and  C_13 
REMARK    8  A    between atoms: C_13  and  C_14 
REMARK    9  A    between atoms: C_18  and  O_19 
REMARK   10  A    between atoms: O_19  and  C_20 
REMARK   11  A    between atoms: C_26  and  C_27 
REMARK   12  A    between atoms: C_29  and  O_30 
REMARK   13  A    between atoms: O_30  and  C_31 
REMARK   14  A    between atoms: C_33  and  O_34 
ROOT
HETATM    1  N   UNL     1     -42.326  58.718 -53.837  1.00  0.00    -0.332 N 
HETATM    2  C   UNL     1     -42.969  58.745 -52.623  1.00  0.00     0.278 C 
HETATM    3  O   UNL     1     -43.059  59.691 -51.861  1.00  0.00    -0.265 OA
HETATM    4  C   UNL     1     -43.513  57.392 -52.375  1.00  0.00     0.146 C 
HETATM    5  C   UNL     1     -43.201  56.639 -53.438  1.00  0.00     0.059 C 
HETATM    6  C   UNL     1     -42.511  57.441 -54.509  1.00  0.00     0.161 C 
ENDROOT
BRANCH   5   7
HETATM    7  C   UNL     1     -43.391  55.198 -53.718  1.00  0.00     0.193 C 
HETATM    8  O   UNL     1     -44.410  54.830 -54.300  1.00  0.00    -0.287 OA
BRANCH   7   9
HETATM    9  C   UNL     1     -42.407  54.176 -53.316  1.00  0.00     0.015 A 
HETATM   10  C   UNL     1     -41.940  54.072 -52.004  1.00  0.00     0.025 A 
HETATM   11  C   UNL     1     -40.941  53.139 -51.680  1.00  0.00    -0.028 A 
HETATM   12  C   UNL     1     -40.454  53.021 -50.262  1.00  0.00     0.051 C 
HETATM   13  C   UNL     1     -40.365  52.365 -52.703  1.00  0.00     0.075 A 
HETATM   14  C   UNL     1     -40.840  52.466 -54.012  1.00  0.00     0.038 A 
HETATM   15  C   UNL     1     -41.851  53.379 -54.320  1.00  0.00     0.018 A 
BRANCH  13  16
HETATM   16  O   UNL     1     -39.364  51.507 -52.335  1.00  0.00    -0.346 OA
BRANCH  16  17
HETATM   17  C   UNL     1     -39.709  50.116 -52.238  1.00  0.00     0.121 C 
HETATM   18  C   UNL     1     -39.095  49.310 -53.384  1.00  0.00     0.040 C 
HETATM   19  C   UNL     1     -39.148  49.623 -50.906  1.00  0.00     0.040 C 
ENDBRANCH  16  17
ENDBRANCH  13  16
ENDBRANCH   7   9
ENDBRANCH   5   7
BRANCH   4  20
HETATM   20  O   UNL     1     -44.159  57.059 -51.226  1.00  0.00    -0.355 OA
HETATM   21  H   UNL     1     -43.483  56.705 -50.611  1.00  0.00     0.218 HD
ENDBRANCH   4  20
BRANCH   6  22
HETATM   22  C   UNL     1     -43.299  57.605 -55.801  1.00  0.00    -0.028 A 
HETATM   23  C   UNL     1     -42.682  57.285 -57.029  1.00  0.00     0.049 A 
HETATM   24  C   UNL     1     -43.349  57.495 -58.237  1.00  0.00     0.102 A 
HETATM   25  C   UNL     1     -44.646  58.016 -58.208  1.00  0.00     0.099 A 
HETATM   26  C   UNL     1     -45.284  58.314 -57.012  1.00  0.00     0.040 A 
HETATM   27  C   UNL     1     -44.614  58.108 -55.809  1.00  0.00     0.012 A 
BRANCH  24  28
HETATM   28  O   UNL     1     -42.849  57.260 -59.490  1.00  0.00    -0.349 OA
BRANCH  28  29
HETATM   29  C   UNL     1     -41.647  57.943 -59.849  1.00  0.00     0.171 C 
HETATM   30  C   UNL     1     -42.026  59.122 -60.729  1.00  0.00     0.034 C 
ENDBRANCH  28  29
ENDBRANCH  24  28
BRANCH  25  31
HETATM   31  O   UNL     1     -45.324  58.246 -59.373  1.00  0.00    -0.358 OA
HETATM   32  H   UNL     1     -45.235  57.422 -59.892  1.00  0.00     0.218 HD
ENDBRANCH  25  31
ENDBRANCH   6  22
BRANCH   1  33
HETATM   33  C   UNL     1     -41.789  59.904 -54.484  1.00  0.00     0.155 C 
BRANCH  33  34
HETATM   34  C   UNL     1     -42.875  60.943 -54.804  1.00  0.00     0.254 C 
BRANCH  34  35
HETATM   35  N   UNL     1     -42.615  61.727 -56.089  1.00  0.00    -0.070 N 
HETATM   36  H   UNL     1     -41.856  62.383 -55.860  1.00  0.00     0.279 HD
BRANCH  35  37
HETATM   37  C   UNL     1     -43.783  62.604 -56.524  1.00  0.00     0.230 C 
HETATM   38  C   UNL     1     -45.116  61.947 -56.215  1.00  0.00     0.034 C 
ENDBRANCH  35  37
BRANCH  35  39
HETATM   39  C   UNL     1     -42.103  60.901 -57.258  1.00  0.00     0.230 C 
HETATM   40  C   UNL     1     -41.205  61.720 -58.167  1.00  0.00     0.034 C 
ENDBRANCH  35  39
ENDBRANCH  34  35
ENDBRANCH  33  34
ENDBRANCH   1  33
TORSDOF 14
ENDMDL
MODEL 10
REMARK VINA RESULT:      -6.4      2.738      8.653
REMARK  14 active torsions:
REMARK  status: ('A' for Active; 'I' for Inactive)
REMARK    1  A    between atoms: C_2  and  N_3 
REMARK    2  A    between atoms: N_3  and  C_5 
REMARK    3  A    between atoms: N_3  and  C_37 
REMARK    4  A    between atoms: C_5  and  C_6 
REMARK    5  A    between atoms: C_6  and  N_7 
REMARK    6  A    between atoms: C_10  and  O_11 
REMARK    7  A    between atoms: C_12  and  C_13 
REMARK    8  A    between atoms: C_13  and  C_14 
REMARK    9  A    between atoms: C_18  and  O_19 
REMARK   10  A    between atoms: O_19  and  C_20 
REMARK   11  A    between atoms: C_26  and  C_27 
REMARK   12  A    between atoms: C_29  and  O_30 
REMARK   13  A    between atoms: O_30  and  C_31 
REMARK   14  A    between atoms: C_33  and  O_34 
ROOT
HETATM    1  N   UNL     1     -41.329  54.411 -51.771  1.00  0.00    -0.332 N 
HETATM    2  C   UNL     1     -40.712  55.042 -50.718  1.00  0.00     0.278 C 
HETATM    3  O   UNL     1     -39.625  54.776 -50.237  1.00  0.00    -0.265 OA
HETATM    4  C   UNL     1     -41.627  56.098 -50.231  1.00  0.00     0.146 C 
HETATM    5  C   UNL     1     -42.715  56.070 -51.012  1.00  0.00     0.059 C 
HETATM    6  C   UNL     1     -42.579  55.066 -52.126  1.00  0.00     0.161 C 
ENDROOT
BRANCH   5   7
HETATM    7  C   UNL     1     -43.993  56.813 -50.953  1.00  0.00     0.193 C 
HETATM    8  O   UNL     1     -44.983  56.266 -50.469  1.00  0.00    -0.287 OA
BRANCH   7   9
HETATM    9  C   UNL     1     -44.136  58.188 -51.466  1.00  0.00     0.015 A 
HETATM   10  C   UNL     1     -43.472  59.269 -50.883  1.00  0.00     0.025 A 
HETATM   11  C   UNL     1     -43.700  60.574 -51.349  1.00  0.00    -0.028 A 
HETATM   12  C   UNL     1     -42.970  61.733 -50.727  1.00  0.00     0.051 C 
HETATM   13  C   UNL     1     -44.658  60.788 -52.356  1.00  0.00     0.075 A 
HETATM   14  C   UNL     1     -45.314  59.704 -52.941  1.00  0.00     0.038 A 
HETATM   15  C   UNL     1     -45.063  58.407 -52.489  1.00  0.00     0.018 A 
BRANCH  13  16
HETATM   16  O   UNL     1     -44.872  62.086 -52.736  1.00  0.00    -0.346 OA
BRANCH  16  17
HETATM   17  C   UNL     1     -46.175  62.631 -52.470  1.00  0.00     0.121 C 
HETATM   18  C   UNL     1     -46.096  63.808 -51.497  1.00  0.00     0.040 C 
HETATM   19  C   UNL     1     -46.725  63.110 -53.812  1.00  0.00     0.040 C 
ENDBRANCH  16  17
ENDBRANCH  13  16
ENDBRANCH   7   9
ENDBRANCH   5   7
BRANCH   4  20
HETATM   20  O   UNL     1     -41.344  56.875 -49.153  1.00  0.00    -0.355 OA
HETATM   21  H   UNL     1     -40.374  57.013 -49.146  1.00  0.00     0.218 HD
ENDBRANCH   4  20
BRANCH   6  22
HETATM   22  C   UNL     1     -42.513  55.659 -53.526  1.00  0.00    -0.028 A 
HETATM   23  C   UNL     1     -41.906  56.918 -53.712  1.00  0.00     0.049 A 
HETATM   24  C   UNL     1     -41.895  57.525 -54.969  1.00  0.00     0.102 A 
HETATM   25  C   UNL     1     -42.486  56.856 -56.044  1.00  0.00     0.099 A 
HETATM   26  C   UNL     1     -43.067  55.605 -55.893  1.00  0.00     0.040 A 
HETATM   27  C   UNL     1     -43.081  55.004 -54.636  1.00  0.00     0.012 A 
BRANCH  24  28
HETATM   28  O   UNL     1     -41.371  58.755 -55.271  1.00  0.00    -0.349 OA
BRANCH  28  29
HETATM   29  C   UNL     1     -41.916  59.880 -54.580  1.00  0.00     0.171 C 
HETATM   30  C   UNL     1     -42.802  60.639 -55.551  1.00  0.00     0.034 C 
ENDBRANCH  28  29
ENDBRANCH  24  28
BRANCH  25  31
HETATM   31  O   UNL     1     -42.505  57.426 -57.287  1.00  0.00    -0.358 OA
HETATM   32  H   UNL     1     -43.334  57.117 -57.702  1.00  0.00     0.218 HD
ENDBRANCH  25  31
ENDBRANCH   6  22
BRANCH   1  33
HETATM   33  C   UNL     1     -40.675  53.410 -52.597  1.00  0.00     0.155 C 
BRANCH  33  34
HETATM   34  C   UNL     1     -40.053  52.275 -51.767  1.00  0.00     0.254 C 
BRANCH  34  35
HETATM   35  N   UNL     1     -39.413  51.176 -52.611  1.00  0.00    -0.070 N 
HETATM   36  H   UNL     1     -38.403  51.376 -52.599  1.00  0.00     0.279 HD
BRANCH  35  37
HETATM   37  C   UNL     1     -39.811  51.216 -54.081  1.00  0.00     0.230 C 
HETATM   38  C   UNL     1     -39.862  49.821 -54.680  1.00  0.00     0.034 C 
ENDBRANCH  35  37
BRANCH  35  39
HETATM   39  C   UNL     1     -39.558  49.767 -52.056  1.00  0.00     0.230 C 
HETATM   40  C   UNL     1     -39.794  49.781 -50.557  1.00  0.00     0.034 C 
ENDBRANCH  35  39
ENDBRANCH  34  35
ENDBRANCH  33  34
ENDBRANCH   1  33
TORSDOF 14
ENDMDL
