MODEL 1
REMARK VINA RESULT:      -8.0      0.000      0.000
REMARK  6 active torsions:
REMARK  status: ('A' for Active; 'I' for Inactive)
REMARK    1  A    between atoms: O_2  and  C_3 
REMARK    2  A    between atoms: C_3  and  C_4 
REMARK    3  A    between atoms: C_4  and  N_5 
REMARK       I    between atoms: N_5  and  C_6 
REMARK    4  A    between atoms: C_6  and  C_7 
REMARK    5  A    between atoms: C_12  and  C_13 
REMARK    6  A    between atoms: C_22  and  C_23 
ROOT
HETATM    1  C   UNL     1     -44.146  58.089 -51.623  1.00  0.00     0.148 A 
HETATM    2  N   UNL     1     -44.493  57.545 -52.813  1.00  0.00    -0.165 NA
HETATM    3  N   UNL     1     -43.355  56.974 -53.243  1.00  0.00    -0.240 N 
HETATM    4  C   UNL     1     -42.282  57.187 -52.424  1.00  0.00     0.123 A 
HETATM    5  N   UNL     1     -41.046  56.748 -52.738  1.00  0.00    -0.366 N 
HETATM    6  C   UNL     1     -40.775  55.949 -53.926  1.00  0.00     0.118 C 
HETATM    7  C   UNL     1     -41.835  56.211 -55.014  1.00  0.00     0.066 C 
HETATM    8  C   UNL     1     -43.287  56.263 -54.503  1.00  0.00     0.221 C 
HETATM    9  C   UNL     1     -42.765  57.885 -51.349  1.00  0.00     0.088 A 
HETATM   10  H   UNL     1     -40.271  56.848 -52.083  1.00  0.00     0.161 HD
ENDROOT
BRANCH   1  11
HETATM   11  C   UNL     1     -45.112  58.790 -50.763  1.00  0.00     0.272 C 
HETATM   12  N   UNL     1     -44.639  59.980 -50.261  1.00  0.00    -0.354 N 
HETATM   13  H   UNL     1     -43.757  60.303 -50.653  1.00  0.00     0.162 HD
HETATM   14  O   UNL     1     -46.234  58.350 -50.530  1.00  0.00    -0.266 OA
BRANCH  12  15
HETATM   15  C   UNL     1     -45.493  60.938 -49.590  1.00  0.00     0.149 C 
BRANCH  15  16
HETATM   16  C   UNL     1     -45.270  60.927 -48.080  1.00  0.00     0.186 C 
BRANCH  16  17
HETATM   17  O   UNL     1     -46.257  60.093 -47.464  1.00  0.00    -0.394 OA
HETATM   18  C   UNL     1     -46.126  60.089 -46.048  1.00  0.00     0.201 C 
ENDBRANCH  16  17
ENDBRANCH  15  16
ENDBRANCH  12  15
ENDBRANCH   1  11
BRANCH   8  19
HETATM   19  C   UNL     1     -43.937  54.904 -54.376  1.00  0.00     0.409 C 
HETATM   20  F   UNL     1     -43.704  54.338 -53.170  1.00  0.00    -0.169 F 
HETATM   21  F   UNL     1     -45.286  55.025 -54.483  1.00  0.00    -0.169 F 
HETATM   22  F   UNL     1     -43.547  54.024 -55.317  1.00  0.00    -0.169 F 
ENDBRANCH   8  19
BRANCH   6  23
HETATM   23  C   UNL     1     -40.527  54.484 -53.602  1.00  0.00    -0.034 A 
HETATM   24  C   UNL     1     -40.507  53.985 -52.287  1.00  0.00     0.034 A 
HETATM   25  C   UNL     1     -40.255  52.632 -52.025  1.00  0.00     0.056 A 
HETATM   26 CL   UNL     1     -40.262  52.116 -50.377  1.00  0.00    -0.083 Cl
HETATM   27  C   UNL     1     -40.006  51.754 -53.083  1.00  0.00     0.055 A 
HETATM   28 CL   UNL     1     -39.675  50.077 -52.842  1.00  0.00    -0.083 Cl
HETATM   29  C   UNL     1     -40.013  52.235 -54.394  1.00  0.00     0.026 A 
HETATM   30  C   UNL     1     -40.272  53.585 -54.651  1.00  0.00     0.011 A 
ENDBRANCH   6  23
TORSDOF 6
ENDMDL
MODEL 2
REMARK VINA RESULT:      -7.7      1.884      2.515
REMARK  6 active torsions:
REMARK  status: ('A' for Active; 'I' for Inactive)
REMARK    1  A    between atoms: O_2  and  C_3 
REMARK    2  A    between atoms: C_3  and  C_4 
REMARK    3  A    between atoms: C_4  and  N_5 
REMARK       I    between atoms: N_5  and  C_6 
REMARK    4  A    between atoms: C_6  and  C_7 
REMARK    5  A    between atoms: C_12  and  C_13 
REMARK    6  A    between atoms: C_22  and  C_23 
ROOT
HETATM    1  C   UNL     1     -42.162  58.545 -51.396  1.00  0.00     0.148 A 
HETATM    2  N   UNL     1     -43.189  57.664 -51.401  1.00  0.00    -0.165 NA
HETATM    3  N   UNL     1     -42.748  56.670 -52.191  1.00  0.00    -0.240 N 
HETATM    4  C   UNL     1     -41.522  56.904 -52.746  1.00  0.00     0.123 A 
HETATM    5  N   UNL     1     -40.959  56.044 -53.621  1.00  0.00    -0.366 N 
HETATM    6  C   UNL     1     -41.574  54.772 -53.977  1.00  0.00     0.118 C 
HETATM    7  C   UNL     1     -43.101  54.827 -53.774  1.00  0.00     0.066 C 
HETATM    8  C   UNL     1     -43.556  55.499 -52.465  1.00  0.00     0.221 C 
HETATM    9  C   UNL     1     -41.100  58.100 -52.232  1.00  0.00     0.088 A 
HETATM   10  H   UNL     1     -40.013  56.194 -53.969  1.00  0.00     0.161 HD
ENDROOT
BRANCH   1  11
HETATM   11  C   UNL     1     -42.190  59.788 -50.609  1.00  0.00     0.272 C 
HETATM   12  N   UNL     1     -43.461  60.223 -50.313  1.00  0.00    -0.354 N 
HETATM   13  H   UNL     1     -44.212  59.573 -50.537  1.00  0.00     0.162 HD
HETATM   14  O   UNL     1     -41.171  60.368 -50.249  1.00  0.00    -0.266 OA
BRANCH  12  15
HETATM   15  C   UNL     1     -43.721  61.283 -49.362  1.00  0.00     0.149 C 
BRANCH  15  16
HETATM   16  C   UNL     1     -45.218  61.543 -49.207  1.00  0.00     0.186 C 
BRANCH  16  17
HETATM   17  O   UNL     1     -45.797  60.503 -48.412  1.00  0.00    -0.394 OA
HETATM   18  C   UNL     1     -45.612  60.745 -47.023  1.00  0.00     0.201 C 
ENDBRANCH  16  17
ENDBRANCH  15  16
ENDBRANCH  12  15
ENDBRANCH   1  11
BRANCH   8  19
HETATM   19  C   UNL     1     -43.558  54.570 -51.272  1.00  0.00     0.409 C 
HETATM   20  F   UNL     1     -42.470  54.745 -50.487  1.00  0.00    -0.169 F 
HETATM   21  F   UNL     1     -44.636  54.829 -50.487  1.00  0.00    -0.169 F 
HETATM   22  F   UNL     1     -43.615  53.266 -51.598  1.00  0.00    -0.169 F 
ENDBRANCH   8  19
BRANCH   6  23
HETATM   23  C   UNL     1     -40.877  53.585 -53.331  1.00  0.00    -0.034 A 
HETATM   24  C   UNL     1     -40.710  52.348 -53.983  1.00  0.00     0.034 A 
HETATM   25  C   UNL     1     -40.081  51.270 -53.348  1.00  0.00     0.056 A 
HETATM   26 CL   UNL     1     -39.916  49.798 -54.238  1.00  0.00    -0.083 Cl
HETATM   27  C   UNL     1     -39.615  51.409 -52.039  1.00  0.00     0.055 A 
HETATM   28 CL   UNL     1     -38.840  50.124 -51.185  1.00  0.00    -0.083 Cl
HETATM   29  C   UNL     1     -39.780  52.626 -51.374  1.00  0.00     0.026 A 
HETATM   30  C   UNL     1     -40.404  53.702 -52.014  1.00  0.00     0.011 A 
ENDBRANCH   6  23
TORSDOF 6
ENDMDL
MODEL 3
REMARK VINA RESULT:      -7.6      4.723      6.568
REMARK  6 active torsions:
REMARK  status: ('A' for Active; 'I' for Inactive)
REMARK    1  A    between atoms: O_2  and  C_3 
REMARK    2  A    between atoms: C_3  and  C_4 
REMARK    3  A    between atoms: C_4  and  N_5 
REMARK       I    between atoms: N_5  and  C_6 
REMARK    4  A    between atoms: C_6  and  C_7 
REMARK    5  A    between atoms: C_12  and  C_13 
REMARK    6  A    between atoms: C_22  and  C_23 
ROOT
HETATM    1  C   UNL     1     -42.628  57.023 -58.136  1.00  0.00     0.148 A 
HETATM    2  N   UNL     1     -42.546  57.748 -56.997  1.00  0.00    -0.165 NA
HETATM    3  N   UNL     1     -42.857  56.862 -56.035  1.00  0.00    -0.240 N 
HETATM    4  C   UNL     1     -43.202  55.627 -56.508  1.00  0.00     0.123 A 
HETATM    5  N   UNL     1     -43.611  54.637 -55.687  1.00  0.00    -0.366 N 
HETATM    6  C   UNL     1     -43.640  54.782 -54.237  1.00  0.00     0.118 C 
HETATM    7  C   UNL     1     -43.776  56.264 -53.838  1.00  0.00     0.066 C 
HETATM    8  C   UNL     1     -42.882  57.233 -54.636  1.00  0.00     0.221 C 
HETATM    9  C   UNL     1     -43.040  55.688 -57.866  1.00  0.00     0.088 A 
HETATM   10  H   UNL     1     -43.793  53.700 -56.045  1.00  0.00     0.161 HD
ENDROOT
BRANCH   1  11
HETATM   11  C   UNL     1     -42.321  57.590 -59.458  1.00  0.00     0.272 C 
HETATM   12  N   UNL     1     -42.481  58.955 -59.522  1.00  0.00    -0.354 N 
HETATM   13  H   UNL     1     -42.643  59.421 -58.632  1.00  0.00     0.162 HD
HETATM   14  O   UNL     1     -41.949  56.903 -60.405  1.00  0.00    -0.266 OA
BRANCH  12  15
HETATM   15  C   UNL     1     -42.015  59.743 -60.643  1.00  0.00     0.149 C 
BRANCH  15  16
HETATM   16  C   UNL     1     -41.843  61.212 -60.264  1.00  0.00     0.186 C 
BRANCH  16  17
HETATM   17  O   UNL     1     -41.686  61.317 -58.845  1.00  0.00    -0.394 OA
HETATM   18  C   UNL     1     -40.520  62.057 -58.504  1.00  0.00     0.201 C 
ENDBRANCH  16  17
ENDBRANCH  15  16
ENDBRANCH  12  15
ENDBRANCH   1  11
BRANCH   8  19
HETATM   19  C   UNL     1     -41.474  57.347 -54.096  1.00  0.00     0.409 C 
HETATM   20  F   UNL     1     -40.939  58.569 -54.319  1.00  0.00    -0.169 F 
HETATM   21  F   UNL     1     -41.482  57.179 -52.748  1.00  0.00    -0.169 F 
HETATM   22  F   UNL     1     -40.623  56.434 -54.599  1.00  0.00    -0.169 F 
ENDBRANCH   8  19
BRANCH   6  23
HETATM   23  C   UNL     1     -42.512  54.026 -53.552  1.00  0.00    -0.034 A 
HETATM   24  C   UNL     1     -42.259  54.118 -52.171  1.00  0.00     0.034 A 
HETATM   25  C   UNL     1     -41.196  53.424 -51.578  1.00  0.00     0.056 A 
HETATM   26 CL   UNL     1     -40.976  53.595 -49.873  1.00  0.00    -0.083 Cl
HETATM   27  C   UNL     1     -40.359  52.630 -52.365  1.00  0.00     0.055 A 
HETATM   28 CL   UNL     1     -39.023  51.753 -51.711  1.00  0.00    -0.083 Cl
HETATM   29  C   UNL     1     -40.591  52.534 -53.739  1.00  0.00     0.026 A 
HETATM   30  C   UNL     1     -41.656  53.225 -54.325  1.00  0.00     0.011 A 
ENDBRANCH   6  23
TORSDOF 6
ENDMDL
MODEL 4
REMARK VINA RESULT:      -7.2     16.767     19.093
REMARK  6 active torsions:
REMARK  status: ('A' for Active; 'I' for Inactive)
REMARK    1  A    between atoms: O_2  and  C_3 
REMARK    2  A    between atoms: C_3  and  C_4 
REMARK    3  A    between atoms: C_4  and  N_5 
REMARK       I    between atoms: N_5  and  C_6 
REMARK    4  A    between atoms: C_6  and  C_7 
REMARK    5  A    between atoms: C_12  and  C_13 
REMARK    6  A    between atoms: C_22  and  C_23 
ROOT
HETATM    1  C   UNL     1     -37.404  40.163 -58.878  1.00  0.00     0.148 A 
HETATM    2  N   UNL     1     -36.090  40.244 -58.566  1.00  0.00    -0.165 NA
HETATM    3  N   UNL     1     -36.080  40.957 -57.427  1.00  0.00    -0.240 N 
HETATM    4  C   UNL     1     -37.313  41.396 -57.035  1.00  0.00     0.123 A 
HETATM    5  N   UNL     1     -37.479  42.186 -55.953  1.00  0.00    -0.366 N 
HETATM    6  C   UNL     1     -36.374  42.564 -55.081  1.00  0.00     0.118 C 
HETATM    7  C   UNL     1     -35.034  42.514 -55.841  1.00  0.00     0.066 C 
HETATM    8  C   UNL     1     -34.846  41.276 -56.738  1.00  0.00     0.221 C 
HETATM    9  C   UNL     1     -38.200  40.877 -57.939  1.00  0.00     0.088 A 
HETATM   10  H   UNL     1     -38.410  42.444 -55.629  1.00  0.00     0.161 HD
ENDROOT
BRANCH   1  11
HETATM   11  C   UNL     1     -37.894  39.419 -60.049  1.00  0.00     0.272 C 
HETATM   12  N   UNL     1     -37.201  39.694 -61.205  1.00  0.00    -0.354 N 
HETATM   13  H   UNL     1     -36.356  40.251 -61.090  1.00  0.00     0.162 HD
HETATM   14  O   UNL     1     -38.827  38.624 -59.987  1.00  0.00    -0.266 OA
BRANCH  12  15
HETATM   15  C   UNL     1     -37.357  38.911 -62.413  1.00  0.00     0.149 C 
BRANCH  15  16
HETATM   16  C   UNL     1     -36.166  37.984 -62.639  1.00  0.00     0.186 C 
BRANCH  16  17
HETATM   17  O   UNL     1     -35.072  38.415 -61.823  1.00  0.00    -0.394 OA
HETATM   18  C   UNL     1     -33.861  37.766 -62.191  1.00  0.00     0.201 C 
ENDBRANCH  16  17
ENDBRANCH  15  16
ENDBRANCH  12  15
ENDBRANCH   1  11
BRANCH   8  19
HETATM   19  C   UNL     1     -34.327  40.062 -55.999  1.00  0.00     0.409 C 
HETATM   20  F   UNL     1     -33.619  39.238 -56.805  1.00  0.00    -0.169 F 
HETATM   21  F   UNL     1     -33.477  40.450 -55.014  1.00  0.00    -0.169 F 
HETATM   22  F   UNL     1     -35.292  39.326 -55.417  1.00  0.00    -0.169 F 
ENDBRANCH   8  19
BRANCH   6  23
HETATM   23  C   UNL     1     -36.395  41.819 -53.755  1.00  0.00    -0.034 A 
HETATM   24  C   UNL     1     -35.311  41.823 -52.858  1.00  0.00     0.034 A 
HETATM   25  C   UNL     1     -35.359  41.107 -51.655  1.00  0.00     0.056 A 
HETATM   26 CL   UNL     1     -33.979  41.184 -50.618  1.00  0.00    -0.083 Cl
HETATM   27  C   UNL     1     -36.496  40.362 -51.334  1.00  0.00     0.055 A 
HETATM   28 CL   UNL     1     -36.627  39.445 -49.877  1.00  0.00    -0.083 Cl
HETATM   29  C   UNL     1     -37.578  40.340 -52.216  1.00  0.00     0.026 A 
HETATM   30  C   UNL     1     -37.528  41.061 -53.414  1.00  0.00     0.011 A 
ENDBRANCH   6  23
TORSDOF 6
ENDMDL
MODEL 5
REMARK VINA RESULT:      -7.2      4.781      8.266
REMARK  6 active torsions:
REMARK  status: ('A' for Active; 'I' for Inactive)
REMARK    1  A    between atoms: O_2  and  C_3 
REMARK    2  A    between atoms: C_3  and  C_4 
REMARK    3  A    between atoms: C_4  and  N_5 
REMARK       I    between atoms: N_5  and  C_6 
REMARK    4  A    between atoms: C_6  and  C_7 
REMARK    5  A    between atoms: C_12  and  C_13 
REMARK    6  A    between atoms: C_22  and  C_23 
ROOT
HETATM    1  C   UNL     1     -41.485  54.415 -53.127  1.00  0.00     0.148 A 
HETATM    2  N   UNL     1     -40.976  55.547 -53.665  1.00  0.00    -0.165 NA
HETATM    3  N   UNL     1     -42.056  56.330 -53.834  1.00  0.00    -0.240 N 
HETATM    4  C   UNL     1     -43.236  55.727 -53.499  1.00  0.00     0.123 A 
HETATM    5  N   UNL     1     -44.425  56.341 -53.674  1.00  0.00    -0.366 N 
HETATM    6  C   UNL     1     -44.537  57.712 -54.155  1.00  0.00     0.118 C 
HETATM    7  C   UNL     1     -43.301  58.102 -54.990  1.00  0.00     0.066 C 
HETATM    8  C   UNL     1     -41.952  57.662 -54.391  1.00  0.00     0.221 C 
HETATM    9  C   UNL     1     -42.901  54.493 -53.012  1.00  0.00     0.088 A 
HETATM   10  H   UNL     1     -45.291  55.911 -53.351  1.00  0.00     0.161 HD
ENDROOT
BRANCH   1  11
HETATM   11  C   UNL     1     -40.639  53.278 -52.731  1.00  0.00     0.272 C 
HETATM   12  N   UNL     1     -40.345  52.423 -53.768  1.00  0.00    -0.354 N 
HETATM   13  H   UNL     1     -40.614  52.746 -54.695  1.00  0.00     0.162 HD
HETATM   14  O   UNL     1     -40.232  53.123 -51.584  1.00  0.00    -0.266 OA
BRANCH  12  15
HETATM   15  C   UNL     1     -39.348  51.379 -53.659  1.00  0.00     0.149 C 
BRANCH  15  16
HETATM   16  C   UNL     1     -39.922  50.014 -54.029  1.00  0.00     0.186 C 
BRANCH  16  17
HETATM   17  O   UNL     1     -39.489  49.045 -53.067  1.00  0.00    -0.394 OA
HETATM   18  C   UNL     1     -39.603  49.543 -51.740  1.00  0.00     0.201 C 
ENDBRANCH  16  17
ENDBRANCH  15  16
ENDBRANCH  12  15
ENDBRANCH   1  11
BRANCH   8  19
HETATM   19  C   UNL     1     -41.401  58.622 -53.361  1.00  0.00     0.409 C 
HETATM   20  F   UNL     1     -41.744  58.270 -52.101  1.00  0.00    -0.169 F 
HETATM   21  F   UNL     1     -40.043  58.613 -53.401  1.00  0.00    -0.169 F 
HETATM   22  F   UNL     1     -41.790  59.898 -53.543  1.00  0.00    -0.169 F 
ENDBRANCH   8  19
BRANCH   6  23
HETATM   23  C   UNL     1     -44.908  58.690 -53.051  1.00  0.00    -0.034 A 
HETATM   24  C   UNL     1     -45.112  60.063 -53.282  1.00  0.00     0.034 A 
HETATM   25  C   UNL     1     -45.433  60.938 -52.236  1.00  0.00     0.056 A 
HETATM   26 CL   UNL     1     -45.674  62.604 -52.626  1.00  0.00    -0.083 Cl
HETATM   27  C   UNL     1     -45.543  60.451 -50.932  1.00  0.00     0.055 A 
HETATM   28 CL   UNL     1     -45.923  61.467 -49.588  1.00  0.00    -0.083 Cl
HETATM   29  C   UNL     1     -45.336  59.093 -50.683  1.00  0.00     0.026 A 
HETATM   30  C   UNL     1     -45.022  58.222 -51.732  1.00  0.00     0.011 A 
ENDBRANCH   6  23
TORSDOF 6
ENDMDL
MODEL 6
REMARK VINA RESULT:      -7.0     16.937     18.977
REMARK  6 active torsions:
REMARK  status: ('A' for Active; 'I' for Inactive)
REMARK    1  A    between atoms: O_2  and  C_3 
REMARK    2  A    between atoms: C_3  and  C_4 
REMARK    3  A    between atoms: C_4  and  N_5 
REMARK       I    between atoms: N_5  and  C_6 
REMARK    4  A    between atoms: C_6  and  C_7 
REMARK    5  A    between atoms: C_12  and  C_13 
REMARK    6  A    between atoms: C_22  and  C_23 
ROOT
HETATM    1  C   UNL     1     -37.664  39.752 -59.242  1.00  0.00     0.148 A 
HETATM    2  N   UNL     1     -36.342  39.794 -58.957  1.00  0.00    -0.165 NA
HETATM    3  N   UNL     1     -36.273  40.619 -57.898  1.00  0.00    -0.240 N 
HETATM    4  C   UNL     1     -37.475  41.161 -57.538  1.00  0.00     0.123 A 
HETATM    5  N   UNL     1     -37.579  42.066 -56.542  1.00  0.00    -0.366 N 
HETATM    6  C   UNL     1     -36.440  42.471 -55.727  1.00  0.00     0.118 C 
HETATM    7  C   UNL     1     -35.119  42.271 -56.496  1.00  0.00     0.066 C 
HETATM    8  C   UNL     1     -35.012  40.939 -57.262  1.00  0.00     0.221 C 
HETATM    9  C   UNL     1     -38.404  40.601 -58.372  1.00  0.00     0.088 A 
HETATM   10  H   UNL     1     -38.489  42.405 -56.234  1.00  0.00     0.161 HD
ENDROOT
BRANCH   1  11
HETATM   11  C   UNL     1     -38.213  38.919 -60.324  1.00  0.00     0.272 C 
HETATM   12  N   UNL     1     -39.124  37.985 -59.890  1.00  0.00    -0.354 N 
HETATM   13  H   UNL     1     -39.419  38.074 -58.919  1.00  0.00     0.162 HD
HETATM   14  O   UNL     1     -37.889  39.060 -61.499  1.00  0.00    -0.266 OA
BRANCH  12  15
HETATM   15  C   UNL     1     -39.956  37.225 -60.799  1.00  0.00     0.149 C 
BRANCH  15  16
HETATM   16  C   UNL     1     -41.331  37.864 -60.970  1.00  0.00     0.186 C 
BRANCH  16  17
HETATM   17  O   UNL     1     -41.858  37.513 -62.254  1.00  0.00    -0.394 OA
HETATM   18  C   UNL     1     -40.937  37.816 -63.295  1.00  0.00     0.201 C 
ENDBRANCH  16  17
ENDBRANCH  15  16
ENDBRANCH  12  15
ENDBRANCH   1  11
BRANCH   8  19
HETATM   19  C   UNL     1     -34.544  39.782 -56.409  1.00  0.00     0.409 C 
HETATM   20  F   UNL     1     -35.576  39.059 -55.918  1.00  0.00    -0.169 F 
HETATM   21  F   UNL     1     -33.805  38.924 -57.160  1.00  0.00    -0.169 F 
HETATM   22  F   UNL     1     -33.777  40.151 -55.366  1.00  0.00    -0.169 F 
ENDBRANCH   8  19
BRANCH   6  23
HETATM   23  C   UNL     1     -36.476  41.869 -54.332  1.00  0.00    -0.034 A 
HETATM   24  C   UNL     1     -35.487  42.123 -53.364  1.00  0.00     0.034 A 
HETATM   25  C   UNL     1     -35.542  41.532 -52.094  1.00  0.00     0.056 A 
HETATM   26 CL   UNL     1     -34.284  41.916 -50.974  1.00  0.00    -0.083 Cl
HETATM   27  C   UNL     1     -36.588  40.664 -51.776  1.00  0.00     0.055 A 
HETATM   28 CL   UNL     1     -36.720  39.889 -50.239  1.00  0.00    -0.083 Cl
HETATM   29  C   UNL     1     -37.574  40.394 -52.728  1.00  0.00     0.026 A 
HETATM   30  C   UNL     1     -37.518  40.991 -53.992  1.00  0.00     0.011 A 
ENDBRANCH   6  23
TORSDOF 6
ENDMDL
MODEL 7
REMARK VINA RESULT:      -7.0      3.979      6.398
REMARK  6 active torsions:
REMARK  status: ('A' for Active; 'I' for Inactive)
REMARK    1  A    between atoms: O_2  and  C_3 
REMARK    2  A    between atoms: C_3  and  C_4 
REMARK    3  A    between atoms: C_4  and  N_5 
REMARK       I    between atoms: N_5  and  C_6 
REMARK    4  A    between atoms: C_6  and  C_7 
REMARK    5  A    between atoms: C_12  and  C_13 
REMARK    6  A    between atoms: C_22  and  C_23 
ROOT
HETATM    1  C   UNL     1     -43.760  58.583 -55.955  1.00  0.00     0.148 A 
HETATM    2  N   UNL     1     -42.949  59.109 -55.007  1.00  0.00    -0.165 NA
HETATM    3  N   UNL     1     -43.054  58.242 -53.985  1.00  0.00    -0.240 N 
HETATM    4  C   UNL     1     -43.945  57.229 -54.205  1.00  0.00     0.123 A 
HETATM    5  N   UNL     1     -44.229  56.311 -53.259  1.00  0.00    -0.366 N 
HETATM    6  C   UNL     1     -43.554  56.281 -51.967  1.00  0.00     0.118 C 
HETATM    7  C   UNL     1     -43.020  57.678 -51.596  1.00  0.00     0.066 C 
HETATM    8  C   UNL     1     -42.327  58.432 -52.747  1.00  0.00     0.221 C 
HETATM    9  C   UNL     1     -44.403  57.404 -55.484  1.00  0.00     0.088 A 
HETATM   10  H   UNL     1     -44.837  55.519 -53.461  1.00  0.00     0.161 HD
ENDROOT
BRANCH   1  11
HETATM   11  C   UNL     1     -43.920  59.192 -57.284  1.00  0.00     0.272 C 
HETATM   12  N   UNL     1     -43.111  58.633 -58.247  1.00  0.00    -0.354 N 
HETATM   13  H   UNL     1     -42.618  57.786 -57.970  1.00  0.00     0.162 HD
HETATM   14  O   UNL     1     -44.710  60.105 -57.505  1.00  0.00    -0.266 OA
BRANCH  12  15
HETATM   15  C   UNL     1     -43.269  58.913 -59.658  1.00  0.00     0.149 C 
BRANCH  15  16
HETATM   16  C   UNL     1     -44.040  57.804 -60.368  1.00  0.00     0.186 C 
BRANCH  16  17
HETATM   17  O   UNL     1     -43.178  56.676 -60.554  1.00  0.00    -0.394 OA
HETATM   18  C   UNL     1     -43.685  55.520 -59.899  1.00  0.00     0.201 C 
ENDBRANCH  16  17
ENDBRANCH  15  16
ENDBRANCH  12  15
ENDBRANCH   1  11
BRANCH   8  19
HETATM   19  C   UNL     1     -40.872  58.063 -52.929  1.00  0.00     0.409 C 
HETATM   20  F   UNL     1     -40.124  59.117 -53.328  1.00  0.00    -0.169 F 
HETATM   21  F   UNL     1     -40.348  57.655 -51.744  1.00  0.00    -0.169 F 
HETATM   22  F   UNL     1     -40.670  57.066 -53.810  1.00  0.00    -0.169 F 
ENDBRANCH   8  19
BRANCH   6  23
HETATM   23  C   UNL     1     -42.541  55.151 -51.863  1.00  0.00    -0.034 A 
HETATM   24  C   UNL     1     -42.200  54.328 -52.952  1.00  0.00     0.034 A 
HETATM   25  C   UNL     1     -41.277  53.282 -52.814  1.00  0.00     0.056 A 
HETATM   26 CL   UNL     1     -40.918  52.336 -54.213  1.00  0.00    -0.083 Cl
HETATM   27  C   UNL     1     -40.687  53.037 -51.572  1.00  0.00     0.055 A 
HETATM   28 CL   UNL     1     -39.550  51.761 -51.318  1.00  0.00    -0.083 Cl
HETATM   29  C   UNL     1     -41.020  53.838 -50.479  1.00  0.00     0.026 A 
HETATM   30  C   UNL     1     -41.937  54.885 -50.623  1.00  0.00     0.011 A 
ENDBRANCH   6  23
TORSDOF 6
ENDMDL
MODEL 8
REMARK VINA RESULT:      -7.0      1.359      2.233
REMARK  6 active torsions:
REMARK  status: ('A' for Active; 'I' for Inactive)
REMARK    1  A    between atoms: O_2  and  C_3 
REMARK    2  A    between atoms: C_3  and  C_4 
REMARK    3  A    between atoms: C_4  and  N_5 
REMARK       I    between atoms: N_5  and  C_6 
REMARK    4  A    between atoms: C_6  and  C_7 
REMARK    5  A    between atoms: C_12  and  C_13 
REMARK    6  A    between atoms: C_22  and  C_23 
ROOT
HETATM    1  C   UNL     1     -43.841  57.838 -51.776  1.00  0.00     0.148 A 
HETATM    2  N   UNL     1     -44.196  57.164 -52.894  1.00  0.00    -0.165 NA
HETATM    3  N   UNL     1     -43.068  56.524 -53.248  1.00  0.00    -0.240 N 
HETATM    4  C   UNL     1     -41.993  56.812 -52.454  1.00  0.00     0.123 A 
HETATM    5  N   UNL     1     -40.765  56.315 -52.707  1.00  0.00    -0.366 N 
HETATM    6  C   UNL     1     -40.507  55.376 -53.792  1.00  0.00     0.118 C 
HETATM    7  C   UNL     1     -41.559  55.527 -54.908  1.00  0.00     0.066 C 
HETATM    8  C   UNL     1     -43.011  55.667 -54.414  1.00  0.00     0.221 C 
HETATM    9  C   UNL     1     -42.465  57.642 -51.473  1.00  0.00     0.088 A 
HETATM   10  H   UNL     1     -39.990  56.477 -52.066  1.00  0.00     0.161 HD
ENDROOT
BRANCH   1  11
HETATM   11  C   UNL     1     -44.795  58.655 -51.010  1.00  0.00     0.272 C 
HETATM   12  N   UNL     1     -44.213  59.722 -50.366  1.00  0.00    -0.354 N 
HETATM   13  H   UNL     1     -43.242  59.906 -50.609  1.00  0.00     0.162 HD
HETATM   14  O   UNL     1     -45.996  58.404 -50.964  1.00  0.00    -0.266 OA
BRANCH  12  15
HETATM   15  C   UNL     1     -44.988  60.781 -49.754  1.00  0.00     0.149 C 
BRANCH  15  16
HETATM   16  C   UNL     1     -44.663  62.141 -50.366  1.00  0.00     0.186 C 
BRANCH  16  17
HETATM   17  O   UNL     1     -43.470  62.655 -49.765  1.00  0.00    -0.394 OA
HETATM   18  C   UNL     1     -43.039  63.850 -50.403  1.00  0.00     0.201 C 
ENDBRANCH  16  17
ENDBRANCH  15  16
ENDBRANCH  12  15
ENDBRANCH   1  11
BRANCH   8  19
HETATM   19  C   UNL     1     -43.688  54.345 -54.130  1.00  0.00     0.409 C 
HETATM   20  F   UNL     1     -43.199  53.346 -54.899  1.00  0.00    -0.169 F 
HETATM   21  F   UNL     1     -43.459  53.978 -52.842  1.00  0.00    -0.169 F 
HETATM   22  F   UNL     1     -45.023  54.370 -54.299  1.00  0.00    -0.169 F 
ENDBRANCH   8  19
BRANCH   6  23
HETATM   23  C   UNL     1     -40.289  53.955 -53.295  1.00  0.00    -0.034 A 
HETATM   24  C   UNL     1     -40.161  52.853 -54.161  1.00  0.00     0.034 A 
HETATM   25  C   UNL     1     -39.982  51.555 -53.665  1.00  0.00     0.056 A 
HETATM   26 CL   UNL     1     -39.825  50.272 -54.811  1.00  0.00    -0.083 Cl
HETATM   27  C   UNL     1     -39.940  51.337 -52.287  1.00  0.00     0.055 A 
HETATM   28 CL   UNL     1     -39.735  49.766 -51.599  1.00  0.00    -0.083 Cl
HETATM   29  C   UNL     1     -40.074  52.417 -51.413  1.00  0.00     0.026 A 
HETATM   30  C   UNL     1     -40.246  53.713 -51.912  1.00  0.00     0.011 A 
ENDBRANCH   6  23
TORSDOF 6
ENDMDL
MODEL 9
REMARK VINA RESULT:      -7.0     16.907     18.698
REMARK  6 active torsions:
REMARK  status: ('A' for Active; 'I' for Inactive)
REMARK    1  A    between atoms: O_2  and  C_3 
REMARK    2  A    between atoms: C_3  and  C_4 
REMARK    3  A    between atoms: C_4  and  N_5 
REMARK       I    between atoms: N_5  and  C_6 
REMARK    4  A    between atoms: C_6  and  C_7 
REMARK    5  A    between atoms: C_12  and  C_13 
REMARK    6  A    between atoms: C_22  and  C_23 
ROOT
HETATM    1  C   UNL     1     -34.309  39.742 -52.684  1.00  0.00     0.148 A 
HETATM    2  N   UNL     1     -35.422  40.510 -52.752  1.00  0.00    -0.165 NA
HETATM    3  N   UNL     1     -35.383  41.011 -53.999  1.00  0.00    -0.240 N 
HETATM    4  C   UNL     1     -34.267  40.659 -54.705  1.00  0.00     0.123 A 
HETATM    5  N   UNL     1     -34.030  41.131 -55.947  1.00  0.00    -0.366 N 
HETATM    6  C   UNL     1     -34.977  41.981 -56.657  1.00  0.00     0.118 C 
HETATM    7  C   UNL     1     -35.877  42.745 -55.666  1.00  0.00     0.066 C 
HETATM    8  C   UNL     1     -36.414  41.898 -54.496  1.00  0.00     0.221 C 
HETATM    9  C   UNL     1     -33.560  39.815 -53.891  1.00  0.00     0.088 A 
HETATM   10  H   UNL     1     -33.233  40.802 -56.490  1.00  0.00     0.161 HD
ENDROOT
BRANCH   1  11
HETATM   11  C   UNL     1     -33.966  38.954 -51.490  1.00  0.00     0.272 C 
HETATM   12  N   UNL     1     -32.674  39.145 -51.058  1.00  0.00    -0.354 N 
HETATM   13  H   UNL     1     -32.165  39.902 -51.511  1.00  0.00     0.162 HD
HETATM   14  O   UNL     1     -34.766  38.207 -50.936  1.00  0.00    -0.266 OA
BRANCH  12  15
HETATM   15  C   UNL     1     -32.198  38.656 -49.781  1.00  0.00     0.149 C 
BRANCH  15  16
HETATM   16  C   UNL     1     -31.951  39.799 -48.799  1.00  0.00     0.186 C 
BRANCH  16  17
HETATM   17  O   UNL     1     -30.596  39.741 -48.341  1.00  0.00    -0.394 OA
HETATM   18  C   UNL     1     -30.529  39.467 -46.947  1.00  0.00     0.201 C 
ENDBRANCH  16  17
ENDBRANCH  15  16
ENDBRANCH  12  15
ENDBRANCH   1  11
BRANCH   8  19
HETATM   19  C   UNL     1     -37.664  41.117 -54.834  1.00  0.00     0.409 C 
HETATM   20  F   UNL     1     -38.487  40.985 -53.768  1.00  0.00    -0.169 F 
HETATM   21  F   UNL     1     -38.378  41.776 -55.784  1.00  0.00    -0.169 F 
HETATM   22  F   UNL     1     -37.421  39.883 -55.312  1.00  0.00    -0.169 F 
ENDBRANCH   8  19
BRANCH   6  23
HETATM   23  C   UNL     1     -35.713  41.240 -57.762  1.00  0.00    -0.034 A 
HETATM   24  C   UNL     1     -35.484  39.883 -58.056  1.00  0.00     0.034 A 
HETATM   25  C   UNL     1     -36.167  39.238 -59.097  1.00  0.00     0.056 A 
HETATM   26 CL   UNL     1     -35.823  37.568 -59.371  1.00  0.00    -0.083 Cl
HETATM   27  C   UNL     1     -37.086  39.950 -59.871  1.00  0.00     0.055 A 
HETATM   28 CL   UNL     1     -37.957  39.230 -61.177  1.00  0.00    -0.083 Cl
HETATM   29  C   UNL     1     -37.318  41.299 -59.598  1.00  0.00     0.026 A 
HETATM   30  C   UNL     1     -36.639  41.937 -58.555  1.00  0.00     0.011 A 
ENDBRANCH   6  23
TORSDOF 6
ENDMDL
MODEL 10
REMARK VINA RESULT:      -6.9      4.161      6.309
REMARK  6 active torsions:
REMARK  status: ('A' for Active; 'I' for Inactive)
REMARK    1  A    between atoms: O_2  and  C_3 
REMARK    2  A    between atoms: C_3  and  C_4 
REMARK    3  A    between atoms: C_4  and  N_5 
REMARK       I    between atoms: N_5  and  C_6 
REMARK    4  A    between atoms: C_6  and  C_7 
REMARK    5  A    between atoms: C_12  and  C_13 
REMARK    6  A    between atoms: C_22  and  C_23 
ROOT
HETATM    1  C   UNL     1     -43.255  58.788 -56.393  1.00  0.00     0.148 A 
HETATM    2  N   UNL     1     -42.796  59.043 -55.146  1.00  0.00    -0.165 NA
HETATM    3  N   UNL     1     -43.003  57.888 -54.491  1.00  0.00    -0.240 N 
HETATM    4  C   UNL     1     -43.636  56.932 -55.236  1.00  0.00     0.123 A 
HETATM    5  N   UNL     1     -43.987  55.738 -54.715  1.00  0.00    -0.366 N 
HETATM    6  C   UNL     1     -43.651  55.347 -53.352  1.00  0.00     0.118 C 
HETATM    7  C   UNL     1     -43.459  56.588 -52.458  1.00  0.00     0.066 C 
HETATM    8  C   UNL     1     -42.640  57.725 -53.098  1.00  0.00     0.221 C 
HETATM    9  C   UNL     1     -43.792  57.473 -56.484  1.00  0.00     0.088 A 
HETATM   10  H   UNL     1     -44.390  55.008 -55.301  1.00  0.00     0.161 HD
ENDROOT
BRANCH   1  11
HETATM   11  C   UNL     1     -43.184  59.778 -57.479  1.00  0.00     0.272 C 
HETATM   12  N   UNL     1     -42.091  59.620 -58.297  1.00  0.00    -0.354 N 
HETATM   13  H   UNL     1     -41.552  58.768 -58.153  1.00  0.00     0.162 HD
HETATM   14  O   UNL     1     -44.032  60.652 -57.635  1.00  0.00    -0.266 OA
BRANCH  12  15
HETATM   15  C   UNL     1     -41.947  60.327 -59.553  1.00  0.00     0.149 C 
BRANCH  15  16
HETATM   16  C   UNL     1     -42.094  59.387 -60.747  1.00  0.00     0.186 C 
BRANCH  16  17
HETATM   17  O   UNL     1     -43.468  59.009 -60.882  1.00  0.00    -0.394 OA
HETATM   18  C   UNL     1     -44.287  60.126 -61.204  1.00  0.00     0.201 C 
ENDBRANCH  16  17
ENDBRANCH  15  16
ENDBRANCH  12  15
ENDBRANCH   1  11
BRANCH   8  19
HETATM   19  C   UNL     1     -41.144  57.551 -52.961  1.00  0.00     0.409 C 
HETATM   20  F   UNL     1     -40.614  56.856 -53.993  1.00  0.00    -0.169 F 
HETATM   21  F   UNL     1     -40.536  58.766 -52.971  1.00  0.00    -0.169 F 
HETATM   22  F   UNL     1     -40.771  56.935 -51.824  1.00  0.00    -0.169 F 
ENDBRANCH   8  19
BRANCH   6  23
HETATM   23  C   UNL     1     -42.523  54.329 -53.298  1.00  0.00    -0.034 A 
HETATM   24  C   UNL     1     -41.900  53.940 -52.097  1.00  0.00     0.034 A 
HETATM   25  C   UNL     1     -40.849  53.014 -52.088  1.00  0.00     0.056 A 
HETATM   26 CL   UNL     1     -40.159  52.595 -50.561  1.00  0.00    -0.083 Cl
HETATM   27  C   UNL     1     -40.395  52.467 -53.291  1.00  0.00     0.055 A 
HETATM   28 CL   UNL     1     -39.097  51.329 -53.364  1.00  0.00    -0.083 Cl
HETATM   29  C   UNL     1     -40.995  52.848 -54.492  1.00  0.00     0.026 A 
HETATM   30  C   UNL     1     -42.048  53.769 -54.495  1.00  0.00     0.011 A 
ENDBRANCH   6  23
TORSDOF 6
ENDMDL
