MODEL 1
REMARK VINA RESULT:      -7.8      0.000      0.000
REMARK  5 active torsions:
REMARK  status: ('A' for Active; 'I' for Inactive)
REMARK    1  A    between atoms: C_3  and  O_4 
REMARK    2  A    between atoms: C_5  and  C_6 
REMARK       I    between atoms: C_6  and  N_7 
REMARK    3  A    between atoms: N_7  and  C_8 
REMARK    4  A    between atoms: C_8  and  C_9 
REMARK    5  A    between atoms: C_9  and  C_10 
ROOT
HETATM    1  C   UNL     1     -40.958  53.726 -53.363  1.00  0.00     0.254 C 
HETATM    2  N   UNL     1     -42.111  54.060 -52.695  1.00  0.00    -0.356 N 
HETATM    3  O   UNL     1     -40.330  54.540 -54.035  1.00  0.00    -0.268 OA
HETATM    4  H   UNL     1     -42.641  53.292 -52.286  1.00  0.00     0.162 HD
ENDROOT
BRANCH   2   5
HETATM    5  C   UNL     1     -42.721  55.368 -52.811  1.00  0.00     0.136 C 
BRANCH   5   6
HETATM    6  C   UNL     1     -42.613  56.220 -51.512  1.00  0.00    -0.004 C 
HETATM    7  C   UNL     1     -44.022  56.768 -51.179  1.00  0.00     0.021 C 
HETATM    8  C   UNL     1     -42.209  55.285 -50.348  1.00  0.00     0.021 C 
BRANCH   6   9
HETATM    9  C   UNL     1     -41.542  57.317 -51.658  1.00  0.00    -0.046 A 
HETATM   10  C   UNL     1     -40.964  57.967 -50.559  1.00  0.00     0.027 A 
HETATM   11  C   UNL     1     -40.013  58.958 -50.773  1.00  0.00     0.116 A 
HETATM   12  N   UNL     1     -39.596  59.353 -51.992  1.00  0.00    -0.273 NA
HETATM   13  C   UNL     1     -40.145  58.717 -53.045  1.00  0.00     0.116 A 
HETATM   14  C   UNL     1     -41.099  57.715 -52.930  1.00  0.00     0.027 A 
ENDBRANCH   6   9
ENDBRANCH   5   6
ENDBRANCH   2   5
BRANCH   1  15
HETATM   15  C   UNL     1     -40.480  52.310 -53.234  1.00  0.00     0.065 A 
HETATM   16  C   UNL     1     -40.122  51.693 -52.018  1.00  0.00     0.087 A 
HETATM   17  C   UNL     1     -39.623  50.376 -51.997  1.00  0.00    -0.028 A 
HETATM   18  C   UNL     1     -39.181  49.697 -50.730  1.00  0.00     0.051 C 
HETATM   19  C   UNL     1     -39.551  49.661 -53.202  1.00  0.00     0.009 A 
HETATM   20  C   UNL     1     -39.935  50.249 -54.404  1.00  0.00     0.002 A 
HETATM   21  C   UNL     1     -40.387  51.567 -54.421  1.00  0.00     0.020 A 
BRANCH  16  22
HETATM   22  O   UNL     1     -40.267  52.383 -50.839  1.00  0.00    -0.359 OA
HETATM   23  H   UNL     1     -41.068  52.933 -50.895  1.00  0.00     0.218 HD
ENDBRANCH  16  22
ENDBRANCH   1  15
TORSDOF 5
ENDMDL
MODEL 2
REMARK VINA RESULT:      -7.7      1.028      2.458
REMARK  5 active torsions:
REMARK  status: ('A' for Active; 'I' for Inactive)
REMARK    1  A    between atoms: C_3  and  O_4 
REMARK    2  A    between atoms: C_5  and  C_6 
REMARK       I    between atoms: C_6  and  N_7 
REMARK    3  A    between atoms: N_7  and  C_8 
REMARK    4  A    between atoms: C_8  and  C_9 
REMARK    5  A    between atoms: C_9  and  C_10 
ROOT
HETATM    1  C   UNL     1     -40.446  53.332 -50.731  1.00  0.00     0.254 C 
HETATM    2  N   UNL     1     -41.740  53.780 -50.847  1.00  0.00    -0.356 N 
HETATM    3  O   UNL     1     -39.577  53.979 -50.153  1.00  0.00    -0.268 OA
HETATM    4  H   UNL     1     -42.354  53.251 -51.464  1.00  0.00     0.162 HD
ENDROOT
BRANCH   2   5
HETATM    5  C   UNL     1     -42.150  55.088 -50.380  1.00  0.00     0.136 C 
BRANCH   5   6
HETATM    6  C   UNL     1     -42.632  56.031 -51.523  1.00  0.00    -0.004 C 
HETATM    7  C   UNL     1     -42.907  55.165 -52.776  1.00  0.00     0.021 C 
HETATM    8  C   UNL     1     -43.982  56.655 -51.102  1.00  0.00     0.021 C 
BRANCH   6   9
HETATM    9  C   UNL     1     -41.618  57.166 -51.767  1.00  0.00    -0.046 A 
HETATM   10  C   UNL     1     -41.284  57.625 -53.048  1.00  0.00     0.027 A 
HETATM   11  C   UNL     1     -40.350  58.644 -53.187  1.00  0.00     0.116 A 
HETATM   12  N   UNL     1     -39.722  59.238 -52.154  1.00  0.00    -0.273 NA
HETATM   13  C   UNL     1     -40.055  58.802 -50.923  1.00  0.00     0.116 A 
HETATM   14  C   UNL     1     -40.977  57.793 -50.686  1.00  0.00     0.027 A 
ENDBRANCH   6   9
ENDBRANCH   5   6
ENDBRANCH   2   5
BRANCH   1  15
HETATM   15  C   UNL     1     -40.130  51.996 -51.338  1.00  0.00     0.065 A 
HETATM   16  C   UNL     1     -39.993  51.756 -52.719  1.00  0.00     0.087 A 
HETATM   17  C   UNL     1     -39.757  50.456 -53.206  1.00  0.00    -0.028 A 
HETATM   18  C   UNL     1     -39.655  50.144 -54.674  1.00  0.00     0.051 C 
HETATM   19  C   UNL     1     -39.592  49.409 -52.285  1.00  0.00     0.009 A 
HETATM   20  C   UNL     1     -39.691  49.642 -50.915  1.00  0.00     0.002 A 
HETATM   21  C   UNL     1     -39.967  50.925 -50.446  1.00  0.00     0.020 A 
BRANCH  16  22
HETATM   22  O   UNL     1     -40.086  52.804 -53.602  1.00  0.00    -0.359 OA
HETATM   23  H   UNL     1     -40.987  53.170 -53.560  1.00  0.00     0.218 HD
ENDBRANCH  16  22
ENDBRANCH   1  15
TORSDOF 5
ENDMDL
MODEL 3
REMARK VINA RESULT:      -7.3      1.921      3.318
REMARK  5 active torsions:
REMARK  status: ('A' for Active; 'I' for Inactive)
REMARK    1  A    between atoms: C_3  and  O_4 
REMARK    2  A    between atoms: C_5  and  C_6 
REMARK       I    between atoms: C_6  and  N_7 
REMARK    3  A    between atoms: N_7  and  C_8 
REMARK    4  A    between atoms: C_8  and  C_9 
REMARK    5  A    between atoms: C_9  and  C_10 
ROOT
HETATM    1  C   UNL     1     -40.196  53.362 -50.712  1.00  0.00     0.254 C 
HETATM    2  N   UNL     1     -41.436  53.938 -50.848  1.00  0.00    -0.356 N 
HETATM    3  O   UNL     1     -39.278  53.914 -50.111  1.00  0.00    -0.268 OA
HETATM    4  H   UNL     1     -42.087  53.479 -51.483  1.00  0.00     0.162 HD
ENDROOT
BRANCH   2   5
HETATM    5  C   UNL     1     -41.722  55.278 -50.377  1.00  0.00     0.136 C 
BRANCH   5   6
HETATM    6  C   UNL     1     -42.531  56.134 -51.396  1.00  0.00    -0.004 C 
HETATM    7  C   UNL     1     -44.020  56.100 -50.977  1.00  0.00     0.021 C 
HETATM    8  C   UNL     1     -42.064  57.603 -51.277  1.00  0.00     0.021 C 
BRANCH   6   9
HETATM    9  C   UNL     1     -42.284  55.654 -52.840  1.00  0.00    -0.046 A 
HETATM   10  C   UNL     1     -41.199  56.092 -53.612  1.00  0.00     0.027 A 
HETATM   11  C   UNL     1     -41.052  55.623 -54.912  1.00  0.00     0.116 A 
HETATM   12  N   UNL     1     -41.899  54.759 -55.503  1.00  0.00    -0.273 NA
HETATM   13  C   UNL     1     -42.934  54.331 -54.753  1.00  0.00     0.116 A 
HETATM   14  C   UNL     1     -43.161  54.740 -53.446  1.00  0.00     0.027 A 
ENDBRANCH   6   9
ENDBRANCH   5   6
ENDBRANCH   2   5
BRANCH   1  15
HETATM   15  C   UNL     1     -40.003  52.007 -51.325  1.00  0.00     0.065 A 
HETATM   16  C   UNL     1     -39.917  51.758 -52.710  1.00  0.00     0.087 A 
HETATM   17  C   UNL     1     -39.798  50.444 -53.201  1.00  0.00    -0.028 A 
HETATM   18  C   UNL     1     -39.755  50.128 -54.671  1.00  0.00     0.051 C 
HETATM   19  C   UNL     1     -39.697  49.386 -52.284  1.00  0.00     0.009 A 
HETATM   20  C   UNL     1     -39.745  49.623 -50.913  1.00  0.00     0.002 A 
HETATM   21  C   UNL     1     -39.907  50.924 -50.438  1.00  0.00     0.020 A 
BRANCH  16  22
HETATM   22  O   UNL     1     -39.945  52.812 -53.590  1.00  0.00    -0.359 OA
HETATM   23  H   UNL     1     -39.236  53.436 -53.355  1.00  0.00     0.218 HD
ENDBRANCH  16  22
ENDBRANCH   1  15
TORSDOF 5
ENDMDL
MODEL 4
REMARK VINA RESULT:      -7.3      3.410      4.315
REMARK  5 active torsions:
REMARK  status: ('A' for Active; 'I' for Inactive)
REMARK    1  A    between atoms: C_3  and  O_4 
REMARK    2  A    between atoms: C_5  and  C_6 
REMARK       I    between atoms: C_6  and  N_7 
REMARK    3  A    between atoms: N_7  and  C_8 
REMARK    4  A    between atoms: C_8  and  C_9 
REMARK    5  A    between atoms: C_9  and  C_10 
ROOT
HETATM    1  C   UNL     1     -40.627  53.717 -53.503  1.00  0.00     0.254 C 
HETATM    2  N   UNL     1     -40.993  54.099 -54.772  1.00  0.00    -0.356 N 
HETATM    3  O   UNL     1     -40.602  54.506 -52.562  1.00  0.00    -0.268 OA
HETATM    4  H   UNL     1     -40.845  53.418 -55.514  1.00  0.00     0.162 HD
ENDROOT
BRANCH   2   5
HETATM    5  C   UNL     1     -41.281  55.477 -55.112  1.00  0.00     0.136 C 
BRANCH   5   6
HETATM    6  C   UNL     1     -42.730  55.695 -55.640  1.00  0.00    -0.004 C 
HETATM    7  C   UNL     1     -43.476  54.340 -55.569  1.00  0.00     0.021 C 
HETATM    8  C   UNL     1     -43.459  56.660 -54.677  1.00  0.00     0.021 C 
BRANCH   6   9
HETATM    9  C   UNL     1     -42.716  56.320 -57.048  1.00  0.00    -0.046 A 
HETATM   10  C   UNL     1     -42.324  57.644 -57.289  1.00  0.00     0.027 A 
HETATM   11  C   UNL     1     -42.353  58.139 -58.587  1.00  0.00     0.116 A 
HETATM   12  N   UNL     1     -42.743  57.424 -59.660  1.00  0.00    -0.273 NA
HETATM   13  C   UNL     1     -43.107  56.148 -59.425  1.00  0.00     0.116 A 
HETATM   14  C   UNL     1     -43.109  55.566 -58.166  1.00  0.00     0.027 A 
ENDBRANCH   6   9
ENDBRANCH   5   6
ENDBRANCH   2   5
BRANCH   1  15
HETATM   15  C   UNL     1     -40.264  52.276 -53.302  1.00  0.00     0.065 A 
HETATM   16  C   UNL     1     -40.000  51.682 -52.052  1.00  0.00     0.087 A 
HETATM   17  C   UNL     1     -39.604  50.334 -51.963  1.00  0.00    -0.028 A 
HETATM   18  C   UNL     1     -39.262  49.673 -50.655  1.00  0.00     0.051 C 
HETATM   19  C   UNL     1     -39.543  49.568 -53.137  1.00  0.00     0.009 A 
HETATM   20  C   UNL     1     -39.835  50.135 -54.375  1.00  0.00     0.002 A 
HETATM   21  C   UNL     1     -40.185  51.482 -54.457  1.00  0.00     0.020 A 
BRANCH  16  22
HETATM   22  O   UNL     1     -40.135  52.427 -50.906  1.00  0.00    -0.359 OA
HETATM   23  H   UNL     1     -40.314  53.351 -51.152  1.00  0.00     0.218 HD
ENDBRANCH  16  22
ENDBRANCH   1  15
TORSDOF 5
ENDMDL
MODEL 5
REMARK VINA RESULT:      -7.3      4.166      6.903
REMARK  5 active torsions:
REMARK  status: ('A' for Active; 'I' for Inactive)
REMARK    1  A    between atoms: C_3  and  O_4 
REMARK    2  A    between atoms: C_5  and  C_6 
REMARK       I    between atoms: C_6  and  N_7 
REMARK    3  A    between atoms: N_7  and  C_8 
REMARK    4  A    between atoms: C_8  and  C_9 
REMARK    5  A    between atoms: C_9  and  C_10 
ROOT
HETATM    1  C   UNL     1     -42.027  56.921 -56.010  1.00  0.00     0.254 C 
HETATM    2  N   UNL     1     -41.396  55.824 -55.473  1.00  0.00    -0.356 N 
HETATM    3  O   UNL     1     -42.146  57.976 -55.393  1.00  0.00    -0.268 OA
HETATM    4  H   UNL     1     -41.472  54.953 -55.995  1.00  0.00     0.162 HD
ENDROOT
BRANCH   2   5
HETATM    5  C   UNL     1     -40.911  55.801 -54.109  1.00  0.00     0.136 C 
BRANCH   5   6
HETATM    6  C   UNL     1     -41.649  54.769 -53.206  1.00  0.00    -0.004 C 
HETATM    7  C   UNL     1     -41.825  55.397 -51.802  1.00  0.00     0.021 C 
HETATM    8  C   UNL     1     -43.068  54.546 -53.779  1.00  0.00     0.021 C 
BRANCH   6   9
HETATM    9  C   UNL     1     -40.906  53.418 -53.190  1.00  0.00    -0.046 A 
HETATM   10  C   UNL     1     -40.888  52.548 -54.288  1.00  0.00     0.027 A 
HETATM   11  C   UNL     1     -40.206  51.341 -54.191  1.00  0.00     0.116 A 
HETATM   12  N   UNL     1     -39.547  50.932 -53.090  1.00  0.00    -0.273 NA
HETATM   13  C   UNL     1     -39.558  51.777 -52.041  1.00  0.00     0.116 A 
HETATM   14  C   UNL     1     -40.208  53.003 -52.045  1.00  0.00     0.027 A 
ENDBRANCH   6   9
ENDBRANCH   5   6
ENDBRANCH   2   5
BRANCH   1  15
HETATM   15  C   UNL     1     -42.566  56.784 -57.403  1.00  0.00     0.065 A 
HETATM   16  C   UNL     1     -43.302  55.678 -57.873  1.00  0.00     0.087 A 
HETATM   17  C   UNL     1     -43.715  55.605 -59.218  1.00  0.00    -0.028 A 
HETATM   18  C   UNL     1     -44.457  54.421 -59.775  1.00  0.00     0.051 C 
HETATM   19  C   UNL     1     -43.442  56.687 -60.068  1.00  0.00     0.009 A 
HETATM   20  C   UNL     1     -42.746  57.801 -59.605  1.00  0.00     0.002 A 
HETATM   21  C   UNL     1     -42.303  57.844 -58.284  1.00  0.00     0.020 A 
BRANCH  16  22
HETATM   22  O   UNL     1     -43.623  54.661 -57.008  1.00  0.00    -0.359 OA
HETATM   23  H   UNL     1     -43.685  55.023 -56.107  1.00  0.00     0.218 HD
ENDBRANCH  16  22
ENDBRANCH   1  15
TORSDOF 5
ENDMDL
MODEL 6
REMARK VINA RESULT:      -7.2      4.217      7.472
REMARK  5 active torsions:
REMARK  status: ('A' for Active; 'I' for Inactive)
REMARK    1  A    between atoms: C_3  and  O_4 
REMARK    2  A    between atoms: C_5  and  C_6 
REMARK       I    between atoms: C_6  and  N_7 
REMARK    3  A    between atoms: N_7  and  C_8 
REMARK    4  A    between atoms: C_8  and  C_9 
REMARK    5  A    between atoms: C_9  and  C_10 
ROOT
HETATM    1  C   UNL     1     -42.910  55.743 -56.071  1.00  0.00     0.254 C 
HETATM    2  N   UNL     1     -42.298  54.522 -55.919  1.00  0.00    -0.356 N 
HETATM    3  O   UNL     1     -43.394  56.357 -55.124  1.00  0.00    -0.268 OA
HETATM    4  H   UNL     1     -42.057  54.022 -56.772  1.00  0.00     0.162 HD
ENDROOT
BRANCH   2   5
HETATM    5  C   UNL     1     -42.263  53.828 -54.648  1.00  0.00     0.136 C 
BRANCH   5   6
HETATM    6  C   UNL     1     -40.870  53.876 -53.953  1.00  0.00    -0.004 C 
HETATM    7  C   UNL     1     -39.877  54.571 -54.916  1.00  0.00     0.021 C 
HETATM    8  C   UNL     1     -40.982  54.774 -52.699  1.00  0.00     0.021 C 
BRANCH   6   9
HETATM    9  C   UNL     1     -40.423  52.469 -53.513  1.00  0.00    -0.046 A 
HETATM   10  C   UNL     1     -39.935  52.193 -52.229  1.00  0.00     0.027 A 
HETATM   11  C   UNL     1     -39.538  50.899 -51.912  1.00  0.00     0.116 A 
HETATM   12  N   UNL     1     -39.585  49.863 -52.772  1.00  0.00    -0.273 NA
HETATM   13  C   UNL     1     -40.067  50.131 -54.002  1.00  0.00     0.116 A 
HETATM   14  C   UNL     1     -40.489  51.389 -54.408  1.00  0.00     0.027 A 
ENDBRANCH   6   9
ENDBRANCH   5   6
ENDBRANCH   2   5
BRANCH   1  15
HETATM   15  C   UNL     1     -42.959  56.314 -57.458  1.00  0.00     0.065 A 
HETATM   16  C   UNL     1     -42.682  57.657 -57.782  1.00  0.00     0.087 A 
HETATM   17  C   UNL     1     -42.813  58.121 -59.105  1.00  0.00    -0.028 A 
HETATM   18  C   UNL     1     -42.579  59.557 -59.488  1.00  0.00     0.051 C 
HETATM   19  C   UNL     1     -43.159  57.206 -60.111  1.00  0.00     0.009 A 
HETATM   20  C   UNL     1     -43.401  55.869 -59.807  1.00  0.00     0.002 A 
HETATM   21  C   UNL     1     -43.310  55.428 -58.488  1.00  0.00     0.020 A 
BRANCH  16  22
HETATM   22  O   UNL     1     -42.274  58.522 -56.796  1.00  0.00    -0.359 OA
HETATM   23  H   UNL     1     -42.644  58.225 -55.947  1.00  0.00     0.218 HD
ENDBRANCH  16  22
ENDBRANCH   1  15
TORSDOF 5
ENDMDL
MODEL 7
REMARK VINA RESULT:      -7.2      1.393      2.201
REMARK  5 active torsions:
REMARK  status: ('A' for Active; 'I' for Inactive)
REMARK    1  A    between atoms: C_3  and  O_4 
REMARK    2  A    between atoms: C_5  and  C_6 
REMARK       I    between atoms: C_6  and  N_7 
REMARK    3  A    between atoms: N_7  and  C_8 
REMARK    4  A    between atoms: C_8  and  C_9 
REMARK    5  A    between atoms: C_9  and  C_10 
ROOT
HETATM    1  C   UNL     1     -41.580  54.721 -51.102  1.00  0.00     0.254 C 
HETATM    2  N   UNL     1     -42.848  55.076 -51.494  1.00  0.00    -0.356 N 
HETATM    3  O   UNL     1     -40.990  55.295 -50.191  1.00  0.00    -0.268 OA
HETATM    4  H   UNL     1     -43.199  54.646 -52.348  1.00  0.00     0.162 HD
ENDROOT
BRANCH   2   5
HETATM    5  C   UNL     1     -43.542  56.214 -50.928  1.00  0.00     0.136 C 
BRANCH   5   6
HETATM    6  C   UNL     1     -43.558  57.459 -51.863  1.00  0.00    -0.004 C 
HETATM    7  C   UNL     1     -44.113  57.019 -53.239  1.00  0.00     0.021 C 
HETATM    8  C   UNL     1     -44.555  58.490 -51.285  1.00  0.00     0.021 C 
BRANCH   6   9
HETATM    9  C   UNL     1     -42.164  58.111 -51.938  1.00  0.00    -0.046 A 
HETATM   10  C   UNL     1     -41.375  58.088 -53.097  1.00  0.00     0.027 A 
HETATM   11  C   UNL     1     -40.121  58.687 -53.081  1.00  0.00     0.116 A 
HETATM   12  N   UNL     1     -39.591  59.302 -52.006  1.00  0.00    -0.273 NA
HETATM   13  C   UNL     1     -40.358  59.332 -50.899  1.00  0.00     0.116 A 
HETATM   14  C   UNL     1     -41.622  58.765 -50.820  1.00  0.00     0.027 A 
ENDBRANCH   6   9
ENDBRANCH   5   6
ENDBRANCH   2   5
BRANCH   1  15
HETATM   15  C   UNL     1     -40.934  53.580 -51.832  1.00  0.00     0.065 A 
HETATM   16  C   UNL     1     -40.417  52.424 -51.215  1.00  0.00     0.087 A 
HETATM   17  C   UNL     1     -39.770  51.429 -51.974  1.00  0.00    -0.028 A 
HETATM   18  C   UNL     1     -39.157  50.205 -51.352  1.00  0.00     0.051 C 
HETATM   19  C   UNL     1     -39.710  51.575 -53.368  1.00  0.00     0.009 A 
HETATM   20  C   UNL     1     -40.249  52.697 -53.992  1.00  0.00     0.002 A 
HETATM   21  C   UNL     1     -40.849  53.697 -53.228  1.00  0.00     0.020 A 
BRANCH  16  22
HETATM   22  O   UNL     1     -40.548  52.263 -49.857  1.00  0.00    -0.359 OA
HETATM   23  H   UNL     1     -39.759  52.628 -49.421  1.00  0.00     0.218 HD
ENDBRANCH  16  22
ENDBRANCH   1  15
TORSDOF 5
ENDMDL
MODEL 8
REMARK VINA RESULT:      -7.1      1.593      2.064
REMARK  5 active torsions:
REMARK  status: ('A' for Active; 'I' for Inactive)
REMARK    1  A    between atoms: C_3  and  O_4 
REMARK    2  A    between atoms: C_5  and  C_6 
REMARK       I    between atoms: C_6  and  N_7 
REMARK    3  A    between atoms: N_7  and  C_8 
REMARK    4  A    between atoms: C_8  and  C_9 
REMARK    5  A    between atoms: C_9  and  C_10 
ROOT
HETATM    1  C   UNL     1     -40.610  53.826 -53.402  1.00  0.00     0.254 C 
HETATM    2  N   UNL     1     -41.417  54.375 -52.435  1.00  0.00    -0.356 N 
HETATM    3  O   UNL     1     -40.164  54.486 -54.337  1.00  0.00    -0.268 OA
HETATM    4  H   UNL     1     -41.858  53.727 -51.785  1.00  0.00     0.162 HD
ENDROOT
BRANCH   2   5
HETATM    5  C   UNL     1     -41.877  55.747 -52.499  1.00  0.00     0.136 C 
BRANCH   5   6
HETATM    6  C   UNL     1     -42.498  56.256 -51.165  1.00  0.00    -0.004 C 
HETATM    7  C   UNL     1     -43.471  55.171 -50.644  1.00  0.00     0.021 C 
HETATM    8  C   UNL     1     -41.367  56.385 -50.119  1.00  0.00     0.021 C 
BRANCH   6   9
HETATM    9  C   UNL     1     -43.156  57.637 -51.353  1.00  0.00    -0.046 A 
HETATM   10  C   UNL     1     -42.425  58.832 -51.360  1.00  0.00     0.027 A 
HETATM   11  C   UNL     1     -43.093  60.041 -51.521  1.00  0.00     0.116 A 
HETATM   12  N   UNL     1     -44.427  60.152 -51.671  1.00  0.00    -0.273 NA
HETATM   13  C   UNL     1     -45.124  58.998 -51.676  1.00  0.00     0.116 A 
HETATM   14  C   UNL     1     -44.546  57.746 -51.525  1.00  0.00     0.027 A 
ENDBRANCH   6   9
ENDBRANCH   5   6
ENDBRANCH   2   5
BRANCH   1  15
HETATM   15  C   UNL     1     -40.281  52.368 -53.269  1.00  0.00     0.065 A 
HETATM   16  C   UNL     1     -39.966  51.726 -52.055  1.00  0.00     0.087 A 
HETATM   17  C   UNL     1     -39.607  50.364 -52.031  1.00  0.00    -0.028 A 
HETATM   18  C   UNL     1     -39.213  49.651 -50.767  1.00  0.00     0.051 C 
HETATM   19  C   UNL     1     -39.636  49.637 -53.231  1.00  0.00     0.009 A 
HETATM   20  C   UNL     1     -39.980  50.253 -54.431  1.00  0.00     0.002 A 
HETATM   21  C   UNL     1     -40.292  51.612 -54.451  1.00  0.00     0.020 A 
BRANCH  16  22
HETATM   22  O   UNL     1     -40.013  52.436 -50.880  1.00  0.00    -0.359 OA
HETATM   23  H   UNL     1     -40.170  53.373 -51.087  1.00  0.00     0.218 HD
ENDBRANCH  16  22
ENDBRANCH   1  15
TORSDOF 5
ENDMDL
MODEL 9
REMARK VINA RESULT:      -7.0      2.781      7.424
REMARK  5 active torsions:
REMARK  status: ('A' for Active; 'I' for Inactive)
REMARK    1  A    between atoms: C_3  and  O_4 
REMARK    2  A    between atoms: C_5  and  C_6 
REMARK       I    between atoms: C_6  and  N_7 
REMARK    3  A    between atoms: N_7  and  C_8 
REMARK    4  A    between atoms: C_8  and  C_9 
REMARK    5  A    between atoms: C_9  and  C_10 
ROOT
HETATM    1  C   UNL     1     -43.423  55.764 -52.205  1.00  0.00     0.254 C 
HETATM    2  N   UNL     1     -42.892  55.022 -53.232  1.00  0.00    -0.356 N 
HETATM    3  O   UNL     1     -43.428  55.367 -51.042  1.00  0.00    -0.268 OA
HETATM    4  H   UNL     1     -43.062  55.362 -54.177  1.00  0.00     0.162 HD
ENDROOT
BRANCH   2   5
HETATM    5  C   UNL     1     -42.387  53.679 -53.035  1.00  0.00     0.136 C 
BRANCH   5   6
HETATM    6  C   UNL     1     -40.833  53.587 -53.092  1.00  0.00    -0.004 C 
HETATM    7  C   UNL     1     -40.343  54.462 -54.271  1.00  0.00     0.021 C 
HETATM    8  C   UNL     1     -40.259  54.212 -51.800  1.00  0.00     0.021 C 
BRANCH   6   9
HETATM    9  C   UNL     1     -40.370  52.119 -53.177  1.00  0.00    -0.046 A 
HETATM   10  C   UNL     1     -40.446  51.365 -54.356  1.00  0.00     0.027 A 
HETATM   11  C   UNL     1     -40.021  50.042 -54.349  1.00  0.00     0.116 A 
HETATM   12  N   UNL     1     -39.531  49.412 -53.264  1.00  0.00    -0.273 NA
HETATM   13  C   UNL     1     -39.449  50.144 -52.136  1.00  0.00     0.116 A 
HETATM   14  C   UNL     1     -39.846  51.471 -52.047  1.00  0.00     0.027 A 
ENDBRANCH   6   9
ENDBRANCH   5   6
ENDBRANCH   2   5
BRANCH   1  15
HETATM   15  C   UNL     1     -43.998  57.104 -52.558  1.00  0.00     0.065 A 
HETATM   16  C   UNL     1     -44.757  57.907 -51.683  1.00  0.00     0.087 A 
HETATM   17  C   UNL     1     -45.312  59.125 -52.120  1.00  0.00    -0.028 A 
HETATM   18  C   UNL     1     -46.172  59.988 -51.237  1.00  0.00     0.051 C 
HETATM   19  C   UNL     1     -45.038  59.564 -53.424  1.00  0.00     0.009 A 
HETATM   20  C   UNL     1     -44.259  58.796 -54.286  1.00  0.00     0.002 A 
HETATM   21  C   UNL     1     -43.751  57.570 -53.858  1.00  0.00     0.020 A 
BRANCH  16  22
HETATM   22  O   UNL     1     -44.956  57.497 -50.387  1.00  0.00    -0.359 OA
HETATM   23  H   UNL     1     -44.942  58.277 -49.806  1.00  0.00     0.218 HD
ENDBRANCH  16  22
ENDBRANCH   1  15
TORSDOF 5
ENDMDL
MODEL 10
REMARK VINA RESULT:      -7.0      4.296      6.555
REMARK  5 active torsions:
REMARK  status: ('A' for Active; 'I' for Inactive)
REMARK    1  A    between atoms: C_3  and  O_4 
REMARK    2  A    between atoms: C_5  and  C_6 
REMARK       I    between atoms: C_6  and  N_7 
REMARK    3  A    between atoms: N_7  and  C_8 
REMARK    4  A    between atoms: C_8  and  C_9 
REMARK    5  A    between atoms: C_9  and  C_10 
ROOT
HETATM    1  C   UNL     1     -42.094  56.892 -56.060  1.00  0.00     0.254 C 
HETATM    2  N   UNL     1     -41.354  55.820 -55.621  1.00  0.00    -0.356 N 
HETATM    3  O   UNL     1     -42.348  57.853 -55.338  1.00  0.00    -0.268 OA
HETATM    4  H   UNL     1     -41.318  55.008 -56.235  1.00  0.00     0.162 HD
ENDROOT
BRANCH   2   5
HETATM    5  C   UNL     1     -40.903  55.701 -54.250  1.00  0.00     0.136 C 
BRANCH   5   6
HETATM    6  C   UNL     1     -41.247  54.327 -53.601  1.00  0.00    -0.004 C 
HETATM    7  C   UNL     1     -42.714  53.983 -53.956  1.00  0.00     0.021 C 
HETATM    8  C   UNL     1     -40.360  53.243 -54.256  1.00  0.00     0.021 C 
BRANCH   6   9
HETATM    9  C   UNL     1     -40.965  54.346 -52.086  1.00  0.00    -0.046 A 
HETATM   10  C   UNL     1     -41.211  55.466 -51.281  1.00  0.00     0.027 A 
HETATM   11  C   UNL     1     -40.917  55.410 -49.924  1.00  0.00     0.116 A 
HETATM   12  N   UNL     1     -40.396  54.331 -49.308  1.00  0.00    -0.273 NA
HETATM   13  C   UNL     1     -40.172  53.252 -50.085  1.00  0.00     0.116 A 
HETATM   14  C   UNL     1     -40.435  53.214 -51.447  1.00  0.00     0.027 A 
ENDBRANCH   6   9
ENDBRANCH   5   6
ENDBRANCH   2   5
BRANCH   1  15
HETATM   15  C   UNL     1     -42.580  56.851 -57.478  1.00  0.00     0.065 A 
HETATM   16  C   UNL     1     -43.311  55.787 -58.045  1.00  0.00     0.087 A 
HETATM   17  C   UNL     1     -43.673  55.804 -59.406  1.00  0.00    -0.028 A 
HETATM   18  C   UNL     1     -44.406  54.669 -60.065  1.00  0.00     0.051 C 
HETATM   19  C   UNL     1     -43.354  56.934 -60.175  1.00  0.00     0.009 A 
HETATM   20  C   UNL     1     -42.663  58.006 -59.617  1.00  0.00     0.002 A 
HETATM   21  C   UNL     1     -42.271  57.960 -58.280  1.00  0.00     0.020 A 
BRANCH  16  22
HETATM   22  O   UNL     1     -43.677  54.722 -57.259  1.00  0.00    -0.359 OA
HETATM   23  H   UNL     1     -43.687  53.917 -57.806  1.00  0.00     0.218 HD
ENDBRANCH  16  22
ENDBRANCH   1  15
TORSDOF 5
ENDMDL
