MODEL 1
REMARK VINA RESULT:      -8.5      0.000      0.000
REMARK  9 active torsions:
REMARK  status: ('A' for Active; 'I' for Inactive)
REMARK    1  A    between atoms: C_2  and  O_3 
REMARK    2  A    between atoms: O_3  and  C_4 
REMARK    3  A    between atoms: C_7  and  N_8 
REMARK       I    between atoms: N_8  and  C_9 
REMARK    4  A    between atoms: C_9  and  C_10 
REMARK    5  A    between atoms: C_10  and  S_11 
REMARK    6  A    between atoms: S_11  and  C_12 
REMARK    7  A    between atoms: C_16  and  C_17 
REMARK       I    between atoms: C_17  and  N_18 
REMARK    8  A    between atoms: N_18  and  C_19 
REMARK    9  A    between atoms: C_27  and  C_28 
ROOT
HETATM    1  C   UNL     1     -43.203  59.378 -57.272  1.00  0.00     0.087 C 
HETATM    2  N   UNL     1     -43.952  58.923 -56.201  1.00  0.00    -0.353 N 
HETATM    3  C   UNL     1     -43.978  57.607 -55.788  1.00  0.00     0.019 C 
HETATM    4  C   UNL     1     -44.592  57.357 -54.432  1.00  0.00     0.069 C 
HETATM    5  C   UNL     1     -43.429  56.666 -56.591  1.00  0.00     0.046 C 
HETATM    6  C   UNL     1     -43.059  57.003 -58.042  1.00  0.00     0.104 C 
HETATM    7  C   UNL     1     -42.810  58.505 -58.233  1.00  0.00     0.055 C 
HETATM    8  C   UNL     1     -42.248  58.998 -59.556  1.00  0.00     0.019 C 
HETATM    9  N   UNL     1     -41.782  59.407 -60.654  1.00  0.00    -0.096 N 
HETATM   10  H   UNL     1     -44.225  59.638 -55.529  1.00  0.00     0.166 HD
ENDROOT
BRANCH   1  11
HETATM   11  S   UNL     1     -42.657  61.050 -57.262  1.00  0.00    -0.102 SA
BRANCH  11  12
HETATM   12  C   UNL     1     -43.886  61.626 -56.037  1.00  0.00     0.184 C 
BRANCH  12  13
HETATM   13  C   UNL     1     -43.662  61.098 -54.638  1.00  0.00     0.231 C 
HETATM   14  N   UNL     1     -42.345  60.803 -54.352  1.00  0.00    -0.327 N 
HETATM   15  H   UNL     1     -41.646  61.251 -54.934  1.00  0.00     0.169 HD
HETATM   16  O   UNL     1     -44.629  60.876 -53.912  1.00  0.00    -0.272 OA
BRANCH  14  17
HETATM   17  C   UNL     1     -41.875  59.985 -53.306  1.00  0.00     0.034 A 
HETATM   18  C   UNL     1     -42.037  60.292 -51.954  1.00  0.00     0.032 A 
HETATM   19  C   UNL     1     -41.619  59.391 -50.971  1.00  0.00     0.039 A 
HETATM   20  C   UNL     1     -41.032  58.174 -51.319  1.00  0.00     0.068 A 
HETATM   21  C   UNL     1     -40.846  57.875 -52.667  1.00  0.00     0.039 A 
HETATM   22  C   UNL     1     -41.273  58.771 -53.654  1.00  0.00     0.032 A 
BRANCH  20  23
HETATM   23  O   UNL     1     -40.696  57.380 -50.261  1.00  0.00    -0.352 OA
BRANCH  23  24
HETATM   24  C   UNL     1     -41.504  56.225 -50.037  1.00  0.00     0.171 C 
HETATM   25  C   UNL     1     -40.622  55.152 -49.424  1.00  0.00     0.034 C 
ENDBRANCH  23  24
ENDBRANCH  20  23
ENDBRANCH  14  17
ENDBRANCH  12  13
ENDBRANCH  11  12
ENDBRANCH   1  11
BRANCH   6  26
HETATM   26  C   UNL     1     -44.106  56.462 -59.014  1.00  0.00    -0.042 A 
HETATM   27  C   UNL     1     -43.834  55.401 -59.887  1.00  0.00     0.027 A 
HETATM   28  C   UNL     1     -44.827  54.978 -60.759  1.00  0.00     0.116 A 
HETATM   29  N   UNL     1     -46.050  55.541 -60.835  1.00  0.00    -0.273 NA
HETATM   30  C   UNL     1     -46.289  56.576 -60.005  1.00  0.00     0.116 A 
HETATM   31  C   UNL     1     -45.368  57.063 -59.090  1.00  0.00     0.027 A 
ENDBRANCH   6  26
BRANCH   5  32
HETATM   32  C   UNL     1     -43.021  55.321 -56.080  1.00  0.00     0.255 C 
HETATM   33  N   UNL     1     -41.959  55.412 -55.196  1.00  0.00    -0.323 N 
HETATM   34  H   UNL     1     -41.601  56.338 -55.009  1.00  0.00     0.169 HD
HETATM   35  O   UNL     1     -43.533  54.302 -56.518  1.00  0.00    -0.268 OA
BRANCH  33  36
HETATM   36  C   UNL     1     -41.317  54.379 -54.488  1.00  0.00     0.035 A 
HETATM   37  C   UNL     1     -40.403  53.490 -55.054  1.00  0.00     0.031 A 
HETATM   38  C   UNL     1     -39.817  52.490 -54.268  1.00  0.00     0.026 A 
HETATM   39  C   UNL     1     -40.151  52.372 -52.920  1.00  0.00     0.034 A 
HETATM   40 CL   UNL     1     -39.434  51.139 -51.960  1.00  0.00    -0.084 Cl
HETATM   41  C   UNL     1     -41.064  53.250 -52.346  1.00  0.00     0.026 A 
HETATM   42  C   UNL     1     -41.640  54.254 -53.128  1.00  0.00     0.031 A 
ENDBRANCH  33  36
ENDBRANCH   5  32
TORSDOF 9
ENDMDL
MODEL 2
REMARK VINA RESULT:      -8.0      3.028      6.928
REMARK  9 active torsions:
REMARK  status: ('A' for Active; 'I' for Inactive)
REMARK    1  A    between atoms: C_2  and  O_3 
REMARK    2  A    between atoms: O_3  and  C_4 
REMARK    3  A    between atoms: C_7  and  N_8 
REMARK       I    between atoms: N_8  and  C_9 
REMARK    4  A    between atoms: C_9  and  C_10 
REMARK    5  A    between atoms: C_10  and  S_11 
REMARK    6  A    between atoms: S_11  and  C_12 
REMARK    7  A    between atoms: C_16  and  C_17 
REMARK       I    between atoms: C_17  and  N_18 
REMARK    8  A    between atoms: N_18  and  C_19 
REMARK    9  A    between atoms: C_27  and  C_28 
ROOT
HETATM    1  C   UNL     1     -44.362  58.492 -55.392  1.00  0.00     0.087 C 
HETATM    2  N   UNL     1     -43.569  57.640 -56.141  1.00  0.00    -0.353 N 
HETATM    3  C   UNL     1     -42.980  56.498 -55.637  1.00  0.00     0.019 C 
HETATM    4  C   UNL     1     -42.421  55.542 -56.661  1.00  0.00     0.069 C 
HETATM    5  C   UNL     1     -42.983  56.308 -54.297  1.00  0.00     0.046 C 
HETATM    6  C   UNL     1     -43.359  57.455 -53.349  1.00  0.00     0.104 C 
HETATM    7  C   UNL     1     -44.246  58.499 -54.041  1.00  0.00     0.055 C 
HETATM    8  C   UNL     1     -44.871  59.605 -53.207  1.00  0.00     0.019 C 
HETATM    9  N   UNL     1     -45.390  60.522 -52.516  1.00  0.00    -0.096 N 
HETATM   10  H   UNL     1     -43.699  57.702 -57.150  1.00  0.00     0.166 HD
ENDROOT
BRANCH   1  11
HETATM   11  S   UNL     1     -45.605  59.422 -56.219  1.00  0.00    -0.102 SA
BRANCH  11  12
HETATM   12  C   UNL     1     -45.097  58.929 -57.905  1.00  0.00     0.184 C 
BRANCH  12  13
HETATM   13  C   UNL     1     -44.417  60.025 -58.694  1.00  0.00     0.231 C 
HETATM   14  N   UNL     1     -43.100  59.759 -59.007  1.00  0.00    -0.327 N 
HETATM   15  H   UNL     1     -42.820  58.784 -58.986  1.00  0.00     0.169 HD
HETATM   16  O   UNL     1     -45.015  61.078 -58.907  1.00  0.00    -0.272 OA
BRANCH  14  17
HETATM   17  C   UNL     1     -42.124  60.695 -59.401  1.00  0.00     0.034 A 
HETATM   18  C   UNL     1     -41.995  61.172 -60.706  1.00  0.00     0.032 A 
HETATM   19  C   UNL     1     -41.057  62.163 -61.006  1.00  0.00     0.039 A 
HETATM   20  C   UNL     1     -40.234  62.693 -60.011  1.00  0.00     0.068 A 
HETATM   21  C   UNL     1     -40.343  62.202 -58.711  1.00  0.00     0.039 A 
HETATM   22  C   UNL     1     -41.289  61.215 -58.407  1.00  0.00     0.032 A 
BRANCH  20  23
HETATM   23  O   UNL     1     -39.384  63.673 -60.436  1.00  0.00    -0.352 OA
BRANCH  23  24
HETATM   24  C   UNL     1     -39.538  64.125 -61.780  1.00  0.00     0.171 C 
HETATM   25  C   UNL     1     -38.282  63.750 -62.545  1.00  0.00     0.034 C 
ENDBRANCH  23  24
ENDBRANCH  20  23
ENDBRANCH  14  17
ENDBRANCH  12  13
ENDBRANCH  11  12
ENDBRANCH   1  11
BRANCH   6  26
HETATM   26  C   UNL     1     -42.112  58.079 -52.725  1.00  0.00    -0.042 A 
HETATM   27  C   UNL     1     -40.960  58.352 -53.475  1.00  0.00     0.027 A 
HETATM   28  C   UNL     1     -39.856  58.897 -52.835  1.00  0.00     0.116 A 
HETATM   29  N   UNL     1     -39.812  59.170 -51.515  1.00  0.00    -0.273 NA
HETATM   30  C   UNL     1     -40.919  58.880 -50.802  1.00  0.00     0.116 A 
HETATM   31  C   UNL     1     -42.075  58.347 -51.351  1.00  0.00     0.027 A 
ENDBRANCH   6  26
BRANCH   5  32
HETATM   32  C   UNL     1     -42.775  54.960 -53.684  1.00  0.00     0.255 C 
HETATM   33  N   UNL     1     -41.429  54.652 -53.572  1.00  0.00    -0.323 N 
HETATM   34  H   UNL     1     -40.775  55.348 -53.904  1.00  0.00     0.169 HD
HETATM   35  O   UNL     1     -43.722  54.228 -53.440  1.00  0.00    -0.268 OA
BRANCH  33  36
HETATM   36  C   UNL     1     -40.835  53.500 -53.025  1.00  0.00     0.035 A 
HETATM   37  C   UNL     1     -40.358  52.429 -53.780  1.00  0.00     0.031 A 
HETATM   38  C   UNL     1     -39.784  51.322 -53.144  1.00  0.00     0.026 A 
HETATM   39  C   UNL     1     -39.696  51.279 -51.755  1.00  0.00     0.034 A 
HETATM   40 CL   UNL     1     -38.997  49.913 -50.977  1.00  0.00    -0.084 Cl
HETATM   41  C   UNL     1     -40.173  52.339 -50.990  1.00  0.00     0.026 A 
HETATM   42  C   UNL     1     -40.735  53.448 -51.626  1.00  0.00     0.031 A 
ENDBRANCH  33  36
ENDBRANCH   5  32
TORSDOF 9
ENDMDL
MODEL 3
REMARK VINA RESULT:      -7.9      2.747      4.213
REMARK  9 active torsions:
REMARK  status: ('A' for Active; 'I' for Inactive)
REMARK    1  A    between atoms: C_2  and  O_3 
REMARK    2  A    between atoms: O_3  and  C_4 
REMARK    3  A    between atoms: C_7  and  N_8 
REMARK       I    between atoms: N_8  and  C_9 
REMARK    4  A    between atoms: C_9  and  C_10 
REMARK    5  A    between atoms: C_10  and  S_11 
REMARK    6  A    between atoms: S_11  and  C_12 
REMARK    7  A    between atoms: C_16  and  C_17 
REMARK       I    between atoms: C_17  and  N_18 
REMARK    8  A    between atoms: N_18  and  C_19 
REMARK    9  A    between atoms: C_27  and  C_28 
ROOT
HETATM    1  C   UNL     1     -45.318  61.044 -54.494  1.00  0.00     0.087 C 
HETATM    2  N   UNL     1     -45.951  60.045 -55.214  1.00  0.00    -0.353 N 
HETATM    3  C   UNL     1     -45.284  59.005 -55.832  1.00  0.00     0.019 C 
HETATM    4  C   UNL     1     -46.147  57.857 -56.294  1.00  0.00     0.069 C 
HETATM    5  C   UNL     1     -43.937  59.074 -55.939  1.00  0.00     0.046 C 
HETATM    6  C   UNL     1     -43.201  60.391 -55.655  1.00  0.00     0.104 C 
HETATM    7  C   UNL     1     -44.007  61.306 -54.724  1.00  0.00     0.055 C 
HETATM    8  C   UNL     1     -43.355  62.567 -54.182  1.00  0.00     0.019 C 
HETATM    9  N   UNL     1     -42.814  63.612 -53.732  1.00  0.00    -0.096 N 
HETATM   10  H   UNL     1     -46.938  59.916 -55.001  1.00  0.00     0.166 HD
ENDROOT
BRANCH   1  11
HETATM   11  S   UNL     1     -46.206  61.830 -53.196  1.00  0.00    -0.102 SA
BRANCH  11  12
HETATM   12  C   UNL     1     -46.322  60.343 -52.140  1.00  0.00     0.184 C 
BRANCH  12  13
HETATM   13  C   UNL     1     -44.996  59.864 -51.594  1.00  0.00     0.231 C 
HETATM   14  N   UNL     1     -44.546  58.690 -52.161  1.00  0.00    -0.327 N 
HETATM   15  H   UNL     1     -44.936  58.446 -53.065  1.00  0.00     0.169 HD
HETATM   16  O   UNL     1     -44.476  60.462 -50.654  1.00  0.00    -0.272 OA
BRANCH  14  17
HETATM   17  C   UNL     1     -43.565  57.825 -51.635  1.00  0.00     0.034 A 
HETATM   18  C   UNL     1     -43.850  56.566 -51.106  1.00  0.00     0.032 A 
HETATM   19  C   UNL     1     -42.816  55.729 -50.679  1.00  0.00     0.039 A 
HETATM   20  C   UNL     1     -41.484  56.135 -50.772  1.00  0.00     0.068 A 
HETATM   21  C   UNL     1     -41.196  57.402 -51.277  1.00  0.00     0.039 A 
HETATM   22  C   UNL     1     -42.231  58.238 -51.714  1.00  0.00     0.032 A 
BRANCH  20  23
HETATM   23  O   UNL     1     -40.575  55.210 -50.345  1.00  0.00    -0.352 OA
BRANCH  23  24
HETATM   24  C   UNL     1     -41.067  53.899 -50.069  1.00  0.00     0.171 C 
HETATM   25  C   UNL     1     -40.264  52.916 -50.902  1.00  0.00     0.034 C 
ENDBRANCH  23  24
ENDBRANCH  20  23
ENDBRANCH  14  17
ENDBRANCH  12  13
ENDBRANCH  11  12
ENDBRANCH   1  11
BRANCH   6  26
HETATM   26  C   UNL     1     -42.810  61.090 -56.956  1.00  0.00    -0.042 A 
HETATM   27  C   UNL     1     -43.739  61.801 -57.728  1.00  0.00     0.027 A 
HETATM   28  C   UNL     1     -43.318  62.390 -58.911  1.00  0.00     0.116 A 
HETATM   29  N   UNL     1     -42.058  62.310 -59.383  1.00  0.00    -0.273 NA
HETATM   30  C   UNL     1     -41.180  61.604 -58.641  1.00  0.00     0.116 A 
HETATM   31  C   UNL     1     -41.501  60.989 -57.440  1.00  0.00     0.027 A 
ENDBRANCH   6  26
BRANCH   5  32
HETATM   32  C   UNL     1     -43.095  57.864 -56.185  1.00  0.00     0.255 C 
HETATM   33  N   UNL     1     -42.907  57.128 -55.026  1.00  0.00    -0.323 N 
HETATM   34  H   UNL     1     -43.345  57.482 -54.188  1.00  0.00     0.169 HD
HETATM   35  O   UNL     1     -42.576  57.671 -57.274  1.00  0.00    -0.268 OA
BRANCH  33  36
HETATM   36  C   UNL     1     -42.205  55.920 -54.858  1.00  0.00     0.035 A 
HETATM   37  C   UNL     1     -40.817  55.827 -54.760  1.00  0.00     0.031 A 
HETATM   38  C   UNL     1     -40.207  54.577 -54.598  1.00  0.00     0.026 A 
HETATM   39  C   UNL     1     -40.982  53.421 -54.543  1.00  0.00     0.034 A 
HETATM   40 CL   UNL     1     -40.228  51.887 -54.350  1.00  0.00    -0.084 Cl
HETATM   41  C   UNL     1     -42.366  53.500 -54.645  1.00  0.00     0.026 A 
HETATM   42  C   UNL     1     -42.975  54.749 -54.797  1.00  0.00     0.031 A 
ENDBRANCH  33  36
ENDBRANCH   5  32
TORSDOF 9
ENDMDL
MODEL 4
REMARK VINA RESULT:      -7.8      3.284      8.415
REMARK  9 active torsions:
REMARK  status: ('A' for Active; 'I' for Inactive)
REMARK    1  A    between atoms: C_2  and  O_3 
REMARK    2  A    between atoms: O_3  and  C_4 
REMARK    3  A    between atoms: C_7  and  N_8 
REMARK       I    between atoms: N_8  and  C_9 
REMARK    4  A    between atoms: C_9  and  C_10 
REMARK    5  A    between atoms: C_10  and  S_11 
REMARK    6  A    between atoms: S_11  and  C_12 
REMARK    7  A    between atoms: C_16  and  C_17 
REMARK       I    between atoms: C_17  and  N_18 
REMARK    8  A    between atoms: N_18  and  C_19 
REMARK    9  A    between atoms: C_27  and  C_28 
ROOT
HETATM    1  C   UNL     1     -43.938  58.357 -55.309  1.00  0.00     0.087 C 
HETATM    2  N   UNL     1     -43.149  57.418 -55.950  1.00  0.00    -0.353 N 
HETATM    3  C   UNL     1     -42.638  56.295 -55.331  1.00  0.00     0.019 C 
HETATM    4  C   UNL     1     -42.075  55.239 -56.250  1.00  0.00     0.069 C 
HETATM    5  C   UNL     1     -42.713  56.209 -53.982  1.00  0.00     0.046 C 
HETATM    6  C   UNL     1     -43.080  57.442 -53.145  1.00  0.00     0.104 C 
HETATM    7  C   UNL     1     -43.885  58.465 -53.958  1.00  0.00     0.055 C 
HETATM    8  C   UNL     1     -44.498  59.658 -53.243  1.00  0.00     0.019 C 
HETATM    9  N   UNL     1     -45.006  60.648 -52.652  1.00  0.00    -0.096 N 
HETATM   10  H   UNL     1     -43.228  57.405 -56.965  1.00  0.00     0.166 HD
ENDROOT
BRANCH   1  11
HETATM   11  S   UNL     1     -45.095  59.271 -56.266  1.00  0.00    -0.102 SA
BRANCH  11  12
HETATM   12  C   UNL     1     -44.951  58.225 -57.759  1.00  0.00     0.184 C 
BRANCH  12  13
HETATM   13  C   UNL     1     -46.262  57.971 -58.468  1.00  0.00     0.231 C 
HETATM   14  N   UNL     1     -46.136  57.759 -59.825  1.00  0.00    -0.327 N 
HETATM   15  H   UNL     1     -45.221  57.469 -60.153  1.00  0.00     0.169 HD
HETATM   16  O   UNL     1     -47.318  58.069 -57.844  1.00  0.00    -0.272 OA
BRANCH  14  17
HETATM   17  C   UNL     1     -47.159  57.853 -60.789  1.00  0.00     0.034 A 
HETATM   18  C   UNL     1     -47.768  56.744 -61.379  1.00  0.00     0.032 A 
HETATM   19  C   UNL     1     -48.834  56.913 -62.266  1.00  0.00     0.039 A 
HETATM   20  C   UNL     1     -49.308  58.187 -62.579  1.00  0.00     0.068 A 
HETATM   21  C   UNL     1     -48.687  59.298 -62.012  1.00  0.00     0.039 A 
HETATM   22  C   UNL     1     -47.624  59.131 -61.115  1.00  0.00     0.032 A 
BRANCH  20  23
HETATM   23  O   UNL     1     -50.371  58.206 -63.437  1.00  0.00    -0.352 OA
BRANCH  23  24
HETATM   24  C   UNL     1     -51.532  58.918 -63.013  1.00  0.00     0.171 C 
HETATM   25  C   UNL     1     -51.872  59.935 -64.087  1.00  0.00     0.034 C 
ENDBRANCH  23  24
ENDBRANCH  20  23
ENDBRANCH  14  17
ENDBRANCH  12  13
ENDBRANCH  11  12
ENDBRANCH   1  11
BRANCH   6  26
HETATM   26  C   UNL     1     -41.838  58.060 -52.507  1.00  0.00    -0.042 A 
HETATM   27  C   UNL     1     -41.761  58.329 -51.134  1.00  0.00     0.027 A 
HETATM   28  C   UNL     1     -40.610  58.914 -50.627  1.00  0.00     0.116 A 
HETATM   29  N   UNL     1     -39.548  59.261 -51.383  1.00  0.00    -0.273 NA
HETATM   30  C   UNL     1     -39.645  59.016 -52.706  1.00  0.00     0.116 A 
HETATM   31  C   UNL     1     -40.747  58.425 -53.305  1.00  0.00     0.027 A 
ENDBRANCH   6  26
BRANCH   5  32
HETATM   32  C   UNL     1     -42.596  54.906 -53.259  1.00  0.00     0.255 C 
HETATM   33  N   UNL     1     -41.275  54.503 -53.143  1.00  0.00    -0.323 N 
HETATM   34  H   UNL     1     -40.578  55.114 -53.544  1.00  0.00     0.169 HD
HETATM   35  O   UNL     1     -43.591  54.275 -52.937  1.00  0.00    -0.268 OA
BRANCH  33  36
HETATM   36  C   UNL     1     -40.760  53.358 -52.509  1.00  0.00     0.035 A 
HETATM   37  C   UNL     1     -40.752  53.163 -51.128  1.00  0.00     0.031 A 
HETATM   38  C   UNL     1     -40.213  51.990 -50.587  1.00  0.00     0.026 A 
HETATM   39  C   UNL     1     -39.673  51.016 -51.425  1.00  0.00     0.034 A 
HETATM   40 CL   UNL     1     -39.005  49.578 -50.756  1.00  0.00    -0.084 Cl
HETATM   41  C   UNL     1     -39.670  51.201 -52.803  1.00  0.00     0.026 A 
HETATM   42  C   UNL     1     -40.218  52.368 -53.342  1.00  0.00     0.031 A 
ENDBRANCH  33  36
ENDBRANCH   5  32
TORSDOF 9
ENDMDL
MODEL 5
REMARK VINA RESULT:      -7.8      2.660      7.017
REMARK  9 active torsions:
REMARK  status: ('A' for Active; 'I' for Inactive)
REMARK    1  A    between atoms: C_2  and  O_3 
REMARK    2  A    between atoms: O_3  and  C_4 
REMARK    3  A    between atoms: C_7  and  N_8 
REMARK       I    between atoms: N_8  and  C_9 
REMARK    4  A    between atoms: C_9  and  C_10 
REMARK    5  A    between atoms: C_10  and  S_11 
REMARK    6  A    between atoms: S_11  and  C_12 
REMARK    7  A    between atoms: C_16  and  C_17 
REMARK       I    between atoms: C_17  and  N_18 
REMARK    8  A    between atoms: N_18  and  C_19 
REMARK    9  A    between atoms: C_27  and  C_28 
ROOT
HETATM    1  C   UNL     1     -44.708  59.360 -52.652  1.00  0.00     0.087 C 
HETATM    2  N   UNL     1     -44.510  58.387 -53.617  1.00  0.00    -0.353 N 
HETATM    3  C   UNL     1     -43.913  57.168 -53.365  1.00  0.00     0.019 C 
HETATM    4  C   UNL     1     -44.065  56.128 -54.448  1.00  0.00     0.069 C 
HETATM    5  C   UNL     1     -43.286  56.988 -52.180  1.00  0.00     0.046 C 
HETATM    6  C   UNL     1     -42.987  58.186 -51.269  1.00  0.00     0.104 C 
HETATM    7  C   UNL     1     -43.945  59.355 -51.531  1.00  0.00     0.055 C 
HETATM    8  C   UNL     1     -43.922  60.553 -50.595  1.00  0.00     0.019 C 
HETATM    9  N   UNL     1     -43.904  61.546 -49.820  1.00  0.00    -0.096 N 
HETATM   10  H   UNL     1     -45.107  58.463 -54.438  1.00  0.00     0.166 HD
ENDROOT
BRANCH   1  11
HETATM   11  S   UNL     1     -46.054  60.473 -52.852  1.00  0.00    -0.102 SA
BRANCH  11  12
HETATM   12  C   UNL     1     -45.200  61.567 -54.042  1.00  0.00     0.184 C 
BRANCH  12  13
HETATM   13  C   UNL     1     -44.942  60.933 -55.391  1.00  0.00     0.231 C 
HETATM   14  N   UNL     1     -46.047  60.323 -55.947  1.00  0.00    -0.327 N 
HETATM   15  H   UNL     1     -46.951  60.623 -55.598  1.00  0.00     0.169 HD
HETATM   16  O   UNL     1     -43.797  60.910 -55.840  1.00  0.00    -0.272 OA
BRANCH  14  17
HETATM   17  C   UNL     1     -46.047  59.368 -56.982  1.00  0.00     0.034 A 
HETATM   18  C   UNL     1     -47.085  59.231 -57.906  1.00  0.00     0.032 A 
HETATM   19  C   UNL     1     -46.977  58.316 -58.957  1.00  0.00     0.039 A 
HETATM   20  C   UNL     1     -45.838  57.525 -59.102  1.00  0.00     0.068 A 
HETATM   21  C   UNL     1     -44.810  57.640 -58.168  1.00  0.00     0.039 A 
HETATM   22  C   UNL     1     -44.911  58.563 -57.119  1.00  0.00     0.032 A 
BRANCH  20  23
HETATM   23  O   UNL     1     -45.854  56.695 -60.187  1.00  0.00    -0.352 OA
BRANCH  23  24
HETATM   24  C   UNL     1     -44.636  56.025 -60.507  1.00  0.00     0.171 C 
HETATM   25  C   UNL     1     -44.783  54.571 -60.096  1.00  0.00     0.034 C 
ENDBRANCH  23  24
ENDBRANCH  20  23
ENDBRANCH  14  17
ENDBRANCH  12  13
ENDBRANCH  11  12
ENDBRANCH   1  11
BRANCH   6  26
HETATM   26  C   UNL     1     -41.521  58.604 -51.378  1.00  0.00    -0.042 A 
HETATM   27  C   UNL     1     -40.801  59.088 -50.278  1.00  0.00     0.027 A 
HETATM   28  C   UNL     1     -39.480  59.472 -50.457  1.00  0.00     0.116 A 
HETATM   29  N   UNL     1     -38.838  59.425 -51.642  1.00  0.00    -0.273 NA
HETATM   30  C   UNL     1     -39.550  58.978 -52.697  1.00  0.00     0.116 A 
HETATM   31  C   UNL     1     -40.870  58.560 -52.617  1.00  0.00     0.027 A 
ENDBRANCH   6  26
BRANCH   5  32
HETATM   32  C   UNL     1     -42.992  55.628 -51.633  1.00  0.00     0.255 C 
HETATM   33  N   UNL     1     -41.787  55.136 -52.108  1.00  0.00    -0.323 N 
HETATM   34  H   UNL     1     -41.271  55.732 -52.740  1.00  0.00     0.169 HD
HETATM   35  O   UNL     1     -43.811  55.037 -50.946  1.00  0.00    -0.268 OA
BRANCH  33  36
HETATM   36  C   UNL     1     -41.157  53.915 -51.803  1.00  0.00     0.035 A 
HETATM   37  C   UNL     1     -41.037  53.394 -50.515  1.00  0.00     0.031 A 
HETATM   38  C   UNL     1     -40.389  52.170 -50.310  1.00  0.00     0.026 A 
HETATM   39  C   UNL     1     -39.851  51.473 -51.389  1.00  0.00     0.034 A 
HETATM   40 CL   UNL     1     -39.049  49.973 -51.132  1.00  0.00    -0.084 Cl
HETATM   41  C   UNL     1     -39.959  51.985 -52.678  1.00  0.00     0.026 A 
HETATM   42  C   UNL     1     -40.616  53.200 -52.883  1.00  0.00     0.031 A 
ENDBRANCH  33  36
ENDBRANCH   5  32
TORSDOF 9
ENDMDL
MODEL 6
REMARK VINA RESULT:      -7.5      2.535      3.099
REMARK  9 active torsions:
REMARK  status: ('A' for Active; 'I' for Inactive)
REMARK    1  A    between atoms: C_2  and  O_3 
REMARK    2  A    between atoms: O_3  and  C_4 
REMARK    3  A    between atoms: C_7  and  N_8 
REMARK       I    between atoms: N_8  and  C_9 
REMARK    4  A    between atoms: C_9  and  C_10 
REMARK    5  A    between atoms: C_10  and  S_11 
REMARK    6  A    between atoms: S_11  and  C_12 
REMARK    7  A    between atoms: C_16  and  C_17 
REMARK       I    between atoms: C_17  and  N_18 
REMARK    8  A    between atoms: N_18  and  C_19 
REMARK    9  A    between atoms: C_27  and  C_28 
ROOT
HETATM    1  C   UNL     1     -43.215  59.460 -55.912  1.00  0.00     0.087 C 
HETATM    2  N   UNL     1     -44.048  58.775 -55.044  1.00  0.00    -0.353 N 
HETATM    3  C   UNL     1     -44.006  57.407 -54.861  1.00  0.00     0.019 C 
HETATM    4  C   UNL     1     -44.759  56.883 -53.664  1.00  0.00     0.069 C 
HETATM    5  C   UNL     1     -43.279  56.661 -55.726  1.00  0.00     0.046 C 
HETATM    6  C   UNL     1     -42.763  57.272 -57.035  1.00  0.00     0.104 C 
HETATM    7  C   UNL     1     -42.628  58.797 -56.940  1.00  0.00     0.055 C 
HETATM    8  C   UNL     1     -41.953  59.551 -58.073  1.00  0.00     0.019 C 
HETATM    9  N   UNL     1     -41.393  60.177 -59.013  1.00  0.00    -0.096 N 
HETATM   10  H   UNL     1     -44.465  59.340 -54.307  1.00  0.00     0.166 HD
ENDROOT
BRANCH   1  11
HETATM   11  S   UNL     1     -42.827  61.137 -55.550  1.00  0.00    -0.102 SA
BRANCH  11  12
HETATM   12  C   UNL     1     -44.535  61.617 -55.107  1.00  0.00     0.184 C 
BRANCH  12  13
HETATM   13  C   UNL     1     -44.673  62.213 -53.724  1.00  0.00     0.231 C 
HETATM   14  N   UNL     1     -44.007  61.511 -52.741  1.00  0.00    -0.327 N 
HETATM   15  H   UNL     1     -43.257  60.902 -53.050  1.00  0.00     0.169 HD
HETATM   16  O   UNL     1     -45.417  63.176 -53.550  1.00  0.00    -0.272 OA
BRANCH  14  17
HETATM   17  C   UNL     1     -44.228  61.595 -51.352  1.00  0.00     0.034 A 
HETATM   18  C   UNL     1     -43.740  62.630 -50.554  1.00  0.00     0.032 A 
HETATM   19  C   UNL     1     -44.071  62.692 -49.198  1.00  0.00     0.039 A 
HETATM   20  C   UNL     1     -44.890  61.723 -48.617  1.00  0.00     0.068 A 
HETATM   21  C   UNL     1     -45.359  60.673 -49.405  1.00  0.00     0.039 A 
HETATM   22  C   UNL     1     -45.037  60.615 -50.766  1.00  0.00     0.032 A 
BRANCH  20  23
HETATM   23  O   UNL     1     -45.155  61.919 -47.292  1.00  0.00    -0.352 OA
BRANCH  23  24
HETATM   24  C   UNL     1     -45.265  60.755 -46.475  1.00  0.00     0.171 C 
HETATM   25  C   UNL     1     -44.627  61.066 -45.133  1.00  0.00     0.034 C 
ENDBRANCH  23  24
ENDBRANCH  20  23
ENDBRANCH  14  17
ENDBRANCH  12  13
ENDBRANCH  11  12
ENDBRANCH   1  11
BRANCH   6  26
HETATM   26  C   UNL     1     -43.628  56.841 -58.218  1.00  0.00    -0.042 A 
HETATM   27  C   UNL     1     -44.898  57.386 -58.450  1.00  0.00     0.027 A 
HETATM   28  C   UNL     1     -45.638  56.929 -59.530  1.00  0.00     0.116 A 
HETATM   29  N   UNL     1     -45.216  55.968 -60.377  1.00  0.00    -0.273 NA
HETATM   30  C   UNL     1     -44.002  55.436 -60.128  1.00  0.00     0.116 A 
HETATM   31  C   UNL     1     -43.182  55.834 -59.083  1.00  0.00     0.027 A 
ENDBRANCH   6  26
BRANCH   5  32
HETATM   32  C   UNL     1     -42.818  55.278 -55.392  1.00  0.00     0.255 C 
HETATM   33  N   UNL     1     -41.833  55.289 -54.419  1.00  0.00    -0.323 N 
HETATM   34  H   UNL     1     -41.555  56.193 -54.064  1.00  0.00     0.169 HD
HETATM   35  O   UNL     1     -43.225  54.313 -56.020  1.00  0.00    -0.268 OA
BRANCH  33  36
HETATM   36  C   UNL     1     -41.175  54.196 -53.824  1.00  0.00     0.035 A 
HETATM   37  C   UNL     1     -40.484  53.215 -54.535  1.00  0.00     0.031 A 
HETATM   38  C   UNL     1     -39.863  52.161 -53.854  1.00  0.00     0.026 A 
HETATM   39  C   UNL     1     -39.941  52.081 -52.465  1.00  0.00     0.034 A 
HETATM   40 CL   UNL     1     -39.182  50.781 -51.633  1.00  0.00    -0.084 Cl
HETATM   41  C   UNL     1     -40.631  53.051 -51.746  1.00  0.00     0.026 A 
HETATM   42  C   UNL     1     -41.241  54.108 -52.425  1.00  0.00     0.031 A 
ENDBRANCH  33  36
ENDBRANCH   5  32
TORSDOF 9
ENDMDL
MODEL 7
REMARK VINA RESULT:      -7.4      2.624      7.520
REMARK  9 active torsions:
REMARK  status: ('A' for Active; 'I' for Inactive)
REMARK    1  A    between atoms: C_2  and  O_3 
REMARK    2  A    between atoms: O_3  and  C_4 
REMARK    3  A    between atoms: C_7  and  N_8 
REMARK       I    between atoms: N_8  and  C_9 
REMARK    4  A    between atoms: C_9  and  C_10 
REMARK    5  A    between atoms: C_10  and  S_11 
REMARK    6  A    between atoms: S_11  and  C_12 
REMARK    7  A    between atoms: C_16  and  C_17 
REMARK       I    between atoms: C_17  and  N_18 
REMARK    8  A    between atoms: N_18  and  C_19 
REMARK    9  A    between atoms: C_27  and  C_28 
ROOT
HETATM    1  C   UNL     1     -42.498  59.124 -55.214  1.00  0.00     0.087 C 
HETATM    2  N   UNL     1     -41.390  59.384 -54.428  1.00  0.00    -0.353 N 
HETATM    3  C   UNL     1     -40.995  58.588 -53.371  1.00  0.00     0.019 C 
HETATM    4  C   UNL     1     -39.608  58.846 -52.838  1.00  0.00     0.069 C 
HETATM    5  C   UNL     1     -41.846  57.632 -52.929  1.00  0.00     0.046 C 
HETATM    6  C   UNL     1     -43.312  57.626 -53.384  1.00  0.00     0.104 C 
HETATM    7  C   UNL     1     -43.495  58.342 -54.728  1.00  0.00     0.055 C 
HETATM    8  C   UNL     1     -44.844  58.270 -55.425  1.00  0.00     0.019 C 
HETATM    9  N   UNL     1     -45.961  58.211 -56.004  1.00  0.00    -0.096 N 
HETATM   10  H   UNL     1     -40.690  59.991 -54.852  1.00  0.00     0.166 HD
ENDROOT
BRANCH   1  11
HETATM   11  S   UNL     1     -42.497  59.693 -56.878  1.00  0.00    -0.102 SA
BRANCH  11  12
HETATM   12  C   UNL     1     -42.012  58.090 -57.610  1.00  0.00     0.184 C 
BRANCH  12  13
HETATM   13  C   UNL     1     -42.821  57.693 -58.825  1.00  0.00     0.231 C 
HETATM   14  N   UNL     1     -44.068  58.279 -58.887  1.00  0.00    -0.327 N 
HETATM   15  H   UNL     1     -44.196  59.125 -58.341  1.00  0.00     0.169 HD
HETATM   16  O   UNL     1     -42.383  56.835 -59.590  1.00  0.00    -0.272 OA
BRANCH  14  17
HETATM   17  C   UNL     1     -45.159  57.852 -59.668  1.00  0.00     0.034 A 
HETATM   18  C   UNL     1     -45.508  56.512 -59.839  1.00  0.00     0.032 A 
HETATM   19  C   UNL     1     -46.654  56.168 -60.561  1.00  0.00     0.039 A 
HETATM   20  C   UNL     1     -47.467  57.152 -61.124  1.00  0.00     0.068 A 
HETATM   21  C   UNL     1     -47.108  58.491 -60.977  1.00  0.00     0.039 A 
HETATM   22  C   UNL     1     -45.966  58.838 -60.246  1.00  0.00     0.032 A 
BRANCH  20  23
HETATM   23  O   UNL     1     -48.568  56.678 -61.778  1.00  0.00    -0.352 OA
BRANCH  23  24
HETATM   24  C   UNL     1     -48.923  57.325 -62.999  1.00  0.00     0.171 C 
HETATM   25  C   UNL     1     -50.096  58.247 -62.713  1.00  0.00     0.034 C 
ENDBRANCH  23  24
ENDBRANCH  20  23
ENDBRANCH  14  17
ENDBRANCH  12  13
ENDBRANCH  11  12
ENDBRANCH   1  11
BRANCH   6  26
HETATM   26  C   UNL     1     -44.224  58.194 -52.297  1.00  0.00    -0.042 A 
HETATM   27  C   UNL     1     -44.347  59.572 -52.073  1.00  0.00     0.027 A 
HETATM   28  C   UNL     1     -45.175  60.014 -51.052  1.00  0.00     0.116 A 
HETATM   29  N   UNL     1     -45.869  59.193 -50.238  1.00  0.00    -0.273 NA
HETATM   30  C   UNL     1     -45.724  57.869 -50.452  1.00  0.00     0.116 A 
HETATM   31  C   UNL     1     -44.930  57.329 -51.453  1.00  0.00     0.027 A 
ENDBRANCH   6  26
BRANCH   5  32
HETATM   32  C   UNL     1     -41.382  56.469 -52.113  1.00  0.00     0.255 C 
HETATM   33  N   UNL     1     -41.184  55.343 -52.895  1.00  0.00    -0.323 N 
HETATM   34  H   UNL     1     -41.367  55.439 -53.884  1.00  0.00     0.169 HD
HETATM   35  O   UNL     1     -41.317  56.542 -50.895  1.00  0.00    -0.268 OA
BRANCH  33  36
HETATM   36  C   UNL     1     -40.726  54.072 -52.503  1.00  0.00     0.035 A 
HETATM   37  C   UNL     1     -40.314  53.078 -53.391  1.00  0.00     0.031 A 
HETATM   38  C   UNL     1     -39.877  51.840 -52.905  1.00  0.00     0.026 A 
HETATM   39  C   UNL     1     -39.859  51.591 -51.535  1.00  0.00     0.034 A 
HETATM   40 CL   UNL     1     -39.327  50.066 -50.943  1.00  0.00    -0.084 Cl
HETATM   41  C   UNL     1     -40.272  52.572 -50.640  1.00  0.00     0.026 A 
HETATM   42  C   UNL     1     -40.698  53.811 -51.125  1.00  0.00     0.031 A 
ENDBRANCH  33  36
ENDBRANCH   5  32
TORSDOF 9
ENDMDL
MODEL 8
REMARK VINA RESULT:      -7.3      2.881      4.646
REMARK  9 active torsions:
REMARK  status: ('A' for Active; 'I' for Inactive)
REMARK    1  A    between atoms: C_2  and  O_3 
REMARK    2  A    between atoms: O_3  and  C_4 
REMARK    3  A    between atoms: C_7  and  N_8 
REMARK       I    between atoms: N_8  and  C_9 
REMARK    4  A    between atoms: C_9  and  C_10 
REMARK    5  A    between atoms: C_10  and  S_11 
REMARK    6  A    between atoms: S_11  and  C_12 
REMARK    7  A    between atoms: C_16  and  C_17 
REMARK       I    between atoms: C_17  and  N_18 
REMARK    8  A    between atoms: N_18  and  C_19 
REMARK    9  A    between atoms: C_27  and  C_28 
ROOT
HETATM    1  C   UNL     1     -43.296  59.355 -56.756  1.00  0.00     0.087 C 
HETATM    2  N   UNL     1     -44.055  58.796 -55.742  1.00  0.00    -0.353 N 
HETATM    3  C   UNL     1     -44.026  57.456 -55.412  1.00  0.00     0.019 C 
HETATM    4  C   UNL     1     -44.669  57.090 -54.097  1.00  0.00     0.069 C 
HETATM    5  C   UNL     1     -43.403  56.596 -56.252  1.00  0.00     0.046 C 
HETATM    6  C   UNL     1     -43.005  57.043 -57.665  1.00  0.00     0.104 C 
HETATM    7  C   UNL     1     -42.828  58.564 -57.754  1.00  0.00     0.055 C 
HETATM    8  C   UNL     1     -42.250  59.168 -59.024  1.00  0.00     0.019 C 
HETATM    9  N   UNL     1     -41.771  59.668 -60.076  1.00  0.00    -0.096 N 
HETATM   10  H   UNL     1     -44.386  59.452 -55.036  1.00  0.00     0.166 HD
ENDROOT
BRANCH   1  11
HETATM   11  S   UNL     1     -42.838  61.047 -56.622  1.00  0.00    -0.102 SA
BRANCH  11  12
HETATM   12  C   UNL     1     -42.947  61.113 -54.799  1.00  0.00     0.184 C 
BRANCH  12  13
HETATM   13  C   UNL     1     -44.027  62.034 -54.275  1.00  0.00     0.231 C 
HETATM   14  N   UNL     1     -45.207  61.394 -53.959  1.00  0.00    -0.327 N 
HETATM   15  H   UNL     1     -45.148  60.396 -53.789  1.00  0.00     0.169 HD
HETATM   16  O   UNL     1     -43.833  63.248 -54.262  1.00  0.00    -0.272 OA
BRANCH  14  17
HETATM   17  C   UNL     1     -46.471  61.995 -53.799  1.00  0.00     0.034 A 
HETATM   18  C   UNL     1     -47.272  62.404 -54.866  1.00  0.00     0.032 A 
HETATM   19  C   UNL     1     -48.551  62.916 -54.632  1.00  0.00     0.039 A 
HETATM   20  C   UNL     1     -49.050  63.029 -53.334  1.00  0.00     0.068 A 
HETATM   21  C   UNL     1     -48.244  62.645 -52.264  1.00  0.00     0.039 A 
HETATM   22  C   UNL     1     -46.965  62.123 -52.496  1.00  0.00     0.032 A 
BRANCH  20  23
HETATM   23  O   UNL     1     -50.322  63.519 -53.252  1.00  0.00    -0.352 OA
BRANCH  23  24
HETATM   24  C   UNL     1     -51.218  62.848 -52.368  1.00  0.00     0.171 C 
HETATM   25  C   UNL     1     -51.824  61.677 -53.120  1.00  0.00     0.034 C 
ENDBRANCH  23  24
ENDBRANCH  20  23
ENDBRANCH  14  17
ENDBRANCH  12  13
ENDBRANCH  11  12
ENDBRANCH   1  11
BRANCH   6  26
HETATM   26  C   UNL     1     -43.991  56.514 -58.705  1.00  0.00    -0.042 A 
HETATM   27  C   UNL     1     -43.669  55.457 -59.567  1.00  0.00     0.027 A 
HETATM   28  C   UNL     1     -44.606  55.045 -60.503  1.00  0.00     0.116 A 
HETATM   29  N   UNL     1     -45.820  55.614 -60.652  1.00  0.00    -0.273 NA
HETATM   30  C   UNL     1     -46.107  56.645 -59.830  1.00  0.00     0.116 A 
HETATM   31  C   UNL     1     -45.244  57.121 -58.856  1.00  0.00     0.027 A 
ENDBRANCH   6  26
BRANCH   5  32
HETATM   32  C   UNL     1     -42.943  55.244 -55.811  1.00  0.00     0.255 C 
HETATM   33  N   UNL     1     -41.942  55.331 -54.858  1.00  0.00    -0.323 N 
HETATM   34  H   UNL     1     -41.655  56.260 -54.584  1.00  0.00     0.169 HD
HETATM   35  O   UNL     1     -43.364  54.231 -56.350  1.00  0.00    -0.268 OA
BRANCH  33  36
HETATM   36  C   UNL     1     -41.280  54.288 -54.184  1.00  0.00     0.035 A 
HETATM   37  C   UNL     1     -40.546  53.286 -54.818  1.00  0.00     0.031 A 
HETATM   38  C   UNL     1     -39.923  52.286 -54.062  1.00  0.00     0.026 A 
HETATM   39  C   UNL     1     -40.041  52.281 -52.674  1.00  0.00     0.034 A 
HETATM   40 CL   UNL     1     -39.280  51.046 -51.749  1.00  0.00    -0.084 Cl
HETATM   41  C   UNL     1     -40.774  53.272 -52.030  1.00  0.00     0.026 A 
HETATM   42  C   UNL     1     -41.387  54.276 -52.785  1.00  0.00     0.031 A 
ENDBRANCH  33  36
ENDBRANCH   5  32
TORSDOF 9
ENDMDL
MODEL 9
REMARK VINA RESULT:      -7.2      3.818      8.086
REMARK  9 active torsions:
REMARK  status: ('A' for Active; 'I' for Inactive)
REMARK    1  A    between atoms: C_2  and  O_3 
REMARK    2  A    between atoms: O_3  and  C_4 
REMARK    3  A    between atoms: C_7  and  N_8 
REMARK       I    between atoms: N_8  and  C_9 
REMARK    4  A    between atoms: C_9  and  C_10 
REMARK    5  A    between atoms: C_10  and  S_11 
REMARK    6  A    between atoms: S_11  and  C_12 
REMARK    7  A    between atoms: C_16  and  C_17 
REMARK       I    between atoms: C_17  and  N_18 
REMARK    8  A    between atoms: N_18  and  C_19 
REMARK    9  A    between atoms: C_27  and  C_28 
ROOT
HETATM    1  C   UNL     1     -44.155  58.502 -55.050  1.00  0.00     0.087 C 
HETATM    2  N   UNL     1     -43.446  57.566 -55.782  1.00  0.00    -0.353 N 
HETATM    3  C   UNL     1     -42.907  56.416 -55.241  1.00  0.00     0.019 C 
HETATM    4  C   UNL     1     -42.450  55.375 -56.233  1.00  0.00     0.069 C 
HETATM    5  C   UNL     1     -42.865  56.295 -53.893  1.00  0.00     0.046 C 
HETATM    6  C   UNL     1     -43.130  57.510 -52.995  1.00  0.00     0.104 C 
HETATM    7  C   UNL     1     -43.981  58.570 -53.706  1.00  0.00     0.055 C 
HETATM    8  C   UNL     1     -44.503  59.755 -52.909  1.00  0.00     0.019 C 
HETATM    9  N   UNL     1     -44.936  60.737 -52.249  1.00  0.00    -0.096 N 
HETATM   10  H   UNL     1     -43.615  57.583 -56.787  1.00  0.00     0.166 HD
ENDROOT
BRANCH   1  11
HETATM   11  S   UNL     1     -45.373  59.464 -55.876  1.00  0.00    -0.102 SA
BRANCH  11  12
HETATM   12  C   UNL     1     -45.223  58.595 -57.478  1.00  0.00     0.184 C 
BRANCH  12  13
HETATM   13  C   UNL     1     -46.473  58.642 -58.328  1.00  0.00     0.231 C 
HETATM   14  N   UNL     1     -46.946  59.916 -58.563  1.00  0.00    -0.327 N 
HETATM   15  H   UNL     1     -46.280  60.673 -58.449  1.00  0.00     0.169 HD
HETATM   16  O   UNL     1     -47.023  57.591 -58.654  1.00  0.00    -0.272 OA
BRANCH  14  17
HETATM   17  C   UNL     1     -48.241  60.265 -58.995  1.00  0.00     0.034 A 
HETATM   18  C   UNL     1     -48.613  60.336 -60.338  1.00  0.00     0.032 A 
HETATM   19  C   UNL     1     -49.938  60.607 -60.689  1.00  0.00     0.039 A 
HETATM   20  C   UNL     1     -50.910  60.813 -59.709  1.00  0.00     0.068 A 
HETATM   21  C   UNL     1     -50.537  60.768 -58.367  1.00  0.00     0.039 A 
HETATM   22  C   UNL     1     -49.211  60.487 -58.013  1.00  0.00     0.032 A 
BRANCH  20  23
HETATM   23  O   UNL     1     -52.167  61.041 -60.191  1.00  0.00    -0.352 OA
BRANCH  23  24
HETATM   24  C   UNL     1     -53.153  60.046 -59.922  1.00  0.00     0.171 C 
HETATM   25  C   UNL     1     -54.253  60.691 -59.097  1.00  0.00     0.034 C 
ENDBRANCH  23  24
ENDBRANCH  20  23
ENDBRANCH  14  17
ENDBRANCH  12  13
ENDBRANCH  11  12
ENDBRANCH   1  11
BRANCH   6  26
HETATM   26  C   UNL     1     -41.823  58.086 -52.453  1.00  0.00    -0.042 A 
HETATM   27  C   UNL     1     -41.636  58.357 -51.091  1.00  0.00     0.027 A 
HETATM   28  C   UNL     1     -40.431  58.903 -50.675  1.00  0.00     0.116 A 
HETATM   29  N   UNL     1     -39.417  59.210 -51.509  1.00  0.00    -0.273 NA
HETATM   30  C   UNL     1     -39.619  58.964 -52.820  1.00  0.00     0.116 A 
HETATM   31  C   UNL     1     -40.782  58.410 -53.332  1.00  0.00     0.027 A 
ENDBRANCH   6  26
BRANCH   5  32
HETATM   32  C   UNL     1     -42.712  54.970 -53.217  1.00  0.00     0.255 C 
HETATM   33  N   UNL     1     -41.380  54.610 -53.093  1.00  0.00    -0.323 N 
HETATM   34  H   UNL     1     -40.698  55.261 -53.458  1.00  0.00     0.169 HD
HETATM   35  O   UNL     1     -43.689  54.292 -52.938  1.00  0.00    -0.268 OA
BRANCH  33  36
HETATM   36  C   UNL     1     -40.834  53.461 -52.493  1.00  0.00     0.035 A 
HETATM   37  C   UNL     1     -40.808  53.231 -51.117  1.00  0.00     0.031 A 
HETATM   38  C   UNL     1     -40.239  52.056 -50.612  1.00  0.00     0.026 A 
HETATM   39  C   UNL     1     -39.687  51.116 -51.479  1.00  0.00     0.034 A 
HETATM   40 CL   UNL     1     -38.982  49.677 -50.854  1.00  0.00    -0.084 Cl
HETATM   41  C   UNL     1     -39.702  51.336 -52.852  1.00  0.00     0.026 A 
HETATM   42  C   UNL     1     -40.280  52.504 -53.356  1.00  0.00     0.031 A 
ENDBRANCH  33  36
ENDBRANCH   5  32
TORSDOF 9
ENDMDL
MODEL 10
REMARK VINA RESULT:      -7.2      2.931      6.657
REMARK  9 active torsions:
REMARK  status: ('A' for Active; 'I' for Inactive)
REMARK    1  A    between atoms: C_2  and  O_3 
REMARK    2  A    between atoms: O_3  and  C_4 
REMARK    3  A    between atoms: C_7  and  N_8 
REMARK       I    between atoms: N_8  and  C_9 
REMARK    4  A    between atoms: C_9  and  C_10 
REMARK    5  A    between atoms: C_10  and  S_11 
REMARK    6  A    between atoms: S_11  and  C_12 
REMARK    7  A    between atoms: C_16  and  C_17 
REMARK       I    between atoms: C_17  and  N_18 
REMARK    8  A    between atoms: N_18  and  C_19 
REMARK    9  A    between atoms: C_27  and  C_28 
ROOT
HETATM    1  C   UNL     1     -44.614  59.548 -52.755  1.00  0.00     0.087 C 
HETATM    2  N   UNL     1     -44.362  58.760 -53.865  1.00  0.00    -0.353 N 
HETATM    3  C   UNL     1     -43.742  57.529 -53.806  1.00  0.00     0.019 C 
HETATM    4  C   UNL     1     -43.835  56.687 -55.055  1.00  0.00     0.069 C 
HETATM    5  C   UNL     1     -43.144  57.161 -52.649  1.00  0.00     0.046 C 
HETATM    6  C   UNL     1     -42.903  58.190 -51.537  1.00  0.00     0.104 C 
HETATM    7  C   UNL     1     -43.883  59.367 -51.627  1.00  0.00     0.055 C 
HETATM    8  C   UNL     1     -43.918  60.386 -50.500  1.00  0.00     0.019 C 
HETATM    9  N   UNL     1     -43.948  61.232 -49.566  1.00  0.00    -0.096 N 
HETATM   10  H   UNL     1     -44.937  58.964 -54.681  1.00  0.00     0.166 HD
ENDROOT
BRANCH   1  11
HETATM   11  S   UNL     1     -45.982  60.651 -52.805  1.00  0.00    -0.102 SA
BRANCH  11  12
HETATM   12  C   UNL     1     -44.976  62.178 -52.768  1.00  0.00     0.184 C 
BRANCH  12  13
HETATM   13  C   UNL     1     -44.045  62.336 -53.949  1.00  0.00     0.231 C 
HETATM   14  N   UNL     1     -44.526  61.792 -55.121  1.00  0.00    -0.327 N 
HETATM   15  H   UNL     1     -45.529  61.649 -55.174  1.00  0.00     0.169 HD
HETATM   16  O   UNL     1     -42.928  62.822 -53.779  1.00  0.00    -0.272 OA
BRANCH  14  17
HETATM   17  C   UNL     1     -43.774  61.465 -56.267  1.00  0.00     0.034 A 
HETATM   18  C   UNL     1     -42.607  60.701 -56.231  1.00  0.00     0.032 A 
HETATM   19  C   UNL     1     -41.959  60.347 -57.417  1.00  0.00     0.039 A 
HETATM   20  C   UNL     1     -42.463  60.749 -58.655  1.00  0.00     0.068 A 
HETATM   21  C   UNL     1     -43.614  61.534 -58.693  1.00  0.00     0.039 A 
HETATM   22  C   UNL     1     -44.270  61.882 -57.506  1.00  0.00     0.032 A 
BRANCH  20  23
HETATM   23  O   UNL     1     -41.748  60.310 -59.732  1.00  0.00    -0.352 OA
BRANCH  23  24
HETATM   24  C   UNL     1     -42.413  59.428 -60.635  1.00  0.00     0.171 C 
HETATM   25  C   UNL     1     -41.948  58.015 -60.332  1.00  0.00     0.034 C 
ENDBRANCH  23  24
ENDBRANCH  20  23
ENDBRANCH  14  17
ENDBRANCH  12  13
ENDBRANCH  11  12
ENDBRANCH   1  11
BRANCH   6  26
HETATM   26  C   UNL     1     -41.446  58.651 -51.526  1.00  0.00    -0.042 A 
HETATM   27  C   UNL     1     -40.650  58.634 -52.679  1.00  0.00     0.027 A 
HETATM   28  C   UNL     1     -39.328  59.044 -52.588  1.00  0.00     0.116 A 
HETATM   29  N   UNL     1     -38.744  59.450 -51.442  1.00  0.00    -0.273 NA
HETATM   30  C   UNL     1     -39.516  59.440 -50.336  1.00  0.00     0.116 A 
HETATM   31  C   UNL     1     -40.849  59.059 -50.327  1.00  0.00     0.027 A 
ENDBRANCH   6  26
BRANCH   5  32
HETATM   32  C   UNL     1     -42.830  55.733 -52.334  1.00  0.00     0.255 C 
HETATM   33  N   UNL     1     -41.754  55.271 -53.073  1.00  0.00    -0.323 N 
HETATM   34  H   UNL     1     -41.326  55.928 -53.711  1.00  0.00     0.169 HD
HETATM   35  O   UNL     1     -43.548  55.083 -51.588  1.00  0.00    -0.268 OA
BRANCH  33  36
HETATM   36  C   UNL     1     -41.145  54.003 -53.038  1.00  0.00     0.035 A 
HETATM   37  C   UNL     1     -40.445  53.500 -51.941  1.00  0.00     0.031 A 
HETATM   38  C   UNL     1     -39.869  52.225 -52.001  1.00  0.00     0.026 A 
HETATM   39  C   UNL     1     -39.983  51.458 -53.159  1.00  0.00     0.034 A 
HETATM   40 CL   UNL     1     -39.268  49.895 -53.231  1.00  0.00    -0.084 Cl
HETATM   41  C   UNL     1     -40.674  51.951 -54.260  1.00  0.00     0.026 A 
HETATM   42  C   UNL     1     -41.258  53.219 -54.196  1.00  0.00     0.031 A 
ENDBRANCH  33  36
ENDBRANCH   5  32
TORSDOF 9
ENDMDL
