MODEL 1
REMARK VINA RESULT:      -8.2      0.000      0.000
REMARK  3 active torsions:
REMARK  status: ('A' for Active; 'I' for Inactive)
REMARK    1  A    between atoms: C_3  and  N_4 
REMARK       I    between atoms: N_4  and  C_5 
REMARK    2  A    between atoms: C_5  and  C_6 
REMARK    3  A    between atoms: C_6  and  C_7 
ROOT
HETATM    1  C   UNL     1     -42.764  55.835 -55.396  1.00  0.00     0.286 C 
HETATM    2  N   UNL     1     -41.979  56.296 -56.623  1.00  0.00    -0.056 N 
HETATM    3  H   UNL     1     -41.452  57.138 -56.307  1.00  0.00     0.278 HD
HETATM    4  H   UNL     1     -41.274  55.604 -56.901  1.00  0.00     0.278 HD
HETATM    5  C   UNL     1     -42.808  56.741 -57.791  1.00  0.00     0.209 C 
HETATM    6  C   UNL     1     -43.832  57.798 -57.316  1.00  0.00     0.115 C 
HETATM    7  N   UNL     1     -44.599  57.347 -56.156  1.00  0.00    -0.353 N 
HETATM    8  C   UNL     1     -44.029  56.672 -55.104  1.00  0.00     0.249 C 
HETATM    9  O   UNL     1     -44.577  56.669 -54.007  1.00  0.00    -0.271 OA
HETATM   10  C   UNL     1     -43.463  55.537 -58.470  1.00  0.00     0.035 C 
HETATM   11  C   UNL     1     -44.359  55.991 -59.621  1.00  0.00     0.002 C 
HETATM   12  C   UNL     1     -45.401  57.007 -59.158  1.00  0.00     0.002 C 
HETATM   13  C   UNL     1     -44.758  58.209 -58.466  1.00  0.00     0.027 C 
HETATM   14  H   UNL     1     -45.393  57.913 -55.862  1.00  0.00     0.163 HD
ENDROOT
BRANCH   1  15
HETATM   15  C   UNL     1     -41.851  55.793 -54.158  1.00  0.00     0.146 C 
BRANCH  15  16
HETATM   16  C   UNL     1     -41.801  54.383 -53.607  1.00  0.00     0.224 C 
HETATM   17  N   UNL     1     -40.582  53.765 -53.742  1.00  0.00    -0.327 N 
HETATM   18  H   UNL     1     -39.792  54.326 -54.039  1.00  0.00     0.169 HD
HETATM   19  O   UNL     1     -42.787  53.951 -53.006  1.00  0.00    -0.273 OA
BRANCH  17  20
HETATM   20  C   UNL     1     -40.289  52.419 -53.411  1.00  0.00     0.040 A 
HETATM   21  C   UNL     1     -39.861  52.108 -52.104  1.00  0.00    -0.035 A 
HETATM   22  C   UNL     1     -39.757  53.141 -51.015  1.00  0.00     0.050 C 
HETATM   23  C   UNL     1     -39.525  50.779 -51.790  1.00  0.00     0.009 A 
HETATM   24  C   UNL     1     -39.613  49.771 -52.749  1.00  0.00     0.001 A 
HETATM   25  C   UNL     1     -40.034  50.079 -54.036  1.00  0.00     0.002 A 
HETATM   26  C   UNL     1     -40.371  51.393 -54.364  1.00  0.00     0.030 A 
ENDBRANCH  17  20
ENDBRANCH  15  16
ENDBRANCH   1  15
TORSDOF 3
ENDMDL
MODEL 2
REMARK VINA RESULT:      -8.2      1.795      2.970
REMARK  3 active torsions:
REMARK  status: ('A' for Active; 'I' for Inactive)
REMARK    1  A    between atoms: C_3  and  N_4 
REMARK       I    between atoms: N_4  and  C_5 
REMARK    2  A    between atoms: C_5  and  C_6 
REMARK    3  A    between atoms: C_6  and  C_7 
ROOT
HETATM    1  C   UNL     1     -42.740  56.879 -52.607  1.00  0.00     0.286 C 
HETATM    2  N   UNL     1     -43.969  56.147 -53.146  1.00  0.00    -0.056 N 
HETATM    3  H   UNL     1     -43.687  55.144 -53.196  1.00  0.00     0.278 HD
HETATM    4  H   UNL     1     -44.753  56.192 -52.485  1.00  0.00     0.278 HD
HETATM    5  C   UNL     1     -44.392  56.527 -54.533  1.00  0.00     0.209 C 
HETATM    6  C   UNL     1     -43.176  56.417 -55.484  1.00  0.00     0.115 C 
HETATM    7  N   UNL     1     -42.008  57.137 -54.979  1.00  0.00    -0.353 N 
HETATM    8  C   UNL     1     -41.633  57.112 -53.658  1.00  0.00     0.249 C 
HETATM    9  O   UNL     1     -40.475  57.367 -53.344  1.00  0.00    -0.271 OA
HETATM   10  C   UNL     1     -45.027  57.919 -54.535  1.00  0.00     0.035 C 
HETATM   11  C   UNL     1     -45.401  58.337 -55.956  1.00  0.00     0.002 C 
HETATM   12  C   UNL     1     -44.200  58.270 -56.898  1.00  0.00     0.002 C 
HETATM   13  C   UNL     1     -43.549  56.887 -56.894  1.00  0.00     0.027 C 
HETATM   14  H   UNL     1     -41.209  57.241 -55.601  1.00  0.00     0.163 HD
ENDROOT
BRANCH   1  15
HETATM   15  C   UNL     1     -42.171  56.143 -51.382  1.00  0.00     0.146 C 
BRANCH  15  16
HETATM   16  C   UNL     1     -42.014  54.670 -51.695  1.00  0.00     0.224 C 
HETATM   17  N   UNL     1     -40.728  54.286 -51.986  1.00  0.00    -0.327 N 
HETATM   18  H   UNL     1     -39.982  54.949 -51.818  1.00  0.00     0.169 HD
HETATM   19  O   UNL     1     -42.996  53.934 -51.569  1.00  0.00    -0.273 OA
BRANCH  17  20
HETATM   20  C   UNL     1     -40.320  52.999 -52.415  1.00  0.00     0.040 A 
HETATM   21  C   UNL     1     -40.356  52.687 -53.790  1.00  0.00    -0.035 A 
HETATM   22  C   UNL     1     -40.756  53.687 -54.841  1.00  0.00     0.050 C 
HETATM   23  C   UNL     1     -39.996  51.394 -54.209  1.00  0.00     0.009 A 
HETATM   24  C   UNL     1     -39.603  50.423 -53.288  1.00  0.00     0.001 A 
HETATM   25  C   UNL     1     -39.568  50.733 -51.935  1.00  0.00     0.002 A 
HETATM   26  C   UNL     1     -39.923  52.011 -51.502  1.00  0.00     0.030 A 
ENDBRANCH  17  20
ENDBRANCH  15  16
ENDBRANCH   1  15
TORSDOF 3
ENDMDL
MODEL 3
REMARK VINA RESULT:      -7.6      1.894      3.412
REMARK  3 active torsions:
REMARK  status: ('A' for Active; 'I' for Inactive)
REMARK    1  A    between atoms: C_3  and  N_4 
REMARK       I    between atoms: N_4  and  C_5 
REMARK    2  A    between atoms: C_5  and  C_6 
REMARK    3  A    between atoms: C_6  and  C_7 
ROOT
HETATM    1  C   UNL     1     -43.300  56.600 -55.571  1.00  0.00     0.286 C 
HETATM    2  N   UNL     1     -44.362  57.285 -56.431  1.00  0.00    -0.056 N 
HETATM    3  H   UNL     1     -45.181  56.640 -56.414  1.00  0.00     0.278 HD
HETATM    4  H   UNL     1     -44.680  58.163 -56.006  1.00  0.00     0.278 HD
HETATM    5  C   UNL     1     -44.006  57.465 -57.876  1.00  0.00     0.209 C 
HETATM    6  C   UNL     1     -43.559  56.106 -58.464  1.00  0.00     0.115 C 
HETATM    7  N   UNL     1     -42.527  55.462 -57.653  1.00  0.00    -0.353 N 
HETATM    8  C   UNL     1     -42.563  55.443 -56.281  1.00  0.00     0.249 C 
HETATM    9  O   UNL     1     -41.943  54.584 -55.662  1.00  0.00    -0.271 OA
HETATM   10  C   UNL     1     -42.950  58.560 -58.033  1.00  0.00     0.035 C 
HETATM   11  C   UNL     1     -42.538  58.703 -59.497  1.00  0.00     0.002 C 
HETATM   12  C   UNL     1     -42.057  57.376 -60.080  1.00  0.00     0.002 C 
HETATM   13  C   UNL     1     -43.100  56.270 -59.916  1.00  0.00     0.027 C 
HETATM   14  H   UNL     1     -42.069  54.636 -58.035  1.00  0.00     0.163 HD
ENDROOT
BRANCH   1  15
HETATM   15  C   UNL     1     -43.913  56.114 -54.246  1.00  0.00     0.146 C 
BRANCH  15  16
HETATM   16  C   UNL     1     -42.863  56.142 -53.155  1.00  0.00     0.224 C 
HETATM   17  N   UNL     1     -42.634  54.926 -52.558  1.00  0.00    -0.327 N 
HETATM   18  H   UNL     1     -43.045  54.102 -52.979  1.00  0.00     0.169 HD
HETATM   19  O   UNL     1     -42.241  57.189 -52.964  1.00  0.00    -0.273 OA
BRANCH  17  20
HETATM   20  C   UNL     1     -41.788  54.691 -51.446  1.00  0.00     0.040 A 
HETATM   21  C   UNL     1     -40.717  53.782 -51.575  1.00  0.00    -0.035 A 
HETATM   22  C   UNL     1     -40.392  53.087 -52.869  1.00  0.00     0.050 C 
HETATM   23  C   UNL     1     -39.907  53.513 -50.457  1.00  0.00     0.009 A 
HETATM   24  C   UNL     1     -40.147  54.134 -49.231  1.00  0.00     0.001 A 
HETATM   25  C   UNL     1     -41.201  55.029 -49.106  1.00  0.00     0.002 A 
HETATM   26  C   UNL     1     -42.015  55.306 -50.206  1.00  0.00     0.030 A 
ENDBRANCH  17  20
ENDBRANCH  15  16
ENDBRANCH   1  15
TORSDOF 3
ENDMDL
MODEL 4
REMARK VINA RESULT:      -7.5      1.454      2.195
REMARK  3 active torsions:
REMARK  status: ('A' for Active; 'I' for Inactive)
REMARK    1  A    between atoms: C_3  and  N_4 
REMARK       I    between atoms: N_4  and  C_5 
REMARK    2  A    between atoms: C_5  and  C_6 
REMARK    3  A    between atoms: C_6  and  C_7 
ROOT
HETATM    1  C   UNL     1     -43.389  56.783 -55.520  1.00  0.00     0.286 C 
HETATM    2  N   UNL     1     -42.296  56.836 -56.589  1.00  0.00    -0.056 N 
HETATM    3  H   UNL     1     -41.853  57.773 -56.476  1.00  0.00     0.278 HD
HETATM    4  H   UNL     1     -41.559  56.146 -56.407  1.00  0.00     0.278 HD
HETATM    5  C   UNL     1     -42.776  56.773 -58.008  1.00  0.00     0.209 C 
HETATM    6  C   UNL     1     -43.866  57.850 -58.226  1.00  0.00     0.115 C 
HETATM    7  N   UNL     1     -44.922  57.783 -57.217  1.00  0.00    -0.353 N 
HETATM    8  C   UNL     1     -44.667  57.571 -55.885  1.00  0.00     0.249 C 
HETATM    9  O   UNL     1     -45.486  57.917 -55.040  1.00  0.00    -0.271 OA
HETATM   10  C   UNL     1     -43.255  55.360 -58.347  1.00  0.00     0.035 C 
HETATM   11  C   UNL     1     -43.804  55.307 -59.772  1.00  0.00     0.002 C 
HETATM   12  C   UNL     1     -44.908  56.340 -59.990  1.00  0.00     0.002 C 
HETATM   13  C   UNL     1     -44.444  57.754 -59.641  1.00  0.00     0.027 C 
HETATM   14  H   UNL     1     -45.752  58.355 -57.361  1.00  0.00     0.163 HD
ENDROOT
BRANCH   1  15
HETATM   15  C   UNL     1     -42.837  57.252 -54.163  1.00  0.00     0.146 C 
BRANCH  15  16
HETATM   16  C   UNL     1     -41.714  56.337 -53.723  1.00  0.00     0.224 C 
HETATM   17  N   UNL     1     -42.119  55.071 -53.375  1.00  0.00    -0.327 N 
HETATM   18  H   UNL     1     -43.071  54.800 -53.584  1.00  0.00     0.169 HD
HETATM   19  O   UNL     1     -40.554  56.746 -53.806  1.00  0.00    -0.273 OA
BRANCH  17  20
HETATM   20  C   UNL     1     -41.296  54.054 -52.830  1.00  0.00     0.040 A 
HETATM   21  C   UNL     1     -40.529  53.249 -53.698  1.00  0.00    -0.035 A 
HETATM   22  C   UNL     1     -40.496  53.461 -55.188  1.00  0.00     0.050 C 
HETATM   23  C   UNL     1     -39.750  52.210 -53.160  1.00  0.00     0.009 A 
HETATM   24  C   UNL     1     -39.725  51.968 -51.787  1.00  0.00     0.001 A 
HETATM   25  C   UNL     1     -40.481  52.762 -50.934  1.00  0.00     0.002 A 
HETATM   26  C   UNL     1     -41.260  53.798 -51.452  1.00  0.00     0.030 A 
ENDBRANCH  17  20
ENDBRANCH  15  16
ENDBRANCH   1  15
TORSDOF 3
ENDMDL
MODEL 5
REMARK VINA RESULT:      -7.3      3.105      4.483
REMARK  3 active torsions:
REMARK  status: ('A' for Active; 'I' for Inactive)
REMARK    1  A    between atoms: C_3  and  N_4 
REMARK       I    between atoms: N_4  and  C_5 
REMARK    2  A    between atoms: C_5  and  C_6 
REMARK    3  A    between atoms: C_6  and  C_7 
ROOT
HETATM    1  C   UNL     1     -42.480  57.535 -58.312  1.00  0.00     0.286 C 
HETATM    2  N   UNL     1     -43.262  58.799 -57.953  1.00  0.00    -0.056 N 
HETATM    3  H   UNL     1     -44.262  58.555 -58.118  1.00  0.00     0.278 HD
HETATM    4  H   UNL     1     -43.182  59.020 -56.955  1.00  0.00     0.278 HD
HETATM    5  C   UNL     1     -42.982  59.997 -58.810  1.00  0.00     0.209 C 
HETATM    6  C   UNL     1     -43.143  59.608 -60.299  1.00  0.00     0.115 C 
HETATM    7  N   UNL     1     -42.376  58.412 -60.646  1.00  0.00    -0.353 N 
HETATM    8  C   UNL     1     -42.306  57.310 -59.830  1.00  0.00     0.249 C 
HETATM    9  O   UNL     1     -42.016  56.215 -60.300  1.00  0.00    -0.271 OA
HETATM   10  C   UNL     1     -41.602  60.573 -58.488  1.00  0.00     0.035 C 
HETATM   11  C   UNL     1     -41.286  61.755 -59.403  1.00  0.00     0.002 C 
HETATM   12  C   UNL     1     -41.403  61.375 -60.878  1.00  0.00     0.002 C 
HETATM   13  C   UNL     1     -42.775  60.785 -61.207  1.00  0.00     0.027 C 
HETATM   14  H   UNL     1     -42.304  58.164 -61.631  1.00  0.00     0.163 HD
ENDROOT
BRANCH   1  15
HETATM   15  C   UNL     1     -43.124  56.301 -57.656  1.00  0.00     0.146 C 
BRANCH  15  16
HETATM   16  C   UNL     1     -42.640  56.169 -56.228  1.00  0.00     0.224 C 
HETATM   17  N   UNL     1     -42.707  54.893 -55.723  1.00  0.00    -0.327 N 
HETATM   18  H   UNL     1     -42.911  54.136 -56.363  1.00  0.00     0.169 HD
HETATM   19  O   UNL     1     -42.142  57.156 -55.681  1.00  0.00    -0.273 OA
BRANCH  17  20
HETATM   20  C   UNL     1     -42.420  54.509 -54.389  1.00  0.00     0.040 A 
HETATM   21  C   UNL     1     -41.148  53.983 -54.082  1.00  0.00    -0.035 A 
HETATM   22  C   UNL     1     -40.049  53.863 -55.103  1.00  0.00     0.050 C 
HETATM   23  C   UNL     1     -40.881  53.558 -52.768  1.00  0.00     0.009 A 
HETATM   24  C   UNL     1     -41.851  53.653 -51.772  1.00  0.00     0.001 A 
HETATM   25  C   UNL     1     -43.103  54.172 -52.076  1.00  0.00     0.002 A 
HETATM   26  C   UNL     1     -43.384  54.598 -53.375  1.00  0.00     0.030 A 
ENDBRANCH  17  20
ENDBRANCH  15  16
ENDBRANCH   1  15
TORSDOF 3
ENDMDL
MODEL 6
REMARK VINA RESULT:      -7.3     14.491     16.754
REMARK  3 active torsions:
REMARK  status: ('A' for Active; 'I' for Inactive)
REMARK    1  A    between atoms: C_3  and  N_4 
REMARK       I    between atoms: N_4  and  C_5 
REMARK    2  A    between atoms: C_5  and  C_6 
REMARK    3  A    between atoms: C_6  and  C_7 
ROOT
HETATM    1  C   UNL     1     -36.294  40.541 -52.627  1.00  0.00     0.286 C 
HETATM    2  N   UNL     1     -36.077  39.452 -51.576  1.00  0.00    -0.056 N 
HETATM    3  H   UNL     1     -36.612  39.772 -50.740  1.00  0.00     0.278 HD
HETATM    4  H   UNL     1     -36.499  38.562 -51.864  1.00  0.00     0.278 HD
HETATM    5  C   UNL     1     -34.661  39.270 -51.116  1.00  0.00     0.209 C 
HETATM    6  C   UNL     1     -34.090  40.638 -50.674  1.00  0.00     0.115 C 
HETATM    7  N   UNL     1     -34.277  41.673 -51.689  1.00  0.00    -0.353 N 
HETATM    8  C   UNL     1     -35.439  41.809 -52.408  1.00  0.00     0.249 C 
HETATM    9  O   UNL     1     -35.717  42.883 -52.930  1.00  0.00    -0.271 OA
HETATM   10  C   UNL     1     -33.828  38.599 -52.209  1.00  0.00     0.035 C 
HETATM   11  C   UNL     1     -32.370  38.470 -51.769  1.00  0.00     0.002 C 
HETATM   12  C   UNL     1     -31.780  39.820 -51.366  1.00  0.00     0.002 C 
HETATM   13  C   UNL     1     -32.614  40.506 -50.284  1.00  0.00     0.027 C 
HETATM   14  H   UNL     1     -33.808  42.566 -51.549  1.00  0.00     0.163 HD
ENDROOT
BRANCH   1  15
HETATM   15  C   UNL     1     -37.785  40.908 -52.720  1.00  0.00     0.146 C 
BRANCH  15  16
HETATM   16  C   UNL     1     -38.184  41.064 -54.173  1.00  0.00     0.224 C 
HETATM   17  N   UNL     1     -37.206  40.713 -55.070  1.00  0.00    -0.327 N 
HETATM   18  H   UNL     1     -36.382  40.242 -54.718  1.00  0.00     0.169 HD
HETATM   19  O   UNL     1     -39.348  41.380 -54.433  1.00  0.00    -0.273 OA
BRANCH  17  20
HETATM   20  C   UNL     1     -37.274  40.861 -56.478  1.00  0.00     0.040 A 
HETATM   21  C   UNL     1     -36.392  41.753 -57.121  1.00  0.00    -0.035 A 
HETATM   22  C   UNL     1     -35.328  42.519 -56.382  1.00  0.00     0.050 C 
HETATM   23  C   UNL     1     -36.493  41.934 -58.512  1.00  0.00     0.009 A 
HETATM   24  C   UNL     1     -37.447  41.244 -59.258  1.00  0.00     0.001 A 
HETATM   25  C   UNL     1     -38.316  40.366 -58.623  1.00  0.00     0.002 A 
HETATM   26  C   UNL     1     -38.229  40.175 -57.243  1.00  0.00     0.030 A 
ENDBRANCH  17  20
ENDBRANCH  15  16
ENDBRANCH   1  15
TORSDOF 3
ENDMDL
MODEL 7
REMARK VINA RESULT:      -7.3     14.094     16.626
REMARK  3 active torsions:
REMARK  status: ('A' for Active; 'I' for Inactive)
REMARK    1  A    between atoms: C_3  and  N_4 
REMARK       I    between atoms: N_4  and  C_5 
REMARK    2  A    between atoms: C_5  and  C_6 
REMARK    3  A    between atoms: C_6  and  C_7 
ROOT
HETATM    1  C   UNL     1     -36.507  41.454 -54.581  1.00  0.00     0.286 C 
HETATM    2  N   UNL     1     -37.153  42.008 -53.311  1.00  0.00    -0.056 N 
HETATM    3  H   UNL     1     -37.045  43.043 -53.381  1.00  0.00     0.278 HD
HETATM    4  H   UNL     1     -38.163  41.826 -53.294  1.00  0.00     0.278 HD
HETATM    5  C   UNL     1     -36.496  41.609 -52.024  1.00  0.00     0.209 C 
HETATM    6  C   UNL     1     -34.985  41.930 -52.103  1.00  0.00     0.115 C 
HETATM    7  N   UNL     1     -34.362  41.380 -53.306  1.00  0.00    -0.353 N 
HETATM    8  C   UNL     1     -34.963  41.422 -54.540  1.00  0.00     0.249 C 
HETATM    9  O   UNL     1     -34.283  41.335 -55.557  1.00  0.00    -0.271 OA
HETATM   10  C   UNL     1     -36.780  40.139 -51.713  1.00  0.00     0.035 C 
HETATM   11  C   UNL     1     -36.060  39.711 -50.435  1.00  0.00     0.002 C 
HETATM   12  C   UNL     1     -34.559  39.986 -50.514  1.00  0.00     0.002 C 
HETATM   13  C   UNL     1     -34.265  41.451 -50.838  1.00  0.00     0.027 C 
HETATM   14  H   UNL     1     -33.347  41.415 -53.374  1.00  0.00     0.163 HD
ENDROOT
BRANCH   1  15
HETATM   15  C   UNL     1     -36.995  42.231 -55.816  1.00  0.00     0.146 C 
BRANCH  15  16
HETATM   16  C   UNL     1     -37.488  41.261 -56.869  1.00  0.00     0.224 C 
HETATM   17  N   UNL     1     -36.528  40.864 -57.767  1.00  0.00    -0.327 N 
HETATM   18  H   UNL     1     -35.564  41.107 -57.575  1.00  0.00     0.169 HD
HETATM   19  O   UNL     1     -38.642  40.835 -56.782  1.00  0.00    -0.273 OA
BRANCH  17  20
HETATM   20  C   UNL     1     -36.740  40.051 -58.909  1.00  0.00     0.040 A 
HETATM   21  C   UNL     1     -37.218  40.643 -60.097  1.00  0.00    -0.035 A 
HETATM   22  C   UNL     1     -37.458  42.122 -60.229  1.00  0.00     0.050 C 
HETATM   23  C   UNL     1     -37.473  39.827 -61.214  1.00  0.00     0.009 A 
HETATM   24  C   UNL     1     -37.258  38.451 -61.162  1.00  0.00     0.001 A 
HETATM   25  C   UNL     1     -36.789  37.870 -59.991  1.00  0.00     0.002 A 
HETATM   26  C   UNL     1     -36.531  38.665 -58.873  1.00  0.00     0.030 A 
ENDBRANCH  17  20
ENDBRANCH  15  16
ENDBRANCH   1  15
TORSDOF 3
ENDMDL
MODEL 8
REMARK VINA RESULT:      -7.2     14.328     16.000
REMARK  3 active torsions:
REMARK  status: ('A' for Active; 'I' for Inactive)
REMARK    1  A    between atoms: C_3  and  N_4 
REMARK       I    between atoms: N_4  and  C_5 
REMARK    2  A    between atoms: C_5  and  C_6 
REMARK    3  A    between atoms: C_6  and  C_7 
ROOT
HETATM    1  C   UNL     1     -37.000  40.868 -54.835  1.00  0.00     0.286 C 
HETATM    2  N   UNL     1     -38.070  41.670 -55.576  1.00  0.00    -0.056 N 
HETATM    3  H   UNL     1     -38.978  41.330 -55.192  1.00  0.00     0.278 HD
HETATM    4  H   UNL     1     -38.017  42.669 -55.347  1.00  0.00     0.278 HD
HETATM    5  C   UNL     1     -38.137  41.445 -57.057  1.00  0.00     0.209 C 
HETATM    6  C   UNL     1     -38.239  39.927 -57.338  1.00  0.00     0.115 C 
HETATM    7  N   UNL     1     -37.201  39.163 -56.646  1.00  0.00    -0.353 N 
HETATM    8  C   UNL     1     -36.823  39.423 -55.353  1.00  0.00     0.249 C 
HETATM    9  O   UNL     1     -36.275  38.552 -54.685  1.00  0.00    -0.271 OA
HETATM   10  C   UNL     1     -36.942  42.102 -57.751  1.00  0.00     0.035 C 
HETATM   11  C   UNL     1     -36.972  41.820 -59.252  1.00  0.00     0.002 C 
HETATM   12  C   UNL     1     -37.035  40.322 -59.545  1.00  0.00     0.002 C 
HETATM   13  C   UNL     1     -38.217  39.653 -58.844  1.00  0.00     0.027 C 
HETATM   14  H   UNL     1     -37.100  38.178 -56.884  1.00  0.00     0.163 HD
ENDROOT
BRANCH   1  15
HETATM   15  C   UNL     1     -37.282  40.866 -53.323  1.00  0.00     0.146 C 
BRANCH  15  16
HETATM   16  C   UNL     1     -36.001  41.142 -52.563  1.00  0.00     0.224 C 
HETATM   17  N   UNL     1     -35.271  40.021 -52.256  1.00  0.00    -0.327 N 
HETATM   18  H   UNL     1     -35.542  39.143 -52.681  1.00  0.00     0.169 HD
HETATM   19  O   UNL     1     -35.670  42.315 -52.376  1.00  0.00    -0.273 OA
BRANCH  17  20
HETATM   20  C   UNL     1     -34.096  39.982 -51.465  1.00  0.00     0.040 A 
HETATM   21  C   UNL     1     -32.838  40.095 -52.093  1.00  0.00    -0.035 A 
HETATM   22  C   UNL     1     -32.685  40.316 -53.573  1.00  0.00     0.050 C 
HETATM   23  C   UNL     1     -31.672  40.009 -51.312  1.00  0.00     0.009 A 
HETATM   24  C   UNL     1     -31.743  39.818 -49.933  1.00  0.00     0.001 A 
HETATM   25  C   UNL     1     -32.983  39.707 -49.316  1.00  0.00     0.002 A 
HETATM   26  C   UNL     1     -34.150  39.790 -50.077  1.00  0.00     0.030 A 
ENDBRANCH  17  20
ENDBRANCH  15  16
ENDBRANCH   1  15
TORSDOF 3
ENDMDL
MODEL 9
REMARK VINA RESULT:      -7.2     15.027     17.493
REMARK  3 active torsions:
REMARK  status: ('A' for Active; 'I' for Inactive)
REMARK    1  A    between atoms: C_3  and  N_4 
REMARK       I    between atoms: N_4  and  C_5 
REMARK    2  A    between atoms: C_5  and  C_6 
REMARK    3  A    between atoms: C_6  and  C_7 
ROOT
HETATM    1  C   UNL     1     -33.646  38.720 -54.501  1.00  0.00     0.286 C 
HETATM    2  N   UNL     1     -35.005  38.616 -53.808  1.00  0.00    -0.056 N 
HETATM    3  H   UNL     1     -35.703  38.861 -54.542  1.00  0.00     0.278 HD
HETATM    4  H   UNL     1     -35.211  37.651 -53.527  1.00  0.00     0.278 HD
HETATM    5  C   UNL     1     -35.232  39.580 -52.682  1.00  0.00     0.209 C 
HETATM    6  C   UNL     1     -34.930  41.016 -53.172  1.00  0.00     0.115 C 
HETATM    7  N   UNL     1     -33.620  41.120 -53.814  1.00  0.00    -0.353 N 
HETATM    8  C   UNL     1     -33.138  40.169 -54.679  1.00  0.00     0.249 C 
HETATM    9  O   UNL     1     -32.264  40.460 -55.488  1.00  0.00    -0.271 OA
HETATM   10  C   UNL     1     -34.404  39.179 -51.461  1.00  0.00     0.035 C 
HETATM   11  C   UNL     1     -34.583  40.194 -50.333  1.00  0.00     0.002 C 
HETATM   12  C   UNL     1     -34.251  41.612 -50.792  1.00  0.00     0.002 C 
HETATM   13  C   UNL     1     -35.063  42.019 -52.022  1.00  0.00     0.027 C 
HETATM   14  H   UNL     1     -33.274  42.051 -54.039  1.00  0.00     0.163 HD
ENDROOT
BRANCH   1  15
HETATM   15  C   UNL     1     -33.677  37.992 -55.855  1.00  0.00     0.146 C 
BRANCH  15  16
HETATM   16  C   UNL     1     -34.891  38.431 -56.646  1.00  0.00     0.224 C 
HETATM   17  N   UNL     1     -34.665  39.490 -57.491  1.00  0.00    -0.327 N 
HETATM   18  H   UNL     1     -33.708  39.785 -57.641  1.00  0.00     0.169 HD
HETATM   19  O   UNL     1     -35.925  37.764 -56.556  1.00  0.00    -0.273 OA
BRANCH  17  20
HETATM   20  C   UNL     1     -35.644  40.164 -58.262  1.00  0.00     0.040 A 
HETATM   21  C   UNL     1     -36.004  41.483 -57.918  1.00  0.00    -0.035 A 
HETATM   22  C   UNL     1     -35.348  42.239 -56.794  1.00  0.00     0.050 C 
HETATM   23  C   UNL     1     -37.010  42.134 -58.655  1.00  0.00     0.009 A 
HETATM   24  C   UNL     1     -37.649  41.495 -59.717  1.00  0.00     0.001 A 
HETATM   25  C   UNL     1     -37.292  40.196 -60.054  1.00  0.00     0.002 A 
HETATM   26  C   UNL     1     -36.296  39.536 -59.333  1.00  0.00     0.030 A 
ENDBRANCH  17  20
ENDBRANCH  15  16
ENDBRANCH   1  15
TORSDOF 3
ENDMDL
MODEL 10
REMARK VINA RESULT:      -7.2     14.159     16.890
REMARK  3 active torsions:
REMARK  status: ('A' for Active; 'I' for Inactive)
REMARK    1  A    between atoms: C_3  and  N_4 
REMARK       I    between atoms: N_4  and  C_5 
REMARK    2  A    between atoms: C_5  and  C_6 
REMARK    3  A    between atoms: C_6  and  C_7 
ROOT
HETATM    1  C   UNL     1     -35.736  41.972 -53.916  1.00  0.00     0.286 C 
HETATM    2  N   UNL     1     -34.300  41.448 -53.888  1.00  0.00    -0.056 N 
HETATM    3  H   UNL     1     -34.194  40.900 -54.768  1.00  0.00     0.278 HD
HETATM    4  H   UNL     1     -33.619  42.214 -53.943  1.00  0.00     0.278 HD
HETATM    5  C   UNL     1     -33.978  40.502 -52.769  1.00  0.00     0.209 C 
HETATM    6  C   UNL     1     -35.022  39.360 -52.753  1.00  0.00     0.115 C 
HETATM    7  N   UNL     1     -36.395  39.863 -52.757  1.00  0.00    -0.353 N 
HETATM    8  C   UNL     1     -36.799  40.918 -53.536  1.00  0.00     0.249 C 
HETATM    9  O   UNL     1     -37.984  41.051 -53.825  1.00  0.00    -0.271 OA
HETATM   10  C   UNL     1     -33.895  41.255 -51.441  1.00  0.00     0.035 C 
HETATM   11  C   UNL     1     -33.631  40.286 -50.290  1.00  0.00     0.002 C 
HETATM   12  C   UNL     1     -34.677  39.174 -50.237  1.00  0.00     0.002 C 
HETATM   13  C   UNL     1     -34.779  38.424 -51.565  1.00  0.00     0.027 C 
HETATM   14  H   UNL     1     -37.146  39.192 -52.601  1.00  0.00     0.163 HD
ENDROOT
BRANCH   1  15
HETATM   15  C   UNL     1     -36.056  42.587 -55.289  1.00  0.00     0.146 C 
BRANCH  15  16
HETATM   16  C   UNL     1     -36.052  41.506 -56.349  1.00  0.00     0.224 C 
HETATM   17  N   UNL     1     -37.253  41.341 -56.995  1.00  0.00    -0.327 N 
HETATM   18  H   UNL     1     -37.977  42.032 -56.841  1.00  0.00     0.169 HD
HETATM   19  O   UNL     1     -34.985  40.948 -56.616  1.00  0.00    -0.273 OA
BRANCH  17  20
HETATM   20  C   UNL     1     -37.555  40.337 -57.949  1.00  0.00     0.040 A 
HETATM   21  C   UNL     1     -37.586  40.674 -59.318  1.00  0.00    -0.035 A 
HETATM   22  C   UNL     1     -37.251  42.051 -59.825  1.00  0.00     0.050 C 
HETATM   23  C   UNL     1     -37.933  39.688 -60.259  1.00  0.00     0.009 A 
HETATM   24  C   UNL     1     -38.241  38.389 -59.857  1.00  0.00     0.001 A 
HETATM   25  C   UNL     1     -38.210  38.060 -58.508  1.00  0.00     0.002 A 
HETATM   26  C   UNL     1     -37.868  39.027 -57.561  1.00  0.00     0.030 A 
ENDBRANCH  17  20
ENDBRANCH  15  16
ENDBRANCH   1  15
TORSDOF 3
ENDMDL
