MODEL 1
REMARK VINA RESULT:      -9.9      0.000      0.000
REMARK  6 active torsions:
REMARK  status: ('A' for Active; 'I' for Inactive)
REMARK    1  A    between atoms: O_2  and  C_3 
REMARK    2  A    between atoms: C_6  and  N_7 
REMARK    3  A    between atoms: C_16  and  C_17 
REMARK    4  A    between atoms: C_17  and  C_18 
REMARK    5  A    between atoms: C_26  and  C_27 
REMARK    6  A    between atoms: C_26  and  C_31 
ROOT
HETATM    1  N   UNL     1     -43.441  56.779 -54.869  1.00  0.00    -0.249 N 
HETATM    2  C   UNL     1     -44.504  57.550 -54.372  1.00  0.00     0.335 C 
HETATM    3  O   UNL     1     -45.225  58.293 -55.032  1.00  0.00    -0.246 OA
HETATM    4  N   UNL     1     -44.697  57.490 -53.019  1.00  0.00    -0.274 N 
HETATM    5  C   UNL     1     -43.824  56.957 -52.133  1.00  0.00     0.262 C 
HETATM    6  O   UNL     1     -43.850  57.195 -50.939  1.00  0.00    -0.267 OA
HETATM    7  C   UNL     1     -42.821  56.040 -52.676  1.00  0.00     0.101 C 
HETATM    8  C   UNL     1     -42.673  55.996 -54.006  1.00  0.00     0.132 C 
HETATM    9  N   UNL     1     -41.768  55.104 -54.546  1.00  0.00    -0.331 N 
HETATM   10  C   UNL     1     -40.955  54.372 -53.814  1.00  0.00     0.084 C 
HETATM   11  N   UNL     1     -41.005  54.386 -52.500  1.00  0.00    -0.351 N 
HETATM   12  H   UNL     1     -40.332  53.824 -51.971  1.00  0.00     0.162 HD
HETATM   13  C   UNL     1     -42.056  55.175 -51.700  1.00  0.00     0.264 C 
HETATM   14  H   UNL     1     -45.388  58.139 -52.657  1.00  0.00     0.173 HD
HETATM   15  H   UNL     1     -41.695  55.021 -55.557  1.00  0.00     0.168 HD
ENDROOT
BRANCH   1  16
HETATM   16  C   UNL     1     -43.192  56.843 -56.284  1.00  0.00     0.045 A 
HETATM   17  C   UNL     1     -42.546  57.952 -56.850  1.00  0.00     0.033 A 
HETATM   18  C   UNL     1     -42.231  57.967 -58.211  1.00  0.00     0.039 A 
HETATM   19  C   UNL     1     -42.561  56.887 -59.032  1.00  0.00     0.068 A 
HETATM   20  C   UNL     1     -43.241  55.801 -58.486  1.00  0.00     0.039 A 
HETATM   21  C   UNL     1     -43.561  55.783 -57.122  1.00  0.00     0.033 A 
BRANCH  19  22
HETATM   22  O   UNL     1     -42.170  57.020 -60.333  1.00  0.00    -0.356 OA
HETATM   23  C   UNL     1     -41.871  58.336 -60.788  1.00  0.00     0.210 C 
ENDBRANCH  19  22
ENDBRANCH   1  16
BRANCH  13  24
HETATM   24  C   UNL     1     -42.955  54.146 -51.008  1.00  0.00     0.426 C 
HETATM   25  F   UNL     1     -43.846  53.663 -51.917  1.00  0.00    -0.168 F 
HETATM   26  F   UNL     1     -42.227  53.085 -50.591  1.00  0.00    -0.168 F 
HETATM   27  F   UNL     1     -43.663  54.611 -49.972  1.00  0.00    -0.168 F 
ENDBRANCH  13  24
BRANCH  13  28
HETATM   28  C   UNL     1     -41.309  55.909 -50.580  1.00  0.00     0.426 C 
HETATM   29  F   UNL     1     -40.890  57.120 -51.019  1.00  0.00    -0.168 F 
HETATM   30  F   UNL     1     -41.979  56.072 -49.435  1.00  0.00    -0.168 F 
HETATM   31  F   UNL     1     -40.178  55.206 -50.285  1.00  0.00    -0.168 F 
ENDBRANCH  13  28
BRANCH  10  32
HETATM   32  C   UNL     1     -39.939  53.520 -54.502  1.00  0.00     0.114 C 
BRANCH  32  33
HETATM   33  C   UNL     1     -39.865  52.140 -53.899  1.00  0.00    -0.051 A 
HETATM   34  C   UNL     1     -39.548  51.976 -52.542  1.00  0.00     0.007 A 
HETATM   35  C   UNL     1     -39.437  50.700 -51.992  1.00  0.00     0.001 A 
HETATM   36  C   UNL     1     -39.640  49.576 -52.789  1.00  0.00     0.000 A 
HETATM   37  C   UNL     1     -39.956  49.726 -54.137  1.00  0.00     0.001 A 
HETATM   38  C   UNL     1     -40.069  51.002 -54.693  1.00  0.00     0.007 A 
ENDBRANCH  32  33
ENDBRANCH  10  32
TORSDOF 6
ENDMDL
MODEL 2
REMARK VINA RESULT:      -9.1      2.337      3.197
REMARK  6 active torsions:
REMARK  status: ('A' for Active; 'I' for Inactive)
REMARK    1  A    between atoms: O_2  and  C_3 
REMARK    2  A    between atoms: C_6  and  N_7 
REMARK    3  A    between atoms: C_16  and  C_17 
REMARK    4  A    between atoms: C_17  and  C_18 
REMARK    5  A    between atoms: C_26  and  C_27 
REMARK    6  A    between atoms: C_26  and  C_31 
ROOT
HETATM    1  N   UNL     1     -43.101  58.709 -56.367  1.00  0.00    -0.249 N 
HETATM    2  C   UNL     1     -43.038  60.111 -56.404  1.00  0.00     0.335 C 
HETATM    3  O   UNL     1     -43.158  60.812 -57.405  1.00  0.00    -0.246 OA
HETATM    4  N   UNL     1     -42.765  60.723 -55.211  1.00  0.00    -0.274 N 
HETATM    5  C   UNL     1     -42.328  60.092 -54.097  1.00  0.00     0.262 C 
HETATM    6  O   UNL     1     -41.788  60.666 -53.168  1.00  0.00    -0.267 OA
HETATM    7  C   UNL     1     -42.547  58.647 -54.036  1.00  0.00     0.101 C 
HETATM    8  C   UNL     1     -42.915  58.026 -55.165  1.00  0.00     0.132 C 
HETATM    9  N   UNL     1     -43.175  56.671 -55.123  1.00  0.00    -0.331 N 
HETATM   10  C   UNL     1     -42.967  55.929 -54.055  1.00  0.00     0.084 C 
HETATM   11  N   UNL     1     -42.566  56.453 -52.918  1.00  0.00    -0.351 N 
HETATM   12  H   UNL     1     -42.387  55.834 -52.121  1.00  0.00     0.162 HD
HETATM   13  C   UNL     1     -42.386  57.965 -52.697  1.00  0.00     0.264 C 
HETATM   14  H   UNL     1     -42.606  61.723 -55.271  1.00  0.00     0.173 HD
HETATM   15  H   UNL     1     -43.515  56.205 -55.961  1.00  0.00     0.168 HD
ENDROOT
BRANCH   1  16
HETATM   16  C   UNL     1     -43.356  58.033 -57.610  1.00  0.00     0.045 A 
HETATM   17  C   UNL     1     -42.298  57.608 -58.428  1.00  0.00     0.033 A 
HETATM   18  C   UNL     1     -42.554  56.877 -59.590  1.00  0.00     0.039 A 
HETATM   19  C   UNL     1     -43.862  56.564 -59.963  1.00  0.00     0.068 A 
HETATM   20  C   UNL     1     -44.920  57.018 -59.179  1.00  0.00     0.039 A 
HETATM   21  C   UNL     1     -44.668  57.754 -58.014  1.00  0.00     0.033 A 
BRANCH  19  22
HETATM   22  O   UNL     1     -43.966  55.820 -61.104  1.00  0.00    -0.356 OA
HETATM   23  C   UNL     1     -45.075  54.931 -61.197  1.00  0.00     0.210 C 
ENDBRANCH  19  22
ENDBRANCH   1  16
BRANCH  13  24
HETATM   24  C   UNL     1     -43.457  58.400 -51.692  1.00  0.00     0.426 C 
HETATM   25  F   UNL     1     -44.610  58.659 -52.368  1.00  0.00    -0.168 F 
HETATM   26  F   UNL     1     -43.739  57.393 -50.834  1.00  0.00    -0.168 F 
HETATM   27  F   UNL     1     -43.164  59.495 -50.982  1.00  0.00    -0.168 F 
ENDBRANCH  13  24
BRANCH  13  28
HETATM   28  C   UNL     1     -41.038  58.158 -51.992  1.00  0.00     0.426 C 
HETATM   29  F   UNL     1     -40.043  58.238 -52.908  1.00  0.00    -0.168 F 
HETATM   30  F   UNL     1     -40.951  59.206 -51.166  1.00  0.00    -0.168 F 
HETATM   31  F   UNL     1     -40.776  57.044 -51.251  1.00  0.00    -0.168 F 
ENDBRANCH  13  28
BRANCH  10  32
HETATM   32  C   UNL     1     -43.178  54.454 -54.152  1.00  0.00     0.114 C 
BRANCH  32  33
HETATM   33  C   UNL     1     -42.028  53.684 -53.551  1.00  0.00    -0.051 A 
HETATM   34  C   UNL     1     -41.774  53.753 -52.173  1.00  0.00     0.007 A 
HETATM   35  C   UNL     1     -40.686  53.076 -51.621  1.00  0.00     0.001 A 
HETATM   36  C   UNL     1     -39.842  52.327 -52.439  1.00  0.00     0.000 A 
HETATM   37  C   UNL     1     -40.086  52.251 -53.807  1.00  0.00     0.001 A 
HETATM   38  C   UNL     1     -41.174  52.925 -54.365  1.00  0.00     0.007 A 
ENDBRANCH  32  33
ENDBRANCH  10  32
TORSDOF 6
ENDMDL
MODEL 3
REMARK VINA RESULT:      -8.7      4.109      6.771
REMARK  6 active torsions:
REMARK  status: ('A' for Active; 'I' for Inactive)
REMARK    1  A    between atoms: O_2  and  C_3 
REMARK    2  A    between atoms: C_6  and  N_7 
REMARK    3  A    between atoms: C_16  and  C_17 
REMARK    4  A    between atoms: C_17  and  C_18 
REMARK    5  A    between atoms: C_26  and  C_27 
REMARK    6  A    between atoms: C_26  and  C_31 
ROOT
HETATM    1  N   UNL     1     -42.505  58.688 -54.382  1.00  0.00    -0.249 N 
HETATM    2  C   UNL     1     -42.398  60.084 -54.486  1.00  0.00     0.335 C 
HETATM    3  O   UNL     1     -42.107  60.854 -53.576  1.00  0.00    -0.246 OA
HETATM    4  N   UNL     1     -42.704  60.610 -55.712  1.00  0.00    -0.274 N 
HETATM    5  C   UNL     1     -43.311  59.938 -56.717  1.00  0.00     0.262 C 
HETATM    6  O   UNL     1     -43.861  60.486 -57.655  1.00  0.00    -0.267 OA
HETATM    7  C   UNL     1     -43.269  58.477 -56.643  1.00  0.00     0.101 C 
HETATM    8  C   UNL     1     -42.877  57.923 -55.488  1.00  0.00     0.132 C 
HETATM    9  N   UNL     1     -42.783  56.548 -55.409  1.00  0.00    -0.331 N 
HETATM   10  C   UNL     1     -43.172  55.742 -56.374  1.00  0.00     0.084 C 
HETATM   11  N   UNL     1     -43.609  56.203 -57.525  1.00  0.00    -0.351 N 
HETATM   12  H   UNL     1     -43.931  55.540 -58.237  1.00  0.00     0.162 HD
HETATM   13  C   UNL     1     -43.629  57.698 -57.888  1.00  0.00     0.264 C 
HETATM   14  H   UNL     1     -42.739  61.624 -55.744  1.00  0.00     0.173 HD
HETATM   15  H   UNL     1     -42.426  56.124 -54.556  1.00  0.00     0.168 HD
ENDROOT
BRANCH   1  16
HETATM   16  C   UNL     1     -42.220  58.104 -53.099  1.00  0.00     0.045 A 
HETATM   17  C   UNL     1     -43.255  57.791 -52.206  1.00  0.00     0.033 A 
HETATM   18  C   UNL     1     -42.976  57.146 -50.999  1.00  0.00     0.039 A 
HETATM   19  C   UNL     1     -41.665  56.811 -50.655  1.00  0.00     0.068 A 
HETATM   20  C   UNL     1     -40.627  57.156 -51.517  1.00  0.00     0.039 A 
HETATM   21  C   UNL     1     -40.902  57.806 -52.728  1.00  0.00     0.033 A 
BRANCH  19  22
HETATM   22  O   UNL     1     -41.538  56.158 -49.463  1.00  0.00    -0.356 OA
HETATM   23  C   UNL     1     -40.642  55.051 -49.423  1.00  0.00     0.210 C 
ENDBRANCH  19  22
ENDBRANCH   1  16
BRANCH  13  24
HETATM   24  C   UNL     1     -42.610  57.898 -59.013  1.00  0.00     0.426 C 
HETATM   25  F   UNL     1     -41.374  58.048 -58.461  1.00  0.00    -0.168 F 
HETATM   26  F   UNL     1     -42.544  56.796 -59.794  1.00  0.00    -0.168 F 
HETATM   27  F   UNL     1     -42.823  58.963 -59.794  1.00  0.00    -0.168 F 
ENDBRANCH  13  24
BRANCH  13  28
HETATM   28  C   UNL     1     -45.004  57.993 -58.502  1.00  0.00     0.426 C 
HETATM   29  F   UNL     1     -45.911  58.219 -57.522  1.00  0.00    -0.168 F 
HETATM   30  F   UNL     1     -45.052  59.002 -59.378  1.00  0.00    -0.168 F 
HETATM   31  F   UNL     1     -45.430  56.875 -59.156  1.00  0.00    -0.168 F 
ENDBRANCH  13  28
BRANCH  10  32
HETATM   32  C   UNL     1     -43.129  54.268 -56.141  1.00  0.00     0.114 C 
BRANCH  32  33
HETATM   33  C   UNL     1     -42.319  53.918 -54.917  1.00  0.00    -0.051 A 
HETATM   34  C   UNL     1     -42.875  54.060 -53.637  1.00  0.00     0.007 A 
HETATM   35  C   UNL     1     -42.115  53.777 -52.503  1.00  0.00     0.001 A 
HETATM   36  C   UNL     1     -40.794  53.354 -52.634  1.00  0.00     0.000 A 
HETATM   37  C   UNL     1     -40.232  53.208 -53.900  1.00  0.00     0.001 A 
HETATM   38  C   UNL     1     -40.989  53.489 -55.039  1.00  0.00     0.007 A 
ENDBRANCH  32  33
ENDBRANCH  10  32
TORSDOF 6
ENDMDL
MODEL 4
REMARK VINA RESULT:      -8.6      3.195      6.100
REMARK  6 active torsions:
REMARK  status: ('A' for Active; 'I' for Inactive)
REMARK    1  A    between atoms: O_2  and  C_3 
REMARK    2  A    between atoms: C_6  and  N_7 
REMARK    3  A    between atoms: C_16  and  C_17 
REMARK    4  A    between atoms: C_17  and  C_18 
REMARK    5  A    between atoms: C_26  and  C_27 
REMARK    6  A    between atoms: C_26  and  C_31 
ROOT
HETATM    1  N   UNL     1     -43.333  58.427 -53.441  1.00  0.00    -0.249 N 
HETATM    2  C   UNL     1     -43.411  58.091 -52.080  1.00  0.00     0.335 C 
HETATM    3  O   UNL     1     -43.761  58.839 -51.172  1.00  0.00    -0.246 OA
HETATM    4  N   UNL     1     -43.005  56.824 -51.759  1.00  0.00    -0.274 N 
HETATM    5  C   UNL     1     -42.332  55.991 -52.587  1.00  0.00     0.262 C 
HETATM    6  O   UNL     1     -41.705  55.022 -52.198  1.00  0.00    -0.267 OA
HETATM    7  C   UNL     1     -42.400  56.296 -54.016  1.00  0.00     0.101 C 
HETATM    8  C   UNL     1     -42.887  57.491 -54.375  1.00  0.00     0.132 C 
HETATM    9  N   UNL     1     -43.006  57.784 -55.719  1.00  0.00    -0.331 N 
HETATM   10  C   UNL     1     -42.555  56.994 -56.671  1.00  0.00     0.084 C 
HETATM   11  N   UNL     1     -42.024  55.821 -56.403  1.00  0.00    -0.351 N 
HETATM   12  H   UNL     1     -41.658  55.253 -57.173  1.00  0.00     0.162 HD
HETATM   13  C   UNL     1     -41.956  55.225 -54.987  1.00  0.00     0.264 C 
HETATM   14  H   UNL     1     -42.954  56.631 -50.764  1.00  0.00     0.173 HD
HETATM   15  H   UNL     1     -43.433  58.663 -55.999  1.00  0.00     0.168 HD
ENDROOT
BRANCH   1  16
HETATM   16  C   UNL     1     -43.723  59.761 -53.809  1.00  0.00     0.045 A 
HETATM   17  C   UNL     1     -45.061  60.064 -54.098  1.00  0.00     0.033 A 
HETATM   18  C   UNL     1     -45.445  61.380 -54.371  1.00  0.00     0.039 A 
HETATM   19  C   UNL     1     -44.505  62.412 -54.369  1.00  0.00     0.068 A 
HETATM   20  C   UNL     1     -43.167  62.112 -54.124  1.00  0.00     0.039 A 
HETATM   21  C   UNL     1     -42.778  60.794 -53.853  1.00  0.00     0.033 A 
BRANCH  19  22
HETATM   22  O   UNL     1     -45.019  63.651 -54.622  1.00  0.00    -0.356 OA
HETATM   23  C   UNL     1     -44.425  64.750 -53.939  1.00  0.00     0.210 C 
ENDBRANCH  19  22
ENDBRANCH   1  16
BRANCH  13  24
HETATM   24  C   UNL     1     -42.884  54.006 -54.970  1.00  0.00     0.426 C 
HETATM   25  F   UNL     1     -43.969  54.295 -54.201  1.00  0.00    -0.168 F 
HETATM   26  F   UNL     1     -43.356  53.754 -56.212  1.00  0.00    -0.168 F 
HETATM   27  F   UNL     1     -42.343  52.884 -54.482  1.00  0.00    -0.168 F 
ENDBRANCH  13  24
BRANCH  13  28
HETATM   28  C   UNL     1     -40.535  54.680 -54.797  1.00  0.00     0.426 C 
HETATM   29  F   UNL     1     -39.658  55.706 -54.675  1.00  0.00    -0.168 F 
HETATM   30  F   UNL     1     -40.360  53.838 -53.774  1.00  0.00    -0.168 F 
HETATM   31  F   UNL     1     -40.176  54.013 -55.930  1.00  0.00    -0.168 F 
ENDBRANCH  13  28
BRANCH  10  32
HETATM   32  C   UNL     1     -42.637  57.458 -58.089  1.00  0.00     0.114 C 
BRANCH  32  33
HETATM   33  C   UNL     1     -43.755  56.777 -58.837  1.00  0.00    -0.051 A 
HETATM   34  C   UNL     1     -43.512  55.592 -59.548  1.00  0.00     0.007 A 
HETATM   35  C   UNL     1     -44.533  54.983 -60.275  1.00  0.00     0.001 A 
HETATM   36  C   UNL     1     -45.806  55.550 -60.302  1.00  0.00     0.000 A 
HETATM   37  C   UNL     1     -46.059  56.725 -59.599  1.00  0.00     0.001 A 
HETATM   38  C   UNL     1     -45.040  57.338 -58.868  1.00  0.00     0.007 A 
ENDBRANCH  32  33
ENDBRANCH  10  32
TORSDOF 6
ENDMDL
MODEL 5
REMARK VINA RESULT:      -8.5      3.133      5.967
REMARK  6 active torsions:
REMARK  status: ('A' for Active; 'I' for Inactive)
REMARK    1  A    between atoms: O_2  and  C_3 
REMARK    2  A    between atoms: C_6  and  N_7 
REMARK    3  A    between atoms: C_16  and  C_17 
REMARK    4  A    between atoms: C_17  and  C_18 
REMARK    5  A    between atoms: C_26  and  C_27 
REMARK    6  A    between atoms: C_26  and  C_31 
ROOT
HETATM    1  N   UNL     1     -42.594  59.066 -55.140  1.00  0.00    -0.249 N 
HETATM    2  C   UNL     1     -42.458  59.399 -53.783  1.00  0.00     0.335 C 
HETATM    3  O   UNL     1     -42.534  60.527 -53.306  1.00  0.00    -0.246 OA
HETATM    4  N   UNL     1     -42.161  58.358 -52.946  1.00  0.00    -0.274 N 
HETATM    5  C   UNL     1     -41.764  57.128 -53.346  1.00  0.00     0.262 C 
HETATM    6  O   UNL     1     -41.201  56.333 -52.615  1.00  0.00    -0.267 OA
HETATM    7  C   UNL     1     -42.060  56.766 -54.732  1.00  0.00     0.101 C 
HETATM    8  C   UNL     1     -42.453  57.743 -55.560  1.00  0.00     0.132 C 
HETATM    9  N   UNL     1     -42.785  57.419 -56.861  1.00  0.00    -0.331 N 
HETATM   10  C   UNL     1     -42.623  56.215 -57.367  1.00  0.00     0.084 C 
HETATM   11  N   UNL     1     -42.202  55.207 -56.634  1.00  0.00    -0.351 N 
HETATM   12  H   UNL     1     -42.061  54.294 -57.077  1.00  0.00     0.162 HD
HETATM   13  C   UNL     1     -41.944  55.309 -55.121  1.00  0.00     0.264 C 
HETATM   14  H   UNL     1     -41.948  58.626 -51.990  1.00  0.00     0.173 HD
HETATM   15  H   UNL     1     -43.143  58.145 -57.477  1.00  0.00     0.168 HD
ENDROOT
BRANCH   1  16
HETATM   16  C   UNL     1     -42.877  60.141 -56.052  1.00  0.00     0.045 A 
HETATM   17  C   UNL     1     -41.868  60.675 -56.867  1.00  0.00     0.033 A 
HETATM   18  C   UNL     1     -42.171  61.661 -57.811  1.00  0.00     0.039 A 
HETATM   19  C   UNL     1     -43.476  62.137 -57.952  1.00  0.00     0.068 A 
HETATM   20  C   UNL     1     -44.474  61.641 -57.117  1.00  0.00     0.039 A 
HETATM   21  C   UNL     1     -44.175  60.656 -56.168  1.00  0.00     0.033 A 
BRANCH  19  22
HETATM   22  O   UNL     1     -43.636  63.076 -58.931  1.00  0.00    -0.356 OA
HETATM   23  C   UNL     1     -42.570  63.230 -59.862  1.00  0.00     0.210 C 
ENDBRANCH  19  22
ENDBRANCH   1  16
BRANCH  13  24
HETATM   24  C   UNL     1     -42.997  54.438 -54.429  1.00  0.00     0.426 C 
HETATM   25  F   UNL     1     -44.146  55.158 -54.306  1.00  0.00    -0.168 F 
HETATM   26  F   UNL     1     -43.302  53.366 -55.194  1.00  0.00    -0.168 F 
HETATM   27  F   UNL     1     -42.669  54.010 -53.205  1.00  0.00    -0.168 F 
ENDBRANCH  13  24
BRANCH  13  28
HETATM   28  C   UNL     1     -40.592  54.638 -54.850  1.00  0.00     0.426 C 
HETATM   29  F   UNL     1     -39.594  55.549 -54.946  1.00  0.00    -0.168 F 
HETATM   30  F   UNL     1     -40.479  53.994 -53.684  1.00  0.00    -0.168 F 
HETATM   31  F   UNL     1     -40.361  53.724 -55.835  1.00  0.00    -0.168 F 
ENDBRANCH  13  28
BRANCH  10  32
HETATM   32  C   UNL     1     -42.910  56.000 -58.817  1.00  0.00     0.114 C 
BRANCH  32  33
HETATM   33  C   UNL     1     -43.003  57.304 -59.569  1.00  0.00    -0.051 A 
HETATM   34  C   UNL     1     -44.249  57.911 -59.782  1.00  0.00     0.007 A 
HETATM   35  C   UNL     1     -44.342  59.095 -60.513  1.00  0.00     0.001 A 
HETATM   36  C   UNL     1     -43.193  59.683 -61.039  1.00  0.00     0.000 A 
HETATM   37  C   UNL     1     -41.951  59.090 -60.832  1.00  0.00     0.001 A 
HETATM   38  C   UNL     1     -41.852  57.905 -60.100  1.00  0.00     0.007 A 
ENDBRANCH  32  33
ENDBRANCH  10  32
TORSDOF 6
ENDMDL
MODEL 6
REMARK VINA RESULT:      -8.4      3.393      5.776
REMARK  6 active torsions:
REMARK  status: ('A' for Active; 'I' for Inactive)
REMARK    1  A    between atoms: O_2  and  C_3 
REMARK    2  A    between atoms: C_6  and  N_7 
REMARK    3  A    between atoms: C_16  and  C_17 
REMARK    4  A    between atoms: C_17  and  C_18 
REMARK    5  A    between atoms: C_26  and  C_27 
REMARK    6  A    between atoms: C_26  and  C_31 
ROOT
HETATM    1  N   UNL     1     -42.547  56.193 -55.620  1.00  0.00    -0.249 N 
HETATM    2  C   UNL     1     -42.964  56.269 -56.959  1.00  0.00     0.335 C 
HETATM    3  O   UNL     1     -42.792  55.408 -57.817  1.00  0.00    -0.246 OA
HETATM    4  N   UNL     1     -43.568  57.441 -57.325  1.00  0.00    -0.274 N 
HETATM    5  C   UNL     1     -43.572  58.576 -56.588  1.00  0.00     0.262 C 
HETATM    6  O   UNL     1     -43.819  59.675 -57.050  1.00  0.00    -0.267 OA
HETATM    7  C   UNL     1     -43.275  58.430 -55.163  1.00  0.00     0.101 C 
HETATM    8  C   UNL     1     -42.776  57.258 -54.748  1.00  0.00     0.132 C 
HETATM    9  N   UNL     1     -42.533  57.078 -53.401  1.00  0.00    -0.331 N 
HETATM   10  C   UNL     1     -42.656  58.042 -52.512  1.00  0.00     0.084 C 
HETATM   11  N   UNL     1     -43.100  59.234 -52.842  1.00  0.00    -0.351 N 
HETATM   12  H   UNL     1     -43.150  59.963 -52.123  1.00  0.00     0.162 HD
HETATM   13  C   UNL     1     -43.594  59.595 -54.253  1.00  0.00     0.264 C 
HETATM   14  H   UNL     1     -43.758  57.531 -58.317  1.00  0.00     0.173 HD
HETATM   15  H   UNL     1     -42.212  56.171 -53.071  1.00  0.00     0.168 HD
ENDROOT
BRANCH   1  16
HETATM   16  C   UNL     1     -41.881  54.987 -55.210  1.00  0.00     0.045 A 
HETATM   17  C   UNL     1     -40.481  54.922 -55.154  1.00  0.00     0.033 A 
HETATM   18  C   UNL     1     -39.845  53.774 -54.673  1.00  0.00     0.039 A 
HETATM   19  C   UNL     1     -40.589  52.672 -54.249  1.00  0.00     0.068 A 
HETATM   20  C   UNL     1     -41.978  52.713 -54.340  1.00  0.00     0.039 A 
HETATM   21  C   UNL     1     -42.619  53.860 -54.825  1.00  0.00     0.033 A 
BRANCH  19  22
HETATM   22  O   UNL     1     -39.844  51.631 -53.774  1.00  0.00    -0.356 OA
HETATM   23  C   UNL     1     -40.125  50.339 -54.302  1.00  0.00     0.210 C 
ENDBRANCH  19  22
ENDBRANCH   1  16
BRANCH  13  24
HETATM   24  C   UNL     1     -45.100  59.852 -54.147  1.00  0.00     0.426 C 
HETATM   25  F   UNL     1     -45.749  58.655 -54.141  1.00  0.00    -0.168 F 
HETATM   26  F   UNL     1     -45.396  60.448 -52.970  1.00  0.00    -0.168 F 
HETATM   27  F   UNL     1     -45.627  60.580 -55.138  1.00  0.00    -0.168 F 
ENDBRANCH  13  24
BRANCH  13  28
HETATM   28  C   UNL     1     -42.958  60.940 -54.622  1.00  0.00     0.426 C 
HETATM   29  F   UNL     1     -41.795  60.737 -55.286  1.00  0.00    -0.168 F 
HETATM   30  F   UNL     1     -43.721  61.777 -55.333  1.00  0.00    -0.168 F 
HETATM   31  F   UNL     1     -42.623  61.588 -53.469  1.00  0.00    -0.168 F 
ENDBRANCH  13  28
BRANCH  10  32
HETATM   32  C   UNL     1     -42.261  57.769 -51.097  1.00  0.00     0.114 C 
BRANCH  32  33
HETATM   33  C   UNL     1     -41.952  56.310 -50.874  1.00  0.00    -0.051 A 
HETATM   34  C   UNL     1     -40.666  55.911 -50.480  1.00  0.00     0.007 A 
HETATM   35  C   UNL     1     -40.365  54.560 -50.313  1.00  0.00     0.001 A 
HETATM   36  C   UNL     1     -41.344  53.594 -50.540  1.00  0.00     0.000 A 
HETATM   37  C   UNL     1     -42.624  53.978 -50.931  1.00  0.00     0.001 A 
HETATM   38  C   UNL     1     -42.930  55.330 -51.098  1.00  0.00     0.007 A 
ENDBRANCH  32  33
ENDBRANCH  10  32
TORSDOF 6
ENDMDL
MODEL 7
REMARK VINA RESULT:      -8.3     14.995     18.208
REMARK  6 active torsions:
REMARK  status: ('A' for Active; 'I' for Inactive)
REMARK    1  A    between atoms: O_2  and  C_3 
REMARK    2  A    between atoms: C_6  and  N_7 
REMARK    3  A    between atoms: C_16  and  C_17 
REMARK    4  A    between atoms: C_17  and  C_18 
REMARK    5  A    between atoms: C_26  and  C_27 
REMARK    6  A    between atoms: C_26  and  C_31 
ROOT
HETATM    1  N   UNL     1     -33.263  39.799 -53.879  1.00  0.00    -0.249 N 
HETATM    2  C   UNL     1     -32.309  39.876 -54.906  1.00  0.00     0.335 C 
HETATM    3  O   UNL     1     -31.101  39.693 -54.783  1.00  0.00    -0.246 OA
HETATM    4  N   UNL     1     -32.790  40.240 -56.134  1.00  0.00    -0.274 N 
HETATM    5  C   UNL     1     -34.023  40.748 -56.366  1.00  0.00     0.262 C 
HETATM    6  O   UNL     1     -34.317  41.359 -57.378  1.00  0.00    -0.267 OA
HETATM    7  C   UNL     1     -35.029  40.516 -55.331  1.00  0.00     0.101 C 
HETATM    8  C   UNL     1     -34.608  40.061 -54.143  1.00  0.00     0.132 C 
HETATM    9  N   UNL     1     -35.543  39.788 -53.165  1.00  0.00    -0.331 N 
HETATM   10  C   UNL     1     -36.824  40.062 -53.297  1.00  0.00     0.084 C 
HETATM   11  N   UNL     1     -37.315  40.550 -54.415  1.00  0.00    -0.351 N 
HETATM   12  H   UNL     1     -38.313  40.777 -54.462  1.00  0.00     0.162 HD
HETATM   13  C   UNL     1     -36.478  40.763 -55.688  1.00  0.00     0.264 C 
HETATM   14  H   UNL     1     -32.079  40.407 -56.839  1.00  0.00     0.173 HD
HETATM   15  H   UNL     1     -35.236  39.384 -52.284  1.00  0.00     0.168 HD
ENDROOT
BRANCH   1  16
HETATM   16  C   UNL     1     -32.786  39.448 -52.569  1.00  0.00     0.045 A 
HETATM   17  C   UNL     1     -32.380  40.439 -51.663  1.00  0.00     0.033 A 
HETATM   18  C   UNL     1     -32.000  40.094 -50.363  1.00  0.00     0.039 A 
HETATM   19  C   UNL     1     -32.009  38.762 -49.946  1.00  0.00     0.068 A 
HETATM   20  C   UNL     1     -32.371  37.769 -50.853  1.00  0.00     0.039 A 
HETATM   21  C   UNL     1     -32.750  38.109 -52.158  1.00  0.00     0.033 A 
BRANCH  19  22
HETATM   22  O   UNL     1     -31.644  38.570 -48.644  1.00  0.00    -0.356 OA
HETATM   23  C   UNL     1     -31.298  39.728 -47.891  1.00  0.00     0.210 C 
ENDBRANCH  19  22
ENDBRANCH   1  16
BRANCH  13  24
HETATM   24  C   UNL     1     -36.995  39.771 -56.734  1.00  0.00     0.426 C 
HETATM   25  F   UNL     1     -36.736  38.506 -56.302  1.00  0.00    -0.168 F 
HETATM   26  F   UNL     1     -38.339  39.864 -56.850  1.00  0.00    -0.168 F 
HETATM   27  F   UNL     1     -36.452  39.890 -57.951  1.00  0.00    -0.168 F 
ENDBRANCH  13  24
BRANCH  13  28
HETATM   28  C   UNL     1     -36.819  42.160 -56.220  1.00  0.00     0.426 C 
HETATM   29  F   UNL     1     -36.004  43.083 -55.656  1.00  0.00    -0.168 F 
HETATM   30  F   UNL     1     -36.784  42.308 -57.549  1.00  0.00    -0.168 F 
HETATM   31  F   UNL     1     -38.082  42.478 -55.816  1.00  0.00    -0.168 F 
ENDBRANCH  13  28
BRANCH  10  32
HETATM   32  C   UNL     1     -37.733  39.828 -52.135  1.00  0.00     0.114 C 
BRANCH  32  33
HETATM   33  C   UNL     1     -37.036  39.088 -51.020  1.00  0.00    -0.051 A 
HETATM   34  C   UNL     1     -36.277  39.790 -50.072  1.00  0.00     0.007 A 
HETATM   35  C   UNL     1     -35.597  39.105 -49.065  1.00  0.00     0.001 A 
HETATM   36  C   UNL     1     -35.667  37.715 -48.996  1.00  0.00     0.000 A 
HETATM   37  C   UNL     1     -36.418  37.008 -49.931  1.00  0.00     0.001 A 
HETATM   38  C   UNL     1     -37.102  37.689 -50.941  1.00  0.00     0.007 A 
ENDBRANCH  32  33
ENDBRANCH  10  32
TORSDOF 6
ENDMDL
MODEL 8
REMARK VINA RESULT:      -8.3      4.308      7.690
REMARK  6 active torsions:
REMARK  status: ('A' for Active; 'I' for Inactive)
REMARK    1  A    between atoms: O_2  and  C_3 
REMARK    2  A    between atoms: C_6  and  N_7 
REMARK    3  A    between atoms: C_16  and  C_17 
REMARK    4  A    between atoms: C_17  and  C_18 
REMARK    5  A    between atoms: C_26  and  C_27 
REMARK    6  A    between atoms: C_26  and  C_31 
ROOT
HETATM    1  N   UNL     1     -42.836  55.804 -55.117  1.00  0.00    -0.249 N 
HETATM    2  C   UNL     1     -43.189  54.670 -55.865  1.00  0.00     0.335 C 
HETATM    3  O   UNL     1     -43.191  53.511 -55.460  1.00  0.00    -0.246 OA
HETATM    4  N   UNL     1     -43.506  54.901 -57.176  1.00  0.00    -0.274 N 
HETATM    5  C   UNL     1     -43.276  56.058 -57.839  1.00  0.00     0.262 C 
HETATM    6  O   UNL     1     -43.257  56.144 -59.053  1.00  0.00    -0.267 OA
HETATM    7  C   UNL     1     -43.058  57.249 -57.017  1.00  0.00     0.101 C 
HETATM    8  C   UNL     1     -42.844  57.069 -55.706  1.00  0.00     0.132 C 
HETATM    9  N   UNL     1     -42.684  58.179 -54.901  1.00  0.00    -0.331 N 
HETATM   10  C   UNL     1     -42.613  59.407 -55.372  1.00  0.00     0.084 C 
HETATM   11  N   UNL     1     -42.770  59.667 -56.651  1.00  0.00    -0.351 N 
HETATM   12  H   UNL     1     -42.675  60.634 -56.977  1.00  0.00     0.162 HD
HETATM   13  C   UNL     1     -43.132  58.597 -57.696  1.00  0.00     0.264 C 
HETATM   14  H   UNL     1     -43.644  54.065 -57.735  1.00  0.00     0.173 HD
HETATM   15  H   UNL     1     -42.584  58.053 -53.897  1.00  0.00     0.168 HD
ENDROOT
BRANCH   1  16
HETATM   16  C   UNL     1     -42.468  55.594 -53.743  1.00  0.00     0.045 A 
HETATM   17  C   UNL     1     -41.176  55.166 -53.403  1.00  0.00     0.033 A 
HETATM   18  C   UNL     1     -40.803  55.047 -52.061  1.00  0.00     0.039 A 
HETATM   19  C   UNL     1     -41.707  55.341 -51.040  1.00  0.00     0.068 A 
HETATM   20  C   UNL     1     -43.005  55.725 -51.370  1.00  0.00     0.039 A 
HETATM   21  C   UNL     1     -43.385  55.844 -52.713  1.00  0.00     0.033 A 
BRANCH  19  22
HETATM   22  O   UNL     1     -41.203  55.211 -49.777  1.00  0.00    -0.356 OA
HETATM   23  C   UNL     1     -39.970  54.512 -49.642  1.00  0.00     0.210 C 
ENDBRANCH  19  22
ENDBRANCH   1  16
BRANCH  13  24
HETATM   24  C   UNL     1     -44.545  58.920 -58.192  1.00  0.00     0.426 C 
HETATM   25  F   UNL     1     -45.438  58.569 -57.226  1.00  0.00    -0.168 F 
HETATM   26  F   UNL     1     -44.690  60.251 -58.376  1.00  0.00    -0.168 F 
HETATM   27  F   UNL     1     -44.913  58.291 -59.315  1.00  0.00    -0.168 F 
ENDBRANCH  13  24
BRANCH  13  28
HETATM   28  C   UNL     1     -42.201  58.808 -58.896  1.00  0.00     0.426 C 
HETATM   29  F   UNL     1     -41.107  58.017 -58.779  1.00  0.00    -0.168 F 
HETATM   30  F   UNL     1     -42.744  58.619 -60.102  1.00  0.00    -0.168 F 
HETATM   31  F   UNL     1     -41.741  60.091 -58.863  1.00  0.00    -0.168 F 
ENDBRANCH  13  28
BRANCH  10  32
HETATM   32  C   UNL     1     -42.328  60.525 -54.423  1.00  0.00     0.114 C 
BRANCH  32  33
HETATM   33  C   UNL     1     -41.894  60.015 -53.072  1.00  0.00    -0.051 A 
HETATM   34  C   UNL     1     -42.595  60.390 -51.916  1.00  0.00     0.007 A 
HETATM   35  C   UNL     1     -42.171  59.954 -50.661  1.00  0.00     0.001 A 
HETATM   36  C   UNL     1     -41.044  59.144 -50.547  1.00  0.00     0.000 A 
HETATM   37  C   UNL     1     -40.340  58.766 -51.687  1.00  0.00     0.001 A 
HETATM   38  C   UNL     1     -40.761  59.198 -52.946  1.00  0.00     0.007 A 
ENDBRANCH  32  33
ENDBRANCH  10  32
TORSDOF 6
ENDMDL
MODEL 9
REMARK VINA RESULT:      -8.2      4.660      7.168
REMARK  6 active torsions:
REMARK  status: ('A' for Active; 'I' for Inactive)
REMARK    1  A    between atoms: O_2  and  C_3 
REMARK    2  A    between atoms: C_6  and  N_7 
REMARK    3  A    between atoms: C_16  and  C_17 
REMARK    4  A    between atoms: C_17  and  C_18 
REMARK    5  A    between atoms: C_26  and  C_27 
REMARK    6  A    between atoms: C_26  and  C_31 
ROOT
HETATM    1  N   UNL     1     -44.082  59.245 -56.054  1.00  0.00    -0.249 N 
HETATM    2  C   UNL     1     -44.618  60.335 -56.758  1.00  0.00     0.335 C 
HETATM    3  O   UNL     1     -45.051  61.371 -56.261  1.00  0.00    -0.246 OA
HETATM    4  N   UNL     1     -44.702  60.179 -58.115  1.00  0.00    -0.274 N 
HETATM    5  C   UNL     1     -44.541  59.009 -58.774  1.00  0.00     0.262 C 
HETATM    6  O   UNL     1     -44.931  58.820 -59.912  1.00  0.00    -0.267 OA
HETATM    7  C   UNL     1     -43.844  57.944 -58.053  1.00  0.00     0.101 C 
HETATM    8  C   UNL     1     -43.652  58.106 -56.737  1.00  0.00     0.132 C 
HETATM    9  N   UNL     1     -42.954  57.138 -56.043  1.00  0.00    -0.331 N 
HETATM   10  C   UNL     1     -42.565  56.002 -56.583  1.00  0.00     0.084 C 
HETATM   11  N   UNL     1     -42.751  55.745 -57.859  1.00  0.00    -0.351 N 
HETATM   12  H   UNL     1     -42.461  54.835 -58.231  1.00  0.00     0.162 HD
HETATM   13  C   UNL     1     -43.350  56.758 -58.850  1.00  0.00     0.264 C 
HETATM   14  H   UNL     1     -45.198  60.921 -58.599  1.00  0.00     0.173 HD
HETATM   15  H   UNL     1     -42.750  57.284 -55.057  1.00  0.00     0.168 HD
ENDROOT
BRANCH   1  16
HETATM   16  C   UNL     1     -44.007  59.363 -54.623  1.00  0.00     0.045 A 
HETATM   17  C   UNL     1     -42.911  59.987 -54.010  1.00  0.00     0.033 A 
HETATM   18  C   UNL     1     -42.887  60.174 -52.625  1.00  0.00     0.039 A 
HETATM   19  C   UNL     1     -43.946  59.735 -51.829  1.00  0.00     0.068 A 
HETATM   20  C   UNL     1     -45.019  59.076 -52.425  1.00  0.00     0.039 A 
HETATM   21  C   UNL     1     -45.045  58.885 -53.813  1.00  0.00     0.033 A 
BRANCH  19  22
HETATM   22  O   UNL     1     -43.808  60.007 -50.497  1.00  0.00    -0.356 OA
HETATM   23  C   UNL     1     -43.546  61.359 -50.137  1.00  0.00     0.210 C 
ENDBRANCH  19  22
ENDBRANCH   1  16
BRANCH  13  24
HETATM   24  C   UNL     1     -42.234  57.140 -59.828  1.00  0.00     0.426 C 
HETATM   25  F   UNL     1     -41.322  57.907 -59.170  1.00  0.00    -0.168 F 
HETATM   26  F   UNL     1     -41.572  56.037 -60.244  1.00  0.00    -0.168 F 
HETATM   27  F   UNL     1     -42.628  57.833 -60.902  1.00  0.00    -0.168 F 
ENDBRANCH  13  24
BRANCH  13  28
HETATM   28  C   UNL     1     -44.402  56.009 -59.677  1.00  0.00     0.426 C 
HETATM   29  F   UNL     1     -45.633  56.202 -59.146  1.00  0.00    -0.168 F 
HETATM   30  F   UNL     1     -44.443  56.302 -60.981  1.00  0.00    -0.168 F 
HETATM   31  F   UNL     1     -44.156  54.672 -59.576  1.00  0.00    -0.168 F 
ENDBRANCH  13  28
BRANCH  10  32
HETATM   32  C   UNL     1     -41.913  54.978 -55.714  1.00  0.00     0.114 C 
BRANCH  32  33
HETATM   33  C   UNL     1     -42.091  55.292 -54.249  1.00  0.00    -0.051 A 
HETATM   34  C   UNL     1     -41.211  56.173 -53.603  1.00  0.00     0.007 A 
HETATM   35  C   UNL     1     -41.348  56.433 -52.240  1.00  0.00     0.001 A 
HETATM   36  C   UNL     1     -42.360  55.815 -51.509  1.00  0.00     0.000 A 
HETATM   37  C   UNL     1     -43.240  54.939 -52.140  1.00  0.00     0.001 A 
HETATM   38  C   UNL     1     -43.108  54.677 -53.505  1.00  0.00     0.007 A 
ENDBRANCH  32  33
ENDBRANCH  10  32
TORSDOF 6
ENDMDL
MODEL 10
REMARK VINA RESULT:      -8.2      3.909      6.643
REMARK  6 active torsions:
REMARK  status: ('A' for Active; 'I' for Inactive)
REMARK    1  A    between atoms: O_2  and  C_3 
REMARK    2  A    between atoms: C_6  and  N_7 
REMARK    3  A    between atoms: C_16  and  C_17 
REMARK    4  A    between atoms: C_17  and  C_18 
REMARK    5  A    between atoms: C_26  and  C_27 
REMARK    6  A    between atoms: C_26  and  C_31 
ROOT
HETATM    1  N   UNL     1     -43.199  58.287 -52.811  1.00  0.00    -0.249 N 
HETATM    2  C   UNL     1     -43.480  59.581 -52.344  1.00  0.00     0.335 C 
HETATM    3  O   UNL     1     -43.454  59.945 -51.172  1.00  0.00    -0.246 OA
HETATM    4  N   UNL     1     -43.865  60.484 -53.297  1.00  0.00    -0.274 N 
HETATM    5  C   UNL     1     -44.217  60.171 -54.566  1.00  0.00     0.262 C 
HETATM    6  O   UNL     1     -44.856  60.915 -55.288  1.00  0.00    -0.267 OA
HETATM    7  C   UNL     1     -43.775  58.869 -55.063  1.00  0.00     0.101 C 
HETATM    8  C   UNL     1     -43.295  57.992 -54.171  1.00  0.00     0.132 C 
HETATM    9  N   UNL     1     -42.827  56.774 -54.622  1.00  0.00    -0.331 N 
HETATM   10  C   UNL     1     -42.934  56.379 -55.874  1.00  0.00     0.084 C 
HETATM   11  N   UNL     1     -43.431  57.162 -56.805  1.00  0.00    -0.351 N 
HETATM   12  H   UNL     1     -43.525  56.802 -57.760  1.00  0.00     0.162 HD
HETATM   13  C   UNL     1     -43.850  58.621 -56.553  1.00  0.00     0.264 C 
HETATM   14  H   UNL     1     -44.179  61.379 -52.935  1.00  0.00     0.173 HD
HETATM   15  H   UNL     1     -42.404  56.129 -53.959  1.00  0.00     0.168 HD
ENDROOT
BRANCH   1  16
HETATM   16  C   UNL     1     -42.820  57.306 -51.831  1.00  0.00     0.045 A 
HETATM   17  C   UNL     1     -43.773  56.438 -51.278  1.00  0.00     0.033 A 
HETATM   18  C   UNL     1     -43.381  55.432 -50.391  1.00  0.00     0.039 A 
HETATM   19  C   UNL     1     -42.041  55.278 -50.034  1.00  0.00     0.068 A 
HETATM   20  C   UNL     1     -41.094  56.162 -50.546  1.00  0.00     0.039 A 
HETATM   21  C   UNL     1     -41.483  57.174 -51.433  1.00  0.00     0.033 A 
BRANCH  19  22
HETATM   22  O   UNL     1     -41.793  54.238 -49.184  1.00  0.00    -0.356 OA
HETATM   23  C   UNL     1     -40.448  53.781 -49.094  1.00  0.00     0.210 C 
ENDBRANCH  19  22
ENDBRANCH   1  16
BRANCH  13  24
HETATM   24  C   UNL     1     -42.877  59.506 -57.338  1.00  0.00     0.426 C 
HETATM   25  F   UNL     1     -43.531  60.635 -57.727  1.00  0.00    -0.168 F 
HETATM   26  F   UNL     1     -41.860  59.912 -56.545  1.00  0.00    -0.168 F 
HETATM   27  F   UNL     1     -42.362  58.951 -58.441  1.00  0.00    -0.168 F 
ENDBRANCH  13  24
BRANCH  13  28
HETATM   28  C   UNL     1     -45.223  58.813 -57.208  1.00  0.00     0.426 C 
HETATM   29  F   UNL     1     -46.196  58.345 -56.390  1.00  0.00    -0.168 F 
HETATM   30  F   UNL     1     -45.530  60.062 -57.574  1.00  0.00    -0.168 F 
HETATM   31  F   UNL     1     -45.276  58.043 -58.331  1.00  0.00    -0.168 F 
ENDBRANCH  13  28
BRANCH  10  32
HETATM   32  C   UNL     1     -42.493  54.997 -56.232  1.00  0.00     0.114 C 
BRANCH  32  33
HETATM   33  C   UNL     1     -41.779  54.323 -55.087  1.00  0.00    -0.051 A 
HETATM   34  C   UNL     1     -40.426  53.970 -55.207  1.00  0.00     0.007 A 
HETATM   35  C   UNL     1     -39.774  53.309 -54.166  1.00  0.00     0.001 A 
HETATM   36  C   UNL     1     -40.465  52.993 -52.998  1.00  0.00     0.000 A 
HETATM   37  C   UNL     1     -41.807  53.340 -52.868  1.00  0.00     0.001 A 
HETATM   38  C   UNL     1     -42.464  54.003 -53.906  1.00  0.00     0.007 A 
ENDBRANCH  32  33
ENDBRANCH  10  32
TORSDOF 6
ENDMDL
