MODEL 1
REMARK VINA RESULT:      -7.8      0.000      0.000
REMARK  8 active torsions:
REMARK  status: ('A' for Active; 'I' for Inactive)
REMARK    1  A    between atoms: C_4  and  N_5 
REMARK    2  A    between atoms: N_8  and  C_10 
REMARK    3  A    between atoms: C_10  and  C_11 
REMARK    4  A    between atoms: C_11  and  C_12 
REMARK       I    between atoms: C_12  and  N_13 
REMARK    5  A    between atoms: N_13  and  N_14 
REMARK    6  A    between atoms: N_14  and  C_15 
REMARK    7  A    between atoms: C_15  and  N_16 
REMARK    8  A    between atoms: N_16  and  C_17 
ROOT
HETATM    1  C   UNL     1     -42.052  58.003 -51.044  1.00  0.00     0.237 C 
HETATM    2  N   UNL     1     -42.361  56.803 -50.457  1.00  0.00    -0.268 N 
HETATM    3  O   UNL     1     -42.876  58.910 -51.119  1.00  0.00    -0.272 OA
HETATM    4  H   UNL     1     -43.348  56.606 -50.279  1.00  0.00     0.190 HD
ENDROOT
BRANCH   1   5
HETATM    5  C   UNL     1     -40.631  58.217 -51.511  1.00  0.00     0.132 C 
BRANCH   5   6
HETATM    6  C   UNL     1     -40.654  58.566 -52.986  1.00  0.00     0.244 C 
BRANCH   6   7
HETATM    7  N   UNL     1     -41.853  57.962 -53.694  1.00  0.00    -0.068 N 
HETATM    8  C   UNL     1     -42.483  58.987 -54.654  1.00  0.00     0.254 C 
HETATM    9  C   UNL     1     -43.710  58.392 -55.375  1.00  0.00     0.150 C 
HETATM   10  N   UNL     1     -43.380  57.117 -56.035  1.00  0.00    -0.378 N 
HETATM   11  C   UNL     1     -42.807  56.105 -55.125  1.00  0.00     0.150 C 
HETATM   12  C   UNL     1     -41.539  56.654 -54.436  1.00  0.00     0.254 C 
HETATM   13  H   UNL     1     -42.569  57.749 -52.985  1.00  0.00     0.280 HD
BRANCH  10  14
HETATM   14  C   UNL     1     -42.959  57.083 -57.367  1.00  0.00     0.030 A 
HETATM   15  C   UNL     1     -42.303  58.150 -57.999  1.00  0.00     0.029 A 
HETATM   16  C   UNL     1     -41.900  58.079 -59.340  1.00  0.00     0.002 A 
HETATM   17  C   UNL     1     -42.162  56.939 -60.091  1.00  0.00     0.000 A 
HETATM   18  C   UNL     1     -42.837  55.878 -59.504  1.00  0.00     0.002 A 
HETATM   19  C   UNL     1     -43.231  55.956 -58.163  1.00  0.00     0.029 A 
ENDBRANCH  10  14
ENDBRANCH   6   7
ENDBRANCH   5   6
ENDBRANCH   1   5
BRANCH   2  20
HETATM   20  N   UNL     1     -41.467  55.721 -50.445  1.00  0.00    -0.274 N 
HETATM   21  H   UNL     1     -41.208  55.418 -49.509  1.00  0.00     0.189 HD
BRANCH  20  22
HETATM   22  C   UNL     1     -41.619  54.678 -51.322  1.00  0.00     0.191 C 
HETATM   23  S   UNL     1     -43.092  54.122 -51.894  1.00  0.00    -0.039 SA
BRANCH  22  24
HETATM   24  N   UNL     1     -40.491  54.139 -51.878  1.00  0.00    -0.331 N 
HETATM   25  H   UNL     1     -39.682  54.720 -51.669  1.00  0.00     0.168 HD
BRANCH  24  26
HETATM   26  C   UNL     1     -40.192  52.833 -52.344  1.00  0.00     0.056 A 
HETATM   27  C   UNL     1     -40.168  52.380 -53.675  1.00  0.00     0.060 A 
HETATM   28 CL   UNL     1     -40.295  53.423 -55.050  1.00  0.00    -0.082 Cl
HETATM   29  C   UNL     1     -39.910  51.031 -53.962  1.00  0.00     0.026 A 
HETATM   30  C   UNL     1     -39.637  50.128 -52.938  1.00  0.00     0.002 A 
HETATM   31  C   UNL     1     -39.592  50.575 -51.624  1.00  0.00     0.002 A 
HETATM   32  C   UNL     1     -39.853  51.918 -51.333  1.00  0.00     0.031 A 
ENDBRANCH  24  26
ENDBRANCH  22  24
ENDBRANCH  20  22
ENDBRANCH   2  20
TORSDOF 8
ENDMDL
MODEL 2
REMARK VINA RESULT:      -7.7      1.878      2.487
REMARK  8 active torsions:
REMARK  status: ('A' for Active; 'I' for Inactive)
REMARK    1  A    between atoms: C_4  and  N_5 
REMARK    2  A    between atoms: N_8  and  C_10 
REMARK    3  A    between atoms: C_10  and  C_11 
REMARK    4  A    between atoms: C_11  and  C_12 
REMARK       I    between atoms: C_12  and  N_13 
REMARK    5  A    between atoms: N_13  and  N_14 
REMARK    6  A    between atoms: N_14  and  C_15 
REMARK    7  A    between atoms: C_15  and  N_16 
REMARK    8  A    between atoms: N_16  and  C_17 
ROOT
HETATM    1  C   UNL     1     -43.655  55.756 -51.042  1.00  0.00     0.237 C 
HETATM    2  N   UNL     1     -43.100  54.588 -50.588  1.00  0.00    -0.268 N 
HETATM    3  O   UNL     1     -44.671  56.222 -50.534  1.00  0.00    -0.272 OA
HETATM    4  H   UNL     1     -43.667  54.007 -49.966  1.00  0.00     0.190 HD
ENDROOT
BRANCH   1   5
HETATM    5  C   UNL     1     -42.924  56.512 -52.125  1.00  0.00     0.132 C 
BRANCH   5   6
HETATM    6  C   UNL     1     -43.864  56.707 -53.299  1.00  0.00     0.244 C 
BRANCH   6   7
HETATM    7  N   UNL     1     -43.120  56.755 -54.620  1.00  0.00    -0.068 N 
HETATM    8  C   UNL     1     -43.175  55.385 -55.319  1.00  0.00     0.254 C 
HETATM    9  C   UNL     1     -42.414  55.414 -56.660  1.00  0.00     0.150 C 
HETATM   10  N   UNL     1     -42.883  56.513 -57.521  1.00  0.00    -0.378 N 
HETATM   11  C   UNL     1     -42.805  57.843 -56.884  1.00  0.00     0.150 C 
HETATM   12  C   UNL     1     -43.612  57.860 -55.568  1.00  0.00     0.254 C 
HETATM   13  H   UNL     1     -42.127  56.942 -54.422  1.00  0.00     0.280 HD
BRANCH  10  14
HETATM   14  C   UNL     1     -43.906  56.313 -58.451  1.00  0.00     0.030 A 
HETATM   15  C   UNL     1     -44.906  57.261 -58.719  1.00  0.00     0.029 A 
HETATM   16  C   UNL     1     -45.918  57.020 -59.659  1.00  0.00     0.002 A 
HETATM   17  C   UNL     1     -45.967  55.812 -60.343  1.00  0.00     0.000 A 
HETATM   18  C   UNL     1     -45.010  54.842 -60.079  1.00  0.00     0.002 A 
HETATM   19  C   UNL     1     -44.000  55.092 -59.142  1.00  0.00     0.029 A 
ENDBRANCH  10  14
ENDBRANCH   6   7
ENDBRANCH   5   6
ENDBRANCH   1   5
BRANCH   2  20
HETATM   20  N   UNL     1     -41.995  53.989 -51.213  1.00  0.00    -0.274 N 
HETATM   21  H   UNL     1     -41.854  54.297 -52.172  1.00  0.00     0.189 HD
BRANCH  20  22
HETATM   22  C   UNL     1     -40.820  53.806 -50.531  1.00  0.00     0.191 C 
HETATM   23  S   UNL     1     -40.573  54.226 -48.928  1.00  0.00    -0.039 SA
BRANCH  22  24
HETATM   24  N   UNL     1     -39.820  53.110 -51.154  1.00  0.00    -0.331 N 
HETATM   25  H   UNL     1     -38.954  53.187 -50.624  1.00  0.00     0.168 HD
BRANCH  24  26
HETATM   26  C   UNL     1     -39.843  52.078 -52.126  1.00  0.00     0.056 A 
HETATM   27  C   UNL     1     -40.086  52.203 -53.506  1.00  0.00     0.060 A 
HETATM   28 CL   UNL     1     -40.195  53.719 -54.332  1.00  0.00    -0.082 Cl
HETATM   29  C   UNL     1     -40.134  51.064 -54.325  1.00  0.00     0.026 A 
HETATM   30  C   UNL     1     -39.904  49.798 -53.793  1.00  0.00     0.002 A 
HETATM   31  C   UNL     1     -39.597  49.667 -52.444  1.00  0.00     0.002 A 
HETATM   32  C   UNL     1     -39.553  50.798 -51.624  1.00  0.00     0.031 A 
ENDBRANCH  24  26
ENDBRANCH  22  24
ENDBRANCH  20  22
ENDBRANCH   2  20
TORSDOF 8
ENDMDL
MODEL 3
REMARK VINA RESULT:      -7.5      2.111      2.878
REMARK  8 active torsions:
REMARK  status: ('A' for Active; 'I' for Inactive)
REMARK    1  A    between atoms: C_4  and  N_5 
REMARK    2  A    between atoms: N_8  and  C_10 
REMARK    3  A    between atoms: C_10  and  C_11 
REMARK    4  A    between atoms: C_11  and  C_12 
REMARK       I    between atoms: C_12  and  N_13 
REMARK    5  A    between atoms: N_13  and  N_14 
REMARK    6  A    between atoms: N_14  and  C_15 
REMARK    7  A    between atoms: C_15  and  N_16 
REMARK    8  A    between atoms: N_16  and  C_17 
ROOT
HETATM    1  C   UNL     1     -43.744  55.995 -51.106  1.00  0.00     0.237 C 
HETATM    2  N   UNL     1     -43.259  54.750 -50.796  1.00  0.00    -0.268 N 
HETATM    3  O   UNL     1     -44.737  56.452 -50.547  1.00  0.00    -0.272 OA
HETATM    4  H   UNL     1     -43.863  54.132 -50.249  1.00  0.00     0.190 HD
ENDROOT
BRANCH   1   5
HETATM    5  C   UNL     1     -42.963  56.833 -52.089  1.00  0.00     0.132 C 
BRANCH   5   6
HETATM    6  C   UNL     1     -43.824  57.069 -53.315  1.00  0.00     0.244 C 
BRANCH   6   7
HETATM    7  N   UNL     1     -43.044  56.871 -54.602  1.00  0.00    -0.068 N 
HETATM    8  C   UNL     1     -43.268  55.451 -55.152  1.00  0.00     0.254 C 
HETATM    9  C   UNL     1     -42.474  55.228 -56.456  1.00  0.00     0.150 C 
HETATM   10  N   UNL     1     -42.764  56.279 -57.448  1.00  0.00    -0.378 N 
HETATM   11  C   UNL     1     -42.522  57.649 -56.954  1.00  0.00     0.150 C 
HETATM   12  C   UNL     1     -43.354  57.919 -55.681  1.00  0.00     0.254 C 
HETATM   13  H   UNL     1     -42.041  56.944 -54.383  1.00  0.00     0.280 HD
BRANCH  10  14
HETATM   14  C   UNL     1     -43.779  56.115 -58.393  1.00  0.00     0.030 A 
HETATM   15  C   UNL     1     -43.953  54.945 -59.149  1.00  0.00     0.029 A 
HETATM   16  C   UNL     1     -44.983  54.822 -60.092  1.00  0.00     0.002 A 
HETATM   17  C   UNL     1     -45.858  55.878 -60.318  1.00  0.00     0.000 A 
HETATM   18  C   UNL     1     -45.693  57.060 -59.609  1.00  0.00     0.002 A 
HETATM   19  C   UNL     1     -44.665  57.173 -58.666  1.00  0.00     0.029 A 
ENDBRANCH  10  14
ENDBRANCH   6   7
ENDBRANCH   5   6
ENDBRANCH   1   5
BRANCH   2  20
HETATM   20  N   UNL     1     -42.185  54.170 -51.487  1.00  0.00    -0.274 N 
HETATM   21  H   UNL     1     -42.034  54.566 -52.412  1.00  0.00     0.189 HD
BRANCH  20  22
HETATM   22  C   UNL     1     -41.015  53.870 -50.837  1.00  0.00     0.191 C 
HETATM   23  S   UNL     1     -40.783  54.001 -49.183  1.00  0.00    -0.039 SA
BRANCH  22  24
HETATM   24  N   UNL     1     -40.009  53.293 -51.563  1.00  0.00    -0.331 N 
HETATM   25  H   UNL     1     -39.110  53.690 -51.297  1.00  0.00     0.168 HD
BRANCH  24  26
HETATM   26  C   UNL     1     -39.940  52.082 -52.297  1.00  0.00     0.056 A 
HETATM   27  C   UNL     1     -39.823  50.775 -51.791  1.00  0.00     0.060 A 
HETATM   28 CL   UNL     1     -39.958  50.377 -50.113  1.00  0.00    -0.082 Cl
HETATM   29  C   UNL     1     -39.706  49.682 -52.664  1.00  0.00     0.026 A 
HETATM   30  C   UNL     1     -39.743  49.869 -54.043  1.00  0.00     0.002 A 
HETATM   31  C   UNL     1     -39.925  51.147 -54.556  1.00  0.00     0.002 A 
HETATM   32  C   UNL     1     -40.038  52.239 -53.691  1.00  0.00     0.031 A 
ENDBRANCH  24  26
ENDBRANCH  22  24
ENDBRANCH  20  22
ENDBRANCH   2  20
TORSDOF 8
ENDMDL
MODEL 4
REMARK VINA RESULT:      -7.5      2.996      7.629
REMARK  8 active torsions:
REMARK  status: ('A' for Active; 'I' for Inactive)
REMARK    1  A    between atoms: C_4  and  N_5 
REMARK    2  A    between atoms: N_8  and  C_10 
REMARK    3  A    between atoms: C_10  and  C_11 
REMARK    4  A    between atoms: C_11  and  C_12 
REMARK       I    between atoms: C_12  and  N_13 
REMARK    5  A    between atoms: N_13  and  N_14 
REMARK    6  A    between atoms: N_14  and  C_15 
REMARK    7  A    between atoms: C_15  and  N_16 
REMARK    8  A    between atoms: N_16  and  C_17 
ROOT
HETATM    1  C   UNL     1     -43.966  57.641 -54.815  1.00  0.00     0.237 C 
HETATM    2  N   UNL     1     -44.686  58.373 -55.724  1.00  0.00    -0.268 N 
HETATM    3  O   UNL     1     -42.808  57.932 -54.531  1.00  0.00    -0.272 OA
HETATM    4  H   UNL     1     -44.170  59.029 -56.313  1.00  0.00     0.190 HD
ENDROOT
BRANCH   1   5
HETATM    5  C   UNL     1     -44.673  56.517 -54.094  1.00  0.00     0.132 C 
BRANCH   5   6
HETATM    6  C   UNL     1     -44.054  55.201 -54.524  1.00  0.00     0.244 C 
BRANCH   6   7
HETATM    7  N   UNL     1     -42.601  55.092 -54.099  1.00  0.00    -0.068 N 
HETATM    8  C   UNL     1     -42.498  54.486 -52.687  1.00  0.00     0.254 C 
HETATM    9  C   UNL     1     -41.027  54.378 -52.236  1.00  0.00     0.150 C 
HETATM   10  N   UNL     1     -40.212  53.657 -53.229  1.00  0.00    -0.378 N 
HETATM   11  C   UNL     1     -40.267  54.242 -54.583  1.00  0.00     0.150 C 
HETATM   12  C   UNL     1     -41.726  54.305 -55.085  1.00  0.00     0.254 C 
HETATM   13  H   UNL     1     -42.214  56.044 -54.037  1.00  0.00     0.280 HD
BRANCH  10  14
HETATM   14  C   UNL     1     -40.026  52.275 -53.141  1.00  0.00     0.030 A 
HETATM   15  C   UNL     1     -40.217  51.398 -54.219  1.00  0.00     0.029 A 
HETATM   16  C   UNL     1     -40.023  50.015 -54.089  1.00  0.00     0.002 A 
HETATM   17  C   UNL     1     -39.650  49.471 -52.866  1.00  0.00     0.000 A 
HETATM   18  C   UNL     1     -39.482  50.309 -51.772  1.00  0.00     0.002 A 
HETATM   19  C   UNL     1     -39.674  51.688 -51.912  1.00  0.00     0.029 A 
ENDBRANCH  10  14
ENDBRANCH   6   7
ENDBRANCH   5   6
ENDBRANCH   1   5
BRANCH   2  20
HETATM   20  N   UNL     1     -45.976  58.002 -56.133  1.00  0.00    -0.274 N 
HETATM   21  H   UNL     1     -46.711  58.334 -55.512  1.00  0.00     0.189 HD
BRANCH  20  22
HETATM   22  C   UNL     1     -46.331  58.053 -57.457  1.00  0.00     0.191 C 
HETATM   23  S   UNL     1     -47.312  59.229 -58.136  1.00  0.00    -0.039 SA
BRANCH  22  24
HETATM   24  N   UNL     1     -45.738  57.166 -58.313  1.00  0.00    -0.331 N 
HETATM   25  H   UNL     1     -46.441  56.573 -58.750  1.00  0.00     0.168 HD
BRANCH  24  26
HETATM   26  C   UNL     1     -44.466  57.155 -58.940  1.00  0.00     0.056 A 
HETATM   27  C   UNL     1     -43.732  56.038 -59.376  1.00  0.00     0.060 A 
HETATM   28 CL   UNL     1     -44.364  54.428 -59.422  1.00  0.00    -0.082 Cl
HETATM   29  C   UNL     1     -42.451  56.200 -59.927  1.00  0.00     0.026 A 
HETATM   30  C   UNL     1     -41.902  57.470 -60.084  1.00  0.00     0.002 A 
HETATM   31  C   UNL     1     -42.643  58.586 -59.719  1.00  0.00     0.002 A 
HETATM   32  C   UNL     1     -43.918  58.430 -59.166  1.00  0.00     0.031 A 
ENDBRANCH  24  26
ENDBRANCH  22  24
ENDBRANCH  20  22
ENDBRANCH   2  20
TORSDOF 8
ENDMDL
MODEL 5
REMARK VINA RESULT:      -7.4      2.395      7.071
REMARK  8 active torsions:
REMARK  status: ('A' for Active; 'I' for Inactive)
REMARK    1  A    between atoms: C_4  and  N_5 
REMARK    2  A    between atoms: N_8  and  C_10 
REMARK    3  A    between atoms: C_10  and  C_11 
REMARK    4  A    between atoms: C_11  and  C_12 
REMARK       I    between atoms: C_12  and  N_13 
REMARK    5  A    between atoms: N_13  and  N_14 
REMARK    6  A    between atoms: N_14  and  C_15 
REMARK    7  A    between atoms: C_15  and  N_16 
REMARK    8  A    between atoms: N_16  and  C_17 
ROOT
HETATM    1  C   UNL     1     -41.797  58.921 -53.751  1.00  0.00     0.237 C 
HETATM    2  N   UNL     1     -41.894  58.959 -55.118  1.00  0.00    -0.268 N 
HETATM    3  O   UNL     1     -40.899  59.510 -53.156  1.00  0.00    -0.272 OA
HETATM    4  H   UNL     1     -41.086  59.307 -55.638  1.00  0.00     0.190 HD
ENDROOT
BRANCH   1   5
HETATM    5  C   UNL     1     -42.888  58.212 -52.984  1.00  0.00     0.132 C 
BRANCH   5   6
HETATM    6  C   UNL     1     -42.679  58.461 -51.503  1.00  0.00     0.244 C 
BRANCH   6   7
HETATM    7  N   UNL     1     -42.541  57.166 -50.724  1.00  0.00    -0.068 N 
HETATM    8  C   UNL     1     -43.369  56.050 -51.385  1.00  0.00     0.254 C 
HETATM    9  C   UNL     1     -43.248  54.728 -50.599  1.00  0.00     0.150 C 
HETATM   10  N   UNL     1     -41.838  54.351 -50.396  1.00  0.00    -0.378 N 
HETATM   11  C   UNL     1     -41.032  55.393 -49.729  1.00  0.00     0.150 C 
HETATM   12  C   UNL     1     -41.086  56.712 -50.531  1.00  0.00     0.254 C 
HETATM   13  H   UNL     1     -42.943  57.312 -49.787  1.00  0.00     0.280 HD
BRANCH  10  14
HETATM   14  C   UNL     1     -41.177  53.521 -51.304  1.00  0.00     0.030 A 
HETATM   15  C   UNL     1     -41.371  53.582 -52.692  1.00  0.00     0.029 A 
HETATM   16  C   UNL     1     -40.690  52.727 -53.571  1.00  0.00     0.002 A 
HETATM   17  C   UNL     1     -39.808  51.773 -53.079  1.00  0.00     0.000 A 
HETATM   18  C   UNL     1     -39.617  51.667 -51.708  1.00  0.00     0.002 A 
HETATM   19  C   UNL     1     -40.298  52.527 -50.838  1.00  0.00     0.029 A 
ENDBRANCH  10  14
ENDBRANCH   6   7
ENDBRANCH   5   6
ENDBRANCH   1   5
BRANCH   2  20
HETATM   20  N   UNL     1     -42.855  58.218 -55.823  1.00  0.00    -0.274 N 
HETATM   21  H   UNL     1     -43.508  58.793 -56.350  1.00  0.00     0.189 HD
BRANCH  20  22
HETATM   22  C   UNL     1     -42.504  57.068 -56.483  1.00  0.00     0.191 C 
HETATM   23  S   UNL     1     -42.105  55.623 -55.735  1.00  0.00    -0.039 SA
BRANCH  22  24
HETATM   24  N   UNL     1     -42.617  57.052 -57.847  1.00  0.00    -0.331 N 
HETATM   25  H   UNL     1     -41.696  57.076 -58.278  1.00  0.00     0.168 HD
BRANCH  24  26
HETATM   26  C   UNL     1     -43.677  56.667 -58.708  1.00  0.00     0.056 A 
HETATM   27  C   UNL     1     -44.851  57.383 -58.999  1.00  0.00     0.060 A 
HETATM   28 CL   UNL     1     -45.130  59.018 -58.507  1.00  0.00    -0.082 Cl
HETATM   29  C   UNL     1     -45.834  56.828 -59.832  1.00  0.00     0.026 A 
HETATM   30  C   UNL     1     -45.647  55.577 -60.414  1.00  0.00     0.002 A 
HETATM   31  C   UNL     1     -44.462  54.887 -60.189  1.00  0.00     0.002 A 
HETATM   32  C   UNL     1     -43.482  55.435 -59.356  1.00  0.00     0.031 A 
ENDBRANCH  24  26
ENDBRANCH  22  24
ENDBRANCH  20  22
ENDBRANCH   2  20
TORSDOF 8
ENDMDL
MODEL 6
REMARK VINA RESULT:      -7.3      2.360      6.837
REMARK  8 active torsions:
REMARK  status: ('A' for Active; 'I' for Inactive)
REMARK    1  A    between atoms: C_4  and  N_5 
REMARK    2  A    between atoms: N_8  and  C_10 
REMARK    3  A    between atoms: C_10  and  C_11 
REMARK    4  A    between atoms: C_11  and  C_12 
REMARK       I    between atoms: C_12  and  N_13 
REMARK    5  A    between atoms: N_13  and  N_14 
REMARK    6  A    between atoms: N_14  and  C_15 
REMARK    7  A    between atoms: C_15  and  N_16 
REMARK    8  A    between atoms: N_16  and  C_17 
ROOT
HETATM    1  C   UNL     1     -41.385  59.327 -53.556  1.00  0.00     0.237 C 
HETATM    2  N   UNL     1     -41.714  60.287 -54.477  1.00  0.00    -0.268 N 
HETATM    3  O   UNL     1     -40.228  59.178 -53.172  1.00  0.00    -0.272 OA
HETATM    4  H   UNL     1     -40.949  60.728 -54.992  1.00  0.00     0.190 HD
ENDROOT
BRANCH   1   5
HETATM    5  C   UNL     1     -42.505  58.516 -52.948  1.00  0.00     0.132 C 
BRANCH   5   6
HETATM    6  C   UNL     1     -42.422  58.630 -51.438  1.00  0.00     0.244 C 
BRANCH   6   7
HETATM    7  N   UNL     1     -42.429  57.270 -50.765  1.00  0.00    -0.068 N 
HETATM    8  C   UNL     1     -43.276  56.273 -51.577  1.00  0.00     0.254 C 
HETATM    9  C   UNL     1     -43.302  54.887 -50.901  1.00  0.00     0.150 C 
HETATM   10  N   UNL     1     -41.940  54.395 -50.631  1.00  0.00    -0.378 N 
HETATM   11  C   UNL     1     -41.120  55.319 -49.823  1.00  0.00     0.150 C 
HETATM   12  C   UNL     1     -41.026  56.699 -50.510  1.00  0.00     0.254 C 
HETATM   13  H   UNL     1     -42.891  57.368 -49.851  1.00  0.00     0.280 HD
BRANCH  10  14
HETATM   14  C   UNL     1     -41.267  53.595 -51.558  1.00  0.00     0.030 A 
HETATM   15  C   UNL     1     -41.538  53.610 -52.935  1.00  0.00     0.029 A 
HETATM   16  C   UNL     1     -40.842  52.788 -53.833  1.00  0.00     0.002 A 
HETATM   17  C   UNL     1     -39.866  51.913 -53.372  1.00  0.00     0.000 A 
HETATM   18  C   UNL     1     -39.596  51.852 -52.012  1.00  0.00     0.002 A 
HETATM   19  C   UNL     1     -40.292  52.679 -51.123  1.00  0.00     0.029 A 
ENDBRANCH  10  14
ENDBRANCH   6   7
ENDBRANCH   5   6
ENDBRANCH   1   5
BRANCH   2  20
HETATM   20  N   UNL     1     -43.010  60.412 -55.000  1.00  0.00    -0.274 N 
HETATM   21  H   UNL     1     -43.466  61.288 -54.753  1.00  0.00     0.189 HD
BRANCH  20  22
HETATM   22  C   UNL     1     -43.290  60.006 -56.280  1.00  0.00     0.191 C 
HETATM   23  S   UNL     1     -44.578  60.563 -57.196  1.00  0.00    -0.039 SA
BRANCH  22  24
HETATM   24  N   UNL     1     -42.384  59.196 -56.907  1.00  0.00    -0.331 N 
HETATM   25  H   UNL     1     -41.470  59.282 -56.468  1.00  0.00     0.168 HD
BRANCH  24  26
HETATM   26  C   UNL     1     -42.543  58.068 -57.752  1.00  0.00     0.056 A 
HETATM   27  C   UNL     1     -42.922  56.765 -57.384  1.00  0.00     0.060 A 
HETATM   28 CL   UNL     1     -43.491  56.336 -55.807  1.00  0.00    -0.082 Cl
HETATM   29  C   UNL     1     -42.974  55.742 -58.343  1.00  0.00     0.026 A 
HETATM   30  C   UNL     1     -42.688  56.008 -59.680  1.00  0.00     0.002 A 
HETATM   31  C   UNL     1     -42.377  57.304 -60.069  1.00  0.00     0.002 A 
HETATM   32  C   UNL     1     -42.320  58.326 -59.116  1.00  0.00     0.031 A 
ENDBRANCH  24  26
ENDBRANCH  22  24
ENDBRANCH  20  22
ENDBRANCH   2  20
TORSDOF 8
ENDMDL
MODEL 7
REMARK VINA RESULT:      -7.3      2.390      7.093
REMARK  8 active torsions:
REMARK  status: ('A' for Active; 'I' for Inactive)
REMARK    1  A    between atoms: C_4  and  N_5 
REMARK    2  A    between atoms: N_8  and  C_10 
REMARK    3  A    between atoms: C_10  and  C_11 
REMARK    4  A    between atoms: C_11  and  C_12 
REMARK       I    between atoms: C_12  and  N_13 
REMARK    5  A    between atoms: N_13  and  N_14 
REMARK    6  A    between atoms: N_14  and  C_15 
REMARK    7  A    between atoms: C_15  and  N_16 
REMARK    8  A    between atoms: N_16  and  C_17 
ROOT
HETATM    1  C   UNL     1     -41.385  58.885 -53.479  1.00  0.00     0.237 C 
HETATM    2  N   UNL     1     -41.659  58.444 -54.748  1.00  0.00    -0.268 N 
HETATM    3  O   UNL     1     -40.315  59.421 -53.205  1.00  0.00    -0.272 OA
HETATM    4  H   UNL     1     -40.877  58.377 -55.403  1.00  0.00     0.190 HD
ENDROOT
BRANCH   1   5
HETATM    5  C   UNL     1     -42.478  58.782 -52.442  1.00  0.00     0.132 C 
BRANCH   5   6
HETATM    6  C   UNL     1     -41.841  58.525 -51.090  1.00  0.00     0.244 C 
BRANCH   6   7
HETATM    7  N   UNL     1     -42.142  57.129 -50.577  1.00  0.00    -0.068 N 
HETATM    8  C   UNL     1     -42.923  56.325 -51.632  1.00  0.00     0.254 C 
HETATM    9  C   UNL     1     -43.247  54.906 -51.122  1.00  0.00     0.150 C 
HETATM   10  N   UNL     1     -42.034  54.212 -50.657  1.00  0.00    -0.378 N 
HETATM   11  C   UNL     1     -41.288  54.948 -49.617  1.00  0.00     0.150 C 
HETATM   12  C   UNL     1     -40.896  56.353 -50.126  1.00  0.00     0.254 C 
HETATM   13  H   UNL     1     -42.762  57.216 -49.759  1.00  0.00     0.280 HD
BRANCH  10  14
HETATM   14  C   UNL     1     -41.290  53.405 -51.521  1.00  0.00     0.030 A 
HETATM   15  C   UNL     1     -40.277  52.536 -51.090  1.00  0.00     0.029 A 
HETATM   16  C   UNL     1     -39.550  51.744 -51.990  1.00  0.00     0.002 A 
HETATM   17  C   UNL     1     -39.807  51.817 -53.354  1.00  0.00     0.000 A 
HETATM   18  C   UNL     1     -40.782  52.690 -53.816  1.00  0.00     0.002 A 
HETATM   19  C   UNL     1     -41.506  53.473 -52.909  1.00  0.00     0.029 A 
ENDBRANCH  10  14
ENDBRANCH   6   7
ENDBRANCH   5   6
ENDBRANCH   1   5
BRANCH   2  20
HETATM   20  N   UNL     1     -42.835  57.744 -55.061  1.00  0.00    -0.274 N 
HETATM   21  H   UNL     1     -43.683  58.283 -54.905  1.00  0.00     0.189 HD
BRANCH  20  22
HETATM   22  C   UNL     1     -42.901  56.955 -56.181  1.00  0.00     0.191 C 
HETATM   23  S   UNL     1     -42.663  55.297 -56.194  1.00  0.00    -0.039 SA
BRANCH  22  24
HETATM   24  N   UNL     1     -43.325  57.533 -57.347  1.00  0.00    -0.331 N 
HETATM   25  H   UNL     1     -42.545  57.982 -57.822  1.00  0.00     0.168 HD
BRANCH  24  26
HETATM   26  C   UNL     1     -44.480  57.328 -58.144  1.00  0.00     0.056 A 
HETATM   27  C   UNL     1     -44.596  56.542 -59.304  1.00  0.00     0.060 A 
HETATM   28 CL   UNL     1     -43.358  55.473 -59.870  1.00  0.00    -0.082 Cl
HETATM   29  C   UNL     1     -45.806  56.494 -60.013  1.00  0.00     0.026 A 
HETATM   30  C   UNL     1     -46.921  57.193 -59.560  1.00  0.00     0.002 A 
HETATM   31  C   UNL     1     -46.840  57.921 -58.379  1.00  0.00     0.002 A 
HETATM   32  C   UNL     1     -45.636  57.975 -57.672  1.00  0.00     0.031 A 
ENDBRANCH  24  26
ENDBRANCH  22  24
ENDBRANCH  20  22
ENDBRANCH   2  20
TORSDOF 8
ENDMDL
MODEL 8
REMARK VINA RESULT:      -7.2      2.055      2.680
REMARK  8 active torsions:
REMARK  status: ('A' for Active; 'I' for Inactive)
REMARK    1  A    between atoms: C_4  and  N_5 
REMARK    2  A    between atoms: N_8  and  C_10 
REMARK    3  A    between atoms: C_10  and  C_11 
REMARK    4  A    between atoms: C_11  and  C_12 
REMARK       I    between atoms: C_12  and  N_13 
REMARK    5  A    between atoms: N_13  and  N_14 
REMARK    6  A    between atoms: N_14  and  C_15 
REMARK    7  A    between atoms: C_15  and  N_16 
REMARK    8  A    between atoms: N_16  and  C_17 
ROOT
HETATM    1  C   UNL     1     -45.076  58.385 -51.021  1.00  0.00     0.237 C 
HETATM    2  N   UNL     1     -44.378  57.302 -50.552  1.00  0.00    -0.268 N 
HETATM    3  O   UNL     1     -46.203  58.647 -50.612  1.00  0.00    -0.272 OA
HETATM    4  H   UNL     1     -44.898  56.602 -50.018  1.00  0.00     0.190 HD
ENDROOT
BRANCH   1   5
HETATM    5  C   UNL     1     -44.377  59.310 -51.989  1.00  0.00     0.132 C 
BRANCH   5   6
HETATM    6  C   UNL     1     -44.897  59.031 -53.386  1.00  0.00     0.244 C 
BRANCH   6   7
HETATM    7  N   UNL     1     -43.847  58.369 -54.260  1.00  0.00    -0.068 N 
HETATM    8  C   UNL     1     -44.247  56.916 -54.574  1.00  0.00     0.254 C 
HETATM    9  C   UNL     1     -43.184  56.225 -55.453  1.00  0.00     0.150 C 
HETATM   10  N   UNL     1     -42.893  57.013 -56.663  1.00  0.00    -0.378 N 
HETATM   11  C   UNL     1     -42.472  58.401 -56.385  1.00  0.00     0.150 C 
HETATM   12  C   UNL     1     -43.549  59.136 -55.557  1.00  0.00     0.254 C 
HETATM   13  H   UNL     1     -42.969  58.321 -53.723  1.00  0.00     0.280 HD
BRANCH  10  14
HETATM   14  C   UNL     1     -43.589  56.787 -57.854  1.00  0.00     0.030 A 
HETATM   15  C   UNL     1     -44.723  57.518 -58.238  1.00  0.00     0.029 A 
HETATM   16  C   UNL     1     -45.396  57.258 -59.441  1.00  0.00     0.002 A 
HETATM   17  C   UNL     1     -44.959  56.242 -60.283  1.00  0.00     0.000 A 
HETATM   18  C   UNL     1     -43.859  55.481 -59.917  1.00  0.00     0.002 A 
HETATM   19  C   UNL     1     -43.190  55.751 -58.717  1.00  0.00     0.029 A 
ENDBRANCH  10  14
ENDBRANCH   6   7
ENDBRANCH   5   6
ENDBRANCH   1   5
BRANCH   2  20
HETATM   20  N   UNL     1     -43.130  56.930 -51.073  1.00  0.00    -0.274 N 
HETATM   21  H   UNL     1     -42.353  57.462 -50.686  1.00  0.00     0.189 HD
BRANCH  20  22
HETATM   22  C   UNL     1     -42.824  55.610 -51.280  1.00  0.00     0.191 C 
HETATM   23  S   UNL     1     -43.735  54.321 -50.718  1.00  0.00    -0.039 SA
BRANCH  22  24
HETATM   24  N   UNL     1     -41.781  55.317 -52.117  1.00  0.00    -0.331 N 
HETATM   25  H   UNL     1     -41.275  56.166 -52.360  1.00  0.00     0.168 HD
BRANCH  24  26
HETATM   26  C   UNL     1     -41.097  54.107 -52.396  1.00  0.00     0.056 A 
HETATM   27  C   UNL     1     -40.231  53.393 -51.548  1.00  0.00     0.060 A 
HETATM   28 CL   UNL     1     -40.000  53.764 -49.874  1.00  0.00    -0.082 Cl
HETATM   29  C   UNL     1     -39.584  52.235 -52.005  1.00  0.00     0.026 A 
HETATM   30  C   UNL     1     -39.817  51.752 -53.290  1.00  0.00     0.002 A 
HETATM   31  C   UNL     1     -40.721  52.409 -54.115  1.00  0.00     0.002 A 
HETATM   32  C   UNL     1     -41.365  53.566 -53.666  1.00  0.00     0.031 A 
ENDBRANCH  24  26
ENDBRANCH  22  24
ENDBRANCH  20  22
ENDBRANCH   2  20
TORSDOF 8
ENDMDL
MODEL 9
REMARK VINA RESULT:      -7.0      2.227      3.100
REMARK  8 active torsions:
REMARK  status: ('A' for Active; 'I' for Inactive)
REMARK    1  A    between atoms: C_4  and  N_5 
REMARK    2  A    between atoms: N_8  and  C_10 
REMARK    3  A    between atoms: C_10  and  C_11 
REMARK    4  A    between atoms: C_11  and  C_12 
REMARK       I    between atoms: C_12  and  N_13 
REMARK    5  A    between atoms: N_13  and  N_14 
REMARK    6  A    between atoms: N_14  and  C_15 
REMARK    7  A    between atoms: C_15  and  N_16 
REMARK    8  A    between atoms: N_16  and  C_17 
ROOT
HETATM    1  C   UNL     1     -43.879  57.066 -52.409  1.00  0.00     0.237 C 
HETATM    2  N   UNL     1     -43.315  55.838 -52.177  1.00  0.00    -0.268 N 
HETATM    3  O   UNL     1     -43.729  57.998 -51.625  1.00  0.00    -0.272 OA
HETATM    4  H   UNL     1     -42.950  55.657 -51.239  1.00  0.00     0.190 HD
ENDROOT
BRANCH   1   5
HETATM    5  C   UNL     1     -44.614  57.271 -53.712  1.00  0.00     0.132 C 
BRANCH   5   6
HETATM    6  C   UNL     1     -44.703  58.759 -53.989  1.00  0.00     0.244 C 
BRANCH   6   7
HETATM    7  N   UNL     1     -44.449  59.080 -55.450  1.00  0.00    -0.068 N 
HETATM    8  C   UNL     1     -43.261  58.259 -55.983  1.00  0.00     0.254 C 
HETATM    9  C   UNL     1     -42.983  58.582 -57.466  1.00  0.00     0.150 C 
HETATM   10  N   UNL     1     -44.197  58.430 -58.286  1.00  0.00    -0.378 N 
HETATM   11  C   UNL     1     -45.340  59.237 -57.815  1.00  0.00     0.150 C 
HETATM   12  C   UNL     1     -45.680  58.888 -56.349  1.00  0.00     0.254 C 
HETATM   13  H   UNL     1     -44.173  60.070 -55.517  1.00  0.00     0.280 HD
BRANCH  10  14
HETATM   14  C   UNL     1     -44.492  57.219 -58.917  1.00  0.00     0.030 A 
HETATM   15  C   UNL     1     -43.592  56.145 -58.993  1.00  0.00     0.029 A 
HETATM   16  C   UNL     1     -43.926  54.947 -59.639  1.00  0.00     0.002 A 
HETATM   17  C   UNL     1     -45.167  54.799 -60.246  1.00  0.00     0.000 A 
HETATM   18  C   UNL     1     -46.068  55.854 -60.216  1.00  0.00     0.002 A 
HETATM   19  C   UNL     1     -45.729  57.045 -59.564  1.00  0.00     0.029 A 
ENDBRANCH  10  14
ENDBRANCH   6   7
ENDBRANCH   5   6
ENDBRANCH   1   5
BRANCH   2  20
HETATM   20  N   UNL     1     -43.552  54.733 -53.009  1.00  0.00    -0.274 N 
HETATM   21  H   UNL     1     -44.520  54.650 -53.310  1.00  0.00     0.189 HD
BRANCH  20  22
HETATM   22  C   UNL     1     -42.656  54.392 -53.990  1.00  0.00     0.191 C 
HETATM   23  S   UNL     1     -42.964  54.478 -55.634  1.00  0.00    -0.039 SA
BRANCH  22  24
HETATM   24  N   UNL     1     -41.375  54.092 -53.611  1.00  0.00    -0.331 N 
HETATM   25  H   UNL     1     -40.909  54.922 -53.252  1.00  0.00     0.168 HD
BRANCH  24  26
HETATM   26  C   UNL     1     -40.740  52.862 -53.302  1.00  0.00     0.056 A 
HETATM   27  C   UNL     1     -40.105  52.500 -52.101  1.00  0.00     0.060 A 
HETATM   28 CL   UNL     1     -40.173  53.445 -50.653  1.00  0.00    -0.082 Cl
HETATM   29  C   UNL     1     -39.468  51.255 -51.980  1.00  0.00     0.026 A 
HETATM   30  C   UNL     1     -39.485  50.345 -53.033  1.00  0.00     0.002 A 
HETATM   31  C   UNL     1     -40.165  50.662 -54.202  1.00  0.00     0.002 A 
HETATM   32  C   UNL     1     -40.798  51.903 -54.329  1.00  0.00     0.031 A 
ENDBRANCH  24  26
ENDBRANCH  22  24
ENDBRANCH  20  22
ENDBRANCH   2  20
TORSDOF 8
ENDMDL
MODEL 10
REMARK VINA RESULT:      -6.9      2.995      7.395
REMARK  8 active torsions:
REMARK  status: ('A' for Active; 'I' for Inactive)
REMARK    1  A    between atoms: C_4  and  N_5 
REMARK    2  A    between atoms: N_8  and  C_10 
REMARK    3  A    between atoms: C_10  and  C_11 
REMARK    4  A    between atoms: C_11  and  C_12 
REMARK       I    between atoms: C_12  and  N_13 
REMARK    5  A    between atoms: N_13  and  N_14 
REMARK    6  A    between atoms: N_14  and  C_15 
REMARK    7  A    between atoms: C_15  and  N_16 
REMARK    8  A    between atoms: N_16  and  C_17 
ROOT
HETATM    1  C   UNL     1     -44.401  56.680 -54.158  1.00  0.00     0.237 C 
HETATM    2  N   UNL     1     -45.189  56.998 -55.234  1.00  0.00    -0.268 N 
HETATM    3  O   UNL     1     -43.996  55.535 -53.977  1.00  0.00    -0.272 OA
HETATM    4  H   UNL     1     -45.605  56.225 -55.758  1.00  0.00     0.190 HD
ENDROOT
BRANCH   1   5
HETATM    5  C   UNL     1     -43.959  57.802 -53.249  1.00  0.00     0.132 C 
BRANCH   5   6
HETATM    6  C   UNL     1     -44.408  57.485 -51.836  1.00  0.00     0.244 C 
BRANCH   6   7
HETATM    7  N   UNL     1     -43.317  56.798 -51.035  1.00  0.00    -0.068 N 
HETATM    8  C   UNL     1     -43.681  55.322 -50.788  1.00  0.00     0.254 C 
HETATM    9  C   UNL     1     -42.586  54.611 -49.966  1.00  0.00     0.150 C 
HETATM   10  N   UNL     1     -41.258  54.777 -50.582  1.00  0.00    -0.378 N 
HETATM   11  C   UNL     1     -40.872  56.186 -50.795  1.00  0.00     0.150 C 
HETATM   12  C   UNL     1     -41.922  56.907 -51.669  1.00  0.00     0.254 C 
HETATM   13  H   UNL     1     -43.269  57.245 -50.109  1.00  0.00     0.280 HD
BRANCH  10  14
HETATM   14  C   UNL     1     -40.763  53.839 -51.490  1.00  0.00     0.030 A 
HETATM   15  C   UNL     1     -41.029  53.878 -52.867  1.00  0.00     0.029 A 
HETATM   16  C   UNL     1     -40.515  52.914 -53.746  1.00  0.00     0.002 A 
HETATM   17  C   UNL     1     -39.734  51.870 -53.264  1.00  0.00     0.000 A 
HETATM   18  C   UNL     1     -39.479  51.785 -51.903  1.00  0.00     0.002 A 
HETATM   19  C   UNL     1     -39.992  52.755 -51.033  1.00  0.00     0.029 A 
ENDBRANCH  10  14
ENDBRANCH   6   7
ENDBRANCH   5   6
ENDBRANCH   1   5
BRANCH   2  20
HETATM   20  N   UNL     1     -45.739  58.277 -55.410  1.00  0.00    -0.274 N 
HETATM   21  H   UNL     1     -45.426  58.953 -54.717  1.00  0.00     0.189 HD
BRANCH  20  22
HETATM   22  C   UNL     1     -45.869  58.816 -56.664  1.00  0.00     0.191 C 
HETATM   23  S   UNL     1     -45.741  60.449 -57.017  1.00  0.00    -0.039 SA
BRANCH  22  24
HETATM   24  N   UNL     1     -45.973  57.956 -57.723  1.00  0.00    -0.331 N 
HETATM   25  H   UNL     1     -46.916  57.978 -58.105  1.00  0.00     0.168 HD
BRANCH  24  26
HETATM   26  C   UNL     1     -44.997  57.357 -58.560  1.00  0.00     0.056 A 
HETATM   27  C   UNL     1     -45.210  56.464 -59.626  1.00  0.00     0.060 A 
HETATM   28 CL   UNL     1     -46.771  56.084 -60.268  1.00  0.00    -0.082 Cl
HETATM   29  C   UNL     1     -44.122  55.913 -60.319  1.00  0.00     0.026 A 
HETATM   30  C   UNL     1     -42.817  56.269 -59.990  1.00  0.00     0.002 A 
HETATM   31  C   UNL     1     -42.595  57.201 -58.984  1.00  0.00     0.002 A 
HETATM   32  C   UNL     1     -43.675  57.750 -58.287  1.00  0.00     0.031 A 
ENDBRANCH  24  26
ENDBRANCH  22  24
ENDBRANCH  20  22
ENDBRANCH   2  20
TORSDOF 8
ENDMDL
