MODEL 1
REMARK VINA RESULT:      -7.4      0.000      0.000
REMARK  7 active torsions:
REMARK  status: ('A' for Active; 'I' for Inactive)
REMARK    1  A    between atoms: S_2  and  C_3 
REMARK    2  A    between atoms: C_3  and  C_4 
REMARK    3  A    between atoms: C_4  and  C_5 
REMARK    4  A    between atoms: C_5  and  N_6 
REMARK    5  A    between atoms: C_5  and  C_10 
REMARK       I    between atoms: N_6  and  C_7 
REMARK       I    between atoms: C_7  and  N_8 
REMARK       I    between atoms: C_10  and  N_11 
REMARK    6  A    between atoms: N_11  and  N_12 
REMARK       I    between atoms: N_12  and  C_13 
REMARK    7  A    between atoms: C_13  and  C_14 
ROOT
HETATM    1  C   UNL     1     -43.192  56.942 -57.410  1.00  0.00     0.259 C 
HETATM    2  N   UNL     1     -42.366  55.871 -57.147  1.00  0.00    -0.265 N 
HETATM    3  O   UNL     1     -43.410  57.810 -56.558  1.00  0.00    -0.269 OA
HETATM    4  H   UNL     1     -42.131  55.134 -57.811  1.00  0.00     0.190 HD
ENDROOT
BRANCH   2   5
HETATM    5  N   UNL     1     -41.880  55.696 -55.848  1.00  0.00    -0.263 N 
HETATM    6  C   UNL     1     -42.431  54.700 -55.057  1.00  0.00     0.278 C 
HETATM    7  O   UNL     1     -43.266  53.935 -55.544  1.00  0.00    -0.265 OA
HETATM    8  H   UNL     1     -41.211  56.381 -55.500  1.00  0.00     0.190 HD
BRANCH   6   9
HETATM    9  C   UNL     1     -41.970  54.643 -53.676  1.00  0.00     0.097 A 
HETATM   10  S   UNL     1     -42.600  55.710 -52.495  1.00  0.00    -0.082 SA
HETATM   11  C   UNL     1     -41.674  55.013 -51.228  1.00  0.00     0.017 A 
HETATM   12  C   UNL     1     -40.864  53.977 -51.698  1.00  0.00     0.004 A 
HETATM   13  C   UNL     1     -41.685  55.390 -49.871  1.00  0.00     0.020 A 
HETATM   14  C   UNL     1     -41.046  53.780 -53.116  1.00  0.00     0.068 A 
HETATM   15  C   UNL     1     -40.034  53.312 -50.757  1.00  0.00     0.014 A 
HETATM   16 CL   UNL     1     -40.163  52.571 -53.965  1.00  0.00    -0.082 Cl
HETATM   17  C   UNL     1     -40.041  53.683 -49.409  1.00  0.00     0.001 A 
HETATM   18  C   UNL     1     -40.861  54.712 -48.972  1.00  0.00     0.001 A 
ENDBRANCH   6   9
ENDBRANCH   2   5
BRANCH   1  19
HETATM   19  C   UNL     1     -43.701  57.051 -58.870  1.00  0.00     0.180 C 
BRANCH  19  20
HETATM   20  C   UNL     1     -42.642  56.676 -59.921  1.00  0.00     0.045 C 
BRANCH  20  21
HETATM   21  C   UNL     1     -41.764  57.855 -60.337  1.00  0.00     0.076 C 
BRANCH  21  22
HETATM   22  S   UNL     1     -42.765  59.380 -60.356  1.00  0.00    -0.173 SA
HETATM   23  C   UNL     1     -41.904  60.287 -59.051  1.00  0.00     0.089 C 
ENDBRANCH  21  22
ENDBRANCH  20  21
ENDBRANCH  19  20
BRANCH  19  24
HETATM   24  N   UNL     1     -44.975  56.332 -58.972  1.00  0.00    -0.330 N 
HETATM   25  C   UNL     1     -46.023  56.812 -59.702  1.00  0.00     0.314 C 
HETATM   26  N   UNL     1     -47.043  55.924 -59.798  1.00  0.00    -0.352 N 
HETATM   27  O   UNL     1     -46.112  57.934 -60.174  1.00  0.00    -0.248 OA
HETATM   28  H   UNL     1     -46.828  54.941 -59.867  1.00  0.00     0.160 HD
HETATM   29  H   UNL     1     -47.793  56.240 -60.401  1.00  0.00     0.160 HD
HETATM   30  H   UNL     1     -44.887  55.328 -59.007  1.00  0.00     0.165 HD
ENDBRANCH  19  24
ENDBRANCH   1  19
TORSDOF 7
ENDMDL
MODEL 2
REMARK VINA RESULT:      -7.2      5.659      6.689
REMARK  7 active torsions:
REMARK  status: ('A' for Active; 'I' for Inactive)
REMARK    1  A    between atoms: S_2  and  C_3 
REMARK    2  A    between atoms: C_3  and  C_4 
REMARK    3  A    between atoms: C_4  and  C_5 
REMARK    4  A    between atoms: C_5  and  N_6 
REMARK    5  A    between atoms: C_5  and  C_10 
REMARK       I    between atoms: N_6  and  C_7 
REMARK       I    between atoms: C_7  and  N_8 
REMARK       I    between atoms: C_10  and  N_11 
REMARK    6  A    between atoms: N_11  and  N_12 
REMARK       I    between atoms: N_12  and  C_13 
REMARK    7  A    between atoms: C_13  and  C_14 
ROOT
HETATM    1  C   UNL     1     -43.003  57.908 -51.658  1.00  0.00     0.259 C 
HETATM    2  N   UNL     1     -42.922  56.875 -50.750  1.00  0.00    -0.265 N 
HETATM    3  O   UNL     1     -42.822  57.718 -52.866  1.00  0.00    -0.269 OA
HETATM    4  H   UNL     1     -43.079  56.963 -49.746  1.00  0.00     0.190 HD
ENDROOT
BRANCH   2   5
HETATM    5  N   UNL     1     -42.491  55.620 -51.190  1.00  0.00    -0.263 N 
HETATM    6  C   UNL     1     -41.192  55.224 -50.913  1.00  0.00     0.278 C 
HETATM    7  O   UNL     1     -40.480  55.942 -50.207  1.00  0.00    -0.265 OA
HETATM    8  H   UNL     1     -43.121  55.092 -51.793  1.00  0.00     0.190 HD
BRANCH   6   9
HETATM    9  C   UNL     1     -40.763  53.962 -51.499  1.00  0.00     0.097 A 
HETATM   10  S   UNL     1     -40.348  52.629 -50.507  1.00  0.00    -0.082 SA
HETATM   11  C   UNL     1     -40.044  51.600 -51.846  1.00  0.00     0.017 A 
HETATM   12  C   UNL     1     -40.234  52.268 -53.058  1.00  0.00     0.004 A 
HETATM   13  C   UNL     1     -39.650  50.249 -51.798  1.00  0.00     0.020 A 
HETATM   14  C   UNL     1     -40.646  53.633 -52.836  1.00  0.00     0.068 A 
HETATM   15  C   UNL     1     -40.009  51.538 -54.254  1.00  0.00     0.014 A 
HETATM   16 CL   UNL     1     -40.945  54.696 -54.157  1.00  0.00    -0.082 Cl
HETATM   17  C   UNL     1     -39.618  50.196 -54.212  1.00  0.00     0.001 A 
HETATM   18  C   UNL     1     -39.443  49.558 -52.993  1.00  0.00     0.001 A 
ENDBRANCH   6   9
ENDBRANCH   2   5
BRANCH   1  19
HETATM   19  C   UNL     1     -43.471  59.269 -51.083  1.00  0.00     0.180 C 
BRANCH  19  20
HETATM   20  C   UNL     1     -42.337  60.296 -50.929  1.00  0.00     0.045 C 
BRANCH  20  21
HETATM   21  C   UNL     1     -41.157  59.771 -50.112  1.00  0.00     0.076 C 
BRANCH  21  22
HETATM   22  S   UNL     1     -39.826  59.240 -51.240  1.00  0.00    -0.173 SA
HETATM   23  C   UNL     1     -38.407  59.625 -50.188  1.00  0.00     0.089 C 
ENDBRANCH  21  22
ENDBRANCH  20  21
ENDBRANCH  19  20
BRANCH  19  24
HETATM   24  N   UNL     1     -44.634  59.723 -51.852  1.00  0.00    -0.330 N 
HETATM   25  C   UNL     1     -45.903  59.660 -51.355  1.00  0.00     0.314 C 
HETATM   26  N   UNL     1     -46.809  60.275 -52.155  1.00  0.00    -0.352 N 
HETATM   27  O   UNL     1     -46.249  59.067 -50.346  1.00  0.00    -0.248 OA
HETATM   28  H   UNL     1     -46.534  61.110 -52.650  1.00  0.00     0.160 HD
HETATM   29  H   UNL     1     -47.740  60.302 -51.758  1.00  0.00     0.160 HD
HETATM   30  H   UNL     1     -44.466  60.536 -52.425  1.00  0.00     0.165 HD
ENDBRANCH  19  24
ENDBRANCH   1  19
TORSDOF 7
ENDMDL
MODEL 3
REMARK VINA RESULT:      -7.1      1.858      2.782
REMARK  7 active torsions:
REMARK  status: ('A' for Active; 'I' for Inactive)
REMARK    1  A    between atoms: S_2  and  C_3 
REMARK    2  A    between atoms: C_3  and  C_4 
REMARK    3  A    between atoms: C_4  and  C_5 
REMARK    4  A    between atoms: C_5  and  N_6 
REMARK    5  A    between atoms: C_5  and  C_10 
REMARK       I    between atoms: N_6  and  C_7 
REMARK       I    between atoms: C_7  and  N_8 
REMARK       I    between atoms: C_10  and  N_11 
REMARK    6  A    between atoms: N_11  and  N_12 
REMARK       I    between atoms: N_12  and  C_13 
REMARK    7  A    between atoms: C_13  and  C_14 
ROOT
HETATM    1  C   UNL     1     -43.498  57.183 -57.609  1.00  0.00     0.259 C 
HETATM    2  N   UNL     1     -42.535  56.211 -57.446  1.00  0.00    -0.265 N 
HETATM    3  O   UNL     1     -43.793  57.956 -56.692  1.00  0.00    -0.269 OA
HETATM    4  H   UNL     1     -42.233  55.557 -58.167  1.00  0.00     0.190 HD
ENDROOT
BRANCH   2   5
HETATM    5  N   UNL     1     -41.984  56.013 -56.176  1.00  0.00    -0.263 N 
HETATM    6  C   UNL     1     -42.398  54.919 -55.432  1.00  0.00     0.278 C 
HETATM    7  O   UNL     1     -43.167  54.100 -55.939  1.00  0.00    -0.265 OA
HETATM    8  H   UNL     1     -41.377  56.744 -55.808  1.00  0.00     0.190 HD
BRANCH   6   9
HETATM    9  C   UNL     1     -41.882  54.830 -54.073  1.00  0.00     0.097 A 
HETATM   10  S   UNL     1     -42.230  56.047 -52.919  1.00  0.00    -0.082 SA
HETATM   11  C   UNL     1     -41.387  55.236 -51.663  1.00  0.00     0.017 A 
HETATM   12  C   UNL     1     -40.816  54.045 -52.117  1.00  0.00     0.004 A 
HETATM   13  C   UNL     1     -41.250  55.663 -50.328  1.00  0.00     0.020 A 
HETATM   14  C   UNL     1     -41.110  53.829 -53.513  1.00  0.00     0.068 A 
HETATM   15  C   UNL     1     -40.079  53.271 -51.182  1.00  0.00     0.014 A 
HETATM   16 CL   UNL     1     -40.523  52.438 -54.340  1.00  0.00    -0.082 Cl
HETATM   17  C   UNL     1     -39.940  53.690 -49.856  1.00  0.00     0.001 A 
HETATM   18  C   UNL     1     -40.524  54.875 -49.434  1.00  0.00     0.001 A 
ENDBRANCH   6   9
ENDBRANCH   2   5
BRANCH   1  19
HETATM   19  C   UNL     1     -44.069  57.324 -59.044  1.00  0.00     0.180 C 
BRANCH  19  20
HETATM   20  C   UNL     1     -45.602  57.440 -59.089  1.00  0.00     0.045 C 
BRANCH  20  21
HETATM   21  C   UNL     1     -46.267  56.309 -59.872  1.00  0.00     0.076 C 
BRANCH  21  22
HETATM   22  S   UNL     1     -45.002  55.403 -60.823  1.00  0.00    -0.173 SA
HETATM   23  C   UNL     1     -44.807  53.977 -59.729  1.00  0.00     0.089 C 
ENDBRANCH  21  22
ENDBRANCH  20  21
ENDBRANCH  19  20
BRANCH  19  24
HETATM   24  N   UNL     1     -43.334  58.390 -59.732  1.00  0.00    -0.330 N 
HETATM   25  C   UNL     1     -42.197  58.145 -60.446  1.00  0.00     0.314 C 
HETATM   26  N   UNL     1     -41.767  59.231 -61.133  1.00  0.00    -0.352 N 
HETATM   27  O   UNL     1     -41.560  57.104 -60.442  1.00  0.00    -0.248 OA
HETATM   28  H   UNL     1     -42.449  59.858 -61.530  1.00  0.00     0.160 HD
HETATM   29  H   UNL     1     -40.969  59.039 -61.727  1.00  0.00     0.160 HD
HETATM   30  H   UNL     1     -43.917  59.106 -60.139  1.00  0.00     0.165 HD
ENDBRANCH  19  24
ENDBRANCH   1  19
TORSDOF 7
ENDMDL
MODEL 4
REMARK VINA RESULT:      -6.9      5.361      7.095
REMARK  7 active torsions:
REMARK  status: ('A' for Active; 'I' for Inactive)
REMARK    1  A    between atoms: S_2  and  C_3 
REMARK    2  A    between atoms: C_3  and  C_4 
REMARK    3  A    between atoms: C_4  and  C_5 
REMARK    4  A    between atoms: C_5  and  N_6 
REMARK    5  A    between atoms: C_5  and  C_10 
REMARK       I    between atoms: N_6  and  C_7 
REMARK       I    between atoms: C_7  and  N_8 
REMARK       I    between atoms: C_10  and  N_11 
REMARK    6  A    between atoms: N_11  and  N_12 
REMARK       I    between atoms: N_12  and  C_13 
REMARK    7  A    between atoms: C_13  and  C_14 
ROOT
HETATM    1  C   UNL     1     -44.682  58.647 -51.556  1.00  0.00     0.259 C 
HETATM    2  N   UNL     1     -44.058  57.844 -50.626  1.00  0.00    -0.265 N 
HETATM    3  O   UNL     1     -44.877  58.259 -52.713  1.00  0.00    -0.269 OA
HETATM    4  H   UNL     1     -43.886  58.097 -49.654  1.00  0.00     0.190 HD
ENDROOT
BRANCH   2   5
HETATM    5  N   UNL     1     -43.514  56.625 -51.042  1.00  0.00    -0.263 N 
HETATM    6  C   UNL     1     -42.138  56.512 -51.161  1.00  0.00     0.278 C 
HETATM    7  O   UNL     1     -41.423  57.453 -50.809  1.00  0.00    -0.265 OA
HETATM    8  H   UNL     1     -44.164  55.900 -51.345  1.00  0.00     0.190 HD
BRANCH   6   9
HETATM    9  C   UNL     1     -41.638  55.261 -51.712  1.00  0.00     0.097 A 
HETATM   10  S   UNL     1     -42.066  54.763 -53.293  1.00  0.00    -0.082 SA
HETATM   11  C   UNL     1     -41.098  53.348 -53.218  1.00  0.00     0.017 A 
HETATM   12  C   UNL     1     -40.459  53.232 -51.981  1.00  0.00     0.004 A 
HETATM   13  C   UNL     1     -40.929  52.388 -54.234  1.00  0.00     0.020 A 
HETATM   14  C   UNL     1     -40.785  54.345 -51.123  1.00  0.00     0.068 A 
HETATM   15  C   UNL     1     -39.628  52.099 -51.775  1.00  0.00     0.014 A 
HETATM   16 CL   UNL     1     -40.142  54.457 -49.530  1.00  0.00    -0.082 Cl
HETATM   17  C   UNL     1     -39.456  51.144 -52.780  1.00  0.00     0.001 A 
HETATM   18  C   UNL     1     -40.100  51.290 -54.000  1.00  0.00     0.001 A 
ENDBRANCH   6   9
ENDBRANCH   2   5
BRANCH   1  19
HETATM   19  C   UNL     1     -45.239  59.988 -51.014  1.00  0.00     0.180 C 
BRANCH  19  20
HETATM   20  C   UNL     1     -46.566  60.413 -51.667  1.00  0.00     0.045 C 
BRANCH  20  21
HETATM   21  C   UNL     1     -46.600  61.890 -52.055  1.00  0.00     0.076 C 
BRANCH  21  22
HETATM   22  S   UNL     1     -45.149  62.278 -53.091  1.00  0.00    -0.173 SA
HETATM   23  C   UNL     1     -45.564  61.267 -54.531  1.00  0.00     0.089 C 
ENDBRANCH  21  22
ENDBRANCH  20  21
ENDBRANCH  19  20
BRANCH  19  24
HETATM   24  N   UNL     1     -45.246  59.929 -49.549  1.00  0.00    -0.330 N 
HETATM   25  C   UNL     1     -44.887  60.996 -48.778  1.00  0.00     0.314 C 
HETATM   26  N   UNL     1     -45.116  60.787 -47.458  1.00  0.00    -0.352 N 
HETATM   27  O   UNL     1     -44.348  62.017 -49.174  1.00  0.00    -0.248 OA
HETATM   28  H   UNL     1     -45.927  60.255 -47.182  1.00  0.00     0.160 HD
HETATM   29  H   UNL     1     -44.925  61.601 -46.885  1.00  0.00     0.160 HD
HETATM   30  H   UNL     1     -45.997  59.383 -49.155  1.00  0.00     0.165 HD
ENDBRANCH  19  24
ENDBRANCH   1  19
TORSDOF 7
ENDMDL
MODEL 5
REMARK VINA RESULT:      -6.8      2.023      2.555
REMARK  7 active torsions:
REMARK  status: ('A' for Active; 'I' for Inactive)
REMARK    1  A    between atoms: S_2  and  C_3 
REMARK    2  A    between atoms: C_3  and  C_4 
REMARK    3  A    between atoms: C_4  and  C_5 
REMARK    4  A    between atoms: C_5  and  N_6 
REMARK    5  A    between atoms: C_5  and  C_10 
REMARK       I    between atoms: N_6  and  C_7 
REMARK       I    between atoms: C_7  and  N_8 
REMARK       I    between atoms: C_10  and  N_11 
REMARK    6  A    between atoms: N_11  and  N_12 
REMARK       I    between atoms: N_12  and  C_13 
REMARK    7  A    between atoms: C_13  and  C_14 
ROOT
HETATM    1  C   UNL     1     -43.533  56.595 -58.600  1.00  0.00     0.259 C 
HETATM    2  N   UNL     1     -43.912  56.712 -57.280  1.00  0.00    -0.265 N 
HETATM    3  O   UNL     1     -42.852  55.641 -58.991  1.00  0.00    -0.269 OA
HETATM    4  H   UNL     1     -44.487  57.463 -56.900  1.00  0.00     0.190 HD
ENDROOT
BRANCH   2   5
HETATM    5  N   UNL     1     -43.399  55.806 -56.347  1.00  0.00    -0.263 N 
HETATM    6  C   UNL     1     -42.460  56.251 -55.431  1.00  0.00     0.278 C 
HETATM    7  O   UNL     1     -42.168  57.448 -55.397  1.00  0.00    -0.265 OA
HETATM    8  H   UNL     1     -43.661  54.826 -56.451  1.00  0.00     0.190 HD
BRANCH   6   9
HETATM    9  C   UNL     1     -41.874  55.238 -54.564  1.00  0.00     0.097 A 
HETATM   10  S   UNL     1     -40.952  53.950 -55.215  1.00  0.00    -0.082 SA
HETATM   11  C   UNL     1     -40.594  53.293 -53.670  1.00  0.00     0.017 A 
HETATM   12  C   UNL     1     -41.191  54.036 -52.649  1.00  0.00     0.004 A 
HETATM   13  C   UNL     1     -39.808  52.156 -53.400  1.00  0.00     0.020 A 
HETATM   14  C   UNL     1     -41.929  55.153 -53.185  1.00  0.00     0.068 A 
HETATM   15  C   UNL     1     -40.985  53.600 -51.313  1.00  0.00     0.014 A 
HETATM   16 CL   UNL     1     -42.776  56.237 -52.149  1.00  0.00    -0.082 Cl
HETATM   17  C   UNL     1     -40.206  52.472 -51.039  1.00  0.00     0.001 A 
HETATM   18  C   UNL     1     -39.622  51.759 -52.075  1.00  0.00     0.001 A 
ENDBRANCH   6   9
ENDBRANCH   2   5
BRANCH   1  19
HETATM   19  C   UNL     1     -44.132  57.651 -59.564  1.00  0.00     0.180 C 
BRANCH  19  20
HETATM   20  C   UNL     1     -43.088  58.622 -60.141  1.00  0.00     0.045 C 
BRANCH  20  21
HETATM   21  C   UNL     1     -42.065  59.090 -59.107  1.00  0.00     0.076 C 
BRANCH  21  22
HETATM   22  S   UNL     1     -42.682  60.596 -58.284  1.00  0.00    -0.173 SA
HETATM   23  C   UNL     1     -41.127  61.514 -58.194  1.00  0.00     0.089 C 
ENDBRANCH  21  22
ENDBRANCH  20  21
ENDBRANCH  19  20
BRANCH  19  24
HETATM   24  N   UNL     1     -44.965  56.957 -60.552  1.00  0.00    -0.330 N 
HETATM   25  C   UNL     1     -46.309  56.796 -60.384  1.00  0.00     0.314 C 
HETATM   26  N   UNL     1     -46.914  56.275 -61.479  1.00  0.00    -0.352 N 
HETATM   27  O   UNL     1     -46.933  57.012 -59.357  1.00  0.00    -0.248 OA
HETATM   28  H   UNL     1     -46.579  56.540 -62.393  1.00  0.00     0.160 HD
HETATM   29  H   UNL     1     -47.922  56.223 -61.393  1.00  0.00     0.160 HD
HETATM   30  H   UNL     1     -44.696  57.115 -61.511  1.00  0.00     0.165 HD
ENDBRANCH  19  24
ENDBRANCH   1  19
TORSDOF 7
ENDMDL
MODEL 6
REMARK VINA RESULT:      -6.8      5.668      7.302
REMARK  7 active torsions:
REMARK  status: ('A' for Active; 'I' for Inactive)
REMARK    1  A    between atoms: S_2  and  C_3 
REMARK    2  A    between atoms: C_3  and  C_4 
REMARK    3  A    between atoms: C_4  and  C_5 
REMARK    4  A    between atoms: C_5  and  N_6 
REMARK    5  A    between atoms: C_5  and  C_10 
REMARK       I    between atoms: N_6  and  C_7 
REMARK       I    between atoms: C_7  and  N_8 
REMARK       I    between atoms: C_10  and  N_11 
REMARK    6  A    between atoms: N_11  and  N_12 
REMARK       I    between atoms: N_12  and  C_13 
REMARK    7  A    between atoms: C_13  and  C_14 
ROOT
HETATM    1  C   UNL     1     -44.638  58.482 -51.595  1.00  0.00     0.259 C 
HETATM    2  N   UNL     1     -43.849  57.789 -50.703  1.00  0.00    -0.265 N 
HETATM    3  O   UNL     1     -44.947  58.000 -52.690  1.00  0.00    -0.269 OA
HETATM    4  H   UNL     1     -43.576  58.122 -49.778  1.00  0.00     0.190 HD
ENDROOT
BRANCH   2   5
HETATM    5  N   UNL     1     -43.277  56.578 -51.106  1.00  0.00    -0.263 N 
HETATM    6  C   UNL     1     -41.897  56.489 -51.199  1.00  0.00     0.278 C 
HETATM    7  O   UNL     1     -41.205  57.443 -50.836  1.00  0.00    -0.265 OA
HETATM    8  H   UNL     1     -43.909  55.841 -51.419  1.00  0.00     0.190 HD
BRANCH   6   9
HETATM    9  C   UNL     1     -41.365  55.246 -51.738  1.00  0.00     0.097 A 
HETATM   10  S   UNL     1     -40.553  54.126 -50.728  1.00  0.00    -0.082 SA
HETATM   11  C   UNL     1     -40.318  52.998 -51.999  1.00  0.00     0.017 A 
HETATM   12  C   UNL     1     -40.835  53.473 -53.206  1.00  0.00     0.004 A 
HETATM   13  C   UNL     1     -39.691  51.740 -51.904  1.00  0.00     0.020 A 
HETATM   14  C   UNL     1     -41.433  54.775 -53.036  1.00  0.00     0.068 A 
HETATM   15  C   UNL     1     -40.703  52.643 -54.351  1.00  0.00     0.014 A 
HETATM   16 CL   UNL     1     -42.144  55.607 -54.365  1.00  0.00    -0.082 Cl
HETATM   17  C   UNL     1     -40.082  51.394 -54.261  1.00  0.00     0.001 A 
HETATM   18  C   UNL     1     -39.583  50.947 -53.047  1.00  0.00     0.001 A 
ENDBRANCH   6   9
ENDBRANCH   2   5
BRANCH   1  19
HETATM   19  C   UNL     1     -45.217  59.822 -51.073  1.00  0.00     0.180 C 
BRANCH  19  20
HETATM   20  C   UNL     1     -46.440  60.315 -51.865  1.00  0.00     0.045 C 
BRANCH  20  21
HETATM   21  C   UNL     1     -46.264  61.725 -52.427  1.00  0.00     0.076 C 
BRANCH  21  22
HETATM   22  S   UNL     1     -47.220  62.905 -51.417  1.00  0.00    -0.173 SA
HETATM   23  C   UNL     1     -46.049  64.281 -51.423  1.00  0.00     0.089 C 
ENDBRANCH  21  22
ENDBRANCH  20  21
ENDBRANCH  19  20
BRANCH  19  24
HETATM   24  N   UNL     1     -45.405  59.713 -49.623  1.00  0.00    -0.330 N 
HETATM   25  C   UNL     1     -45.215  60.772 -48.784  1.00  0.00     0.314 C 
HETATM   26  N   UNL     1     -45.596  60.505 -47.511  1.00  0.00    -0.352 N 
HETATM   27  O   UNL     1     -44.697  61.836 -49.080  1.00  0.00    -0.248 OA
HETATM   28  H   UNL     1     -46.399  59.916 -47.355  1.00  0.00     0.160 HD
HETATM   29  H   UNL     1     -45.531  61.308 -46.897  1.00  0.00     0.160 HD
HETATM   30  H   UNL     1     -46.164  59.109 -49.343  1.00  0.00     0.165 HD
ENDBRANCH  19  24
ENDBRANCH   1  19
TORSDOF 7
ENDMDL
MODEL 7
REMARK VINA RESULT:      -6.7      1.709      2.110
REMARK  7 active torsions:
REMARK  status: ('A' for Active; 'I' for Inactive)
REMARK    1  A    between atoms: S_2  and  C_3 
REMARK    2  A    between atoms: C_3  and  C_4 
REMARK    3  A    between atoms: C_4  and  C_5 
REMARK    4  A    between atoms: C_5  and  N_6 
REMARK    5  A    between atoms: C_5  and  C_10 
REMARK       I    between atoms: N_6  and  C_7 
REMARK       I    between atoms: C_7  and  N_8 
REMARK       I    between atoms: C_10  and  N_11 
REMARK    6  A    between atoms: N_11  and  N_12 
REMARK       I    between atoms: N_12  and  C_13 
REMARK    7  A    between atoms: C_13  and  C_14 
ROOT
HETATM    1  C   UNL     1     -43.601  57.218 -57.375  1.00  0.00     0.259 C 
HETATM    2  N   UNL     1     -44.214  56.617 -56.297  1.00  0.00    -0.265 N 
HETATM    3  O   UNL     1     -42.389  57.459 -57.373  1.00  0.00    -0.269 OA
HETATM    4  H   UNL     1     -45.203  56.374 -56.244  1.00  0.00     0.190 HD
ENDROOT
BRANCH   2   5
HETATM    5  N   UNL     1     -43.473  56.404 -55.131  1.00  0.00    -0.263 N 
HETATM    6  C   UNL     1     -43.141  55.106 -54.778  1.00  0.00     0.278 C 
HETATM    7  O   UNL     1     -43.423  54.181 -55.543  1.00  0.00    -0.265 OA
HETATM    8  H   UNL     1     -43.299  57.210 -54.531  1.00  0.00     0.190 HD
BRANCH   6   9
HETATM    9  C   UNL     1     -42.474  54.936 -53.494  1.00  0.00     0.097 A 
HETATM   10  S   UNL     1     -43.034  55.754 -52.098  1.00  0.00    -0.082 SA
HETATM   11  C   UNL     1     -41.856  55.030 -51.081  1.00  0.00     0.017 A 
HETATM   12  C   UNL     1     -41.014  54.178 -51.799  1.00  0.00     0.004 A 
HETATM   13  C   UNL     1     -41.704  55.228 -49.694  1.00  0.00     0.020 A 
HETATM   14  C   UNL     1     -41.385  54.139 -53.193  1.00  0.00     0.068 A 
HETATM   15  C   UNL     1     -39.983  53.514 -51.083  1.00  0.00     0.014 A 
HETATM   16 CL   UNL     1     -40.510  53.173 -54.318  1.00  0.00    -0.082 Cl
HETATM   17  C   UNL     1     -39.828  53.708 -49.707  1.00  0.00     0.001 A 
HETATM   18  C   UNL     1     -40.683  54.556 -49.020  1.00  0.00     0.001 A 
ENDBRANCH   6   9
ENDBRANCH   2   5
BRANCH   1  19
HETATM   19  C   UNL     1     -44.499  57.433 -58.620  1.00  0.00     0.180 C 
BRANCH  19  20
HETATM   20  C   UNL     1     -43.875  58.359 -59.678  1.00  0.00     0.045 C 
BRANCH  20  21
HETATM   21  C   UNL     1     -44.913  59.164 -60.459  1.00  0.00     0.076 C 
BRANCH  21  22
HETATM   22  S   UNL     1     -46.284  59.625 -59.349  1.00  0.00    -0.173 SA
HETATM   23  C   UNL     1     -47.665  59.276 -60.462  1.00  0.00     0.089 C 
ENDBRANCH  21  22
ENDBRANCH  20  21
ENDBRANCH  19  20
BRANCH  19  24
HETATM   24  N   UNL     1     -44.937  56.121 -59.108  1.00  0.00    -0.330 N 
HETATM   25  C   UNL     1     -44.083  55.250 -59.717  1.00  0.00     0.314 C 
HETATM   26  N   UNL     1     -44.646  54.038 -59.944  1.00  0.00    -0.352 N 
HETATM   27  O   UNL     1     -42.953  55.506 -60.101  1.00  0.00    -0.248 OA
HETATM   28  H   UNL     1     -45.296  53.668 -59.269  1.00  0.00     0.160 HD
HETATM   29  H   UNL     1     -43.996  53.360 -60.326  1.00  0.00     0.160 HD
HETATM   30  H   UNL     1     -45.628  55.668 -58.528  1.00  0.00     0.165 HD
ENDBRANCH  19  24
ENDBRANCH   1  19
TORSDOF 7
ENDMDL
MODEL 8
REMARK VINA RESULT:      -6.7      5.548      7.243
REMARK  7 active torsions:
REMARK  status: ('A' for Active; 'I' for Inactive)
REMARK    1  A    between atoms: S_2  and  C_3 
REMARK    2  A    between atoms: C_3  and  C_4 
REMARK    3  A    between atoms: C_4  and  C_5 
REMARK    4  A    between atoms: C_5  and  N_6 
REMARK    5  A    between atoms: C_5  and  C_10 
REMARK       I    between atoms: N_6  and  C_7 
REMARK       I    between atoms: C_7  and  N_8 
REMARK       I    between atoms: C_10  and  N_11 
REMARK    6  A    between atoms: N_11  and  N_12 
REMARK       I    between atoms: N_12  and  C_13 
REMARK    7  A    between atoms: C_13  and  C_14 
ROOT
HETATM    1  C   UNL     1     -43.051  59.997 -51.148  1.00  0.00     0.259 C 
HETATM    2  N   UNL     1     -43.357  58.747 -50.652  1.00  0.00    -0.265 N 
HETATM    3  O   UNL     1     -42.154  60.155 -51.982  1.00  0.00    -0.269 OA
HETATM    4  H   UNL     1     -44.096  58.548 -49.979  1.00  0.00     0.190 HD
ENDROOT
BRANCH   2   5
HETATM    5  N   UNL     1     -42.542  57.665 -50.999  1.00  0.00    -0.263 N 
HETATM    6  C   UNL     1     -43.038  56.707 -51.869  1.00  0.00     0.278 C 
HETATM    7  O   UNL     1     -44.145  56.877 -52.387  1.00  0.00    -0.265 OA
HETATM    8  H   UNL     1     -41.652  57.572 -50.512  1.00  0.00     0.190 HD
BRANCH   6   9
HETATM    9  C   UNL     1     -42.193  55.544 -52.100  1.00  0.00     0.097 A 
HETATM   10  S   UNL     1     -41.413  54.752 -50.797  1.00  0.00    -0.082 SA
HETATM   11  C   UNL     1     -40.726  53.549 -51.810  1.00  0.00     0.017 A 
HETATM   12  C   UNL     1     -41.067  53.753 -53.149  1.00  0.00     0.004 A 
HETATM   13  C   UNL     1     -39.916  52.470 -51.406  1.00  0.00     0.020 A 
HETATM   14  C   UNL     1     -41.912  54.913 -53.297  1.00  0.00     0.068 A 
HETATM   15  C   UNL     1     -40.559  52.833 -54.104  1.00  0.00     0.014 A 
HETATM   16 CL   UNL     1     -42.479  55.407 -54.846  1.00  0.00    -0.082 Cl
HETATM   17  C   UNL     1     -39.754  51.761 -53.708  1.00  0.00     0.001 A 
HETATM   18  C   UNL     1     -39.438  51.581 -52.370  1.00  0.00     0.001 A 
ENDBRANCH   6   9
ENDBRANCH   2   5
BRANCH   1  19
HETATM   19  C   UNL     1     -43.994  61.142 -50.699  1.00  0.00     0.180 C 
BRANCH  19  20
HETATM   20  C   UNL     1     -43.257  62.448 -50.354  1.00  0.00     0.045 C 
BRANCH  20  21
HETATM   21  C   UNL     1     -43.921  63.232 -49.223  1.00  0.00     0.076 C 
BRANCH  21  22
HETATM   22  S   UNL     1     -44.836  62.082 -48.143  1.00  0.00    -0.173 SA
HETATM   23  C   UNL     1     -45.435  63.272 -46.922  1.00  0.00     0.089 C 
ENDBRANCH  21  22
ENDBRANCH  20  21
ENDBRANCH  19  20
BRANCH  19  24
HETATM   24  N   UNL     1     -45.073  61.267 -51.684  1.00  0.00    -0.330 N 
HETATM   25  C   UNL     1     -46.222  60.536 -51.600  1.00  0.00     0.314 C 
HETATM   26  N   UNL     1     -47.152  60.917 -52.509  1.00  0.00    -0.352 N 
HETATM   27  O   UNL     1     -46.413  59.587 -50.857  1.00  0.00    -0.248 OA
HETATM   28  H   UNL     1     -47.229  61.893 -52.748  1.00  0.00     0.160 HD
HETATM   29  H   UNL     1     -48.035  60.433 -52.405  1.00  0.00     0.160 HD
HETATM   30  H   UNL     1     -45.218  62.204 -52.030  1.00  0.00     0.165 HD
ENDBRANCH  19  24
ENDBRANCH   1  19
TORSDOF 7
ENDMDL
MODEL 9
REMARK VINA RESULT:      -6.7      5.882      7.670
REMARK  7 active torsions:
REMARK  status: ('A' for Active; 'I' for Inactive)
REMARK    1  A    between atoms: S_2  and  C_3 
REMARK    2  A    between atoms: C_3  and  C_4 
REMARK    3  A    between atoms: C_4  and  C_5 
REMARK    4  A    between atoms: C_5  and  N_6 
REMARK    5  A    between atoms: C_5  and  C_10 
REMARK       I    between atoms: N_6  and  C_7 
REMARK       I    between atoms: C_7  and  N_8 
REMARK       I    between atoms: C_10  and  N_11 
REMARK    6  A    between atoms: N_11  and  N_12 
REMARK       I    between atoms: N_12  and  C_13 
REMARK    7  A    between atoms: C_13  and  C_14 
ROOT
HETATM    1  C   UNL     1     -43.994  59.643 -51.153  1.00  0.00     0.259 C 
HETATM    2  N   UNL     1     -44.064  58.369 -50.632  1.00  0.00    -0.265 N 
HETATM    3  O   UNL     1     -43.387  59.874 -52.205  1.00  0.00    -0.269 OA
HETATM    4  H   UNL     1     -44.564  58.110 -49.782  1.00  0.00     0.190 HD
ENDROOT
BRANCH   2   5
HETATM    5  N   UNL     1     -43.318  57.351 -51.233  1.00  0.00    -0.263 N 
HETATM    6  C   UNL     1     -43.675  56.032 -50.997  1.00  0.00     0.278 C 
HETATM    7  O   UNL     1     -44.691  55.790 -50.342  1.00  0.00    -0.265 OA
HETATM    8  H   UNL     1     -42.475  57.621 -51.737  1.00  0.00     0.190 HD
BRANCH   6   9
HETATM    9  C   UNL     1     -42.792  55.015 -51.550  1.00  0.00     0.097 A 
HETATM   10  S   UNL     1     -42.866  54.596 -53.209  1.00  0.00    -0.082 SA
HETATM   11  C   UNL     1     -41.573  53.474 -53.085  1.00  0.00     0.017 A 
HETATM   12  C   UNL     1     -41.090  53.393 -51.777  1.00  0.00     0.004 A 
HETATM   13  C   UNL     1     -41.025  52.702 -54.128  1.00  0.00     0.020 A 
HETATM   14  C   UNL     1     -41.809  54.289 -50.904  1.00  0.00     0.068 A 
HETATM   15  C   UNL     1     -40.020  52.494 -51.525  1.00  0.00     0.014 A 
HETATM   16 CL   UNL     1     -41.429  54.391 -49.228  1.00  0.00    -0.082 Cl
HETATM   17  C   UNL     1     -39.472  51.726 -52.557  1.00  0.00     0.001 A 
HETATM   18  C   UNL     1     -39.970  51.832 -53.846  1.00  0.00     0.001 A 
ENDBRANCH   6   9
ENDBRANCH   2   5
BRANCH   1  19
HETATM   19  C   UNL     1     -44.837  60.714 -50.416  1.00  0.00     0.180 C 
BRANCH  19  20
HETATM   20  C   UNL     1     -46.083  61.164 -51.198  1.00  0.00     0.045 C 
BRANCH  20  21
HETATM   21  C   UNL     1     -46.095  62.662 -51.498  1.00  0.00     0.076 C 
BRANCH  21  22
HETATM   22  S   UNL     1     -47.816  63.266 -51.502  1.00  0.00    -0.173 SA
HETATM   23  C   UNL     1     -48.460  62.245 -52.848  1.00  0.00     0.089 C 
ENDBRANCH  21  22
ENDBRANCH  20  21
ENDBRANCH  19  20
BRANCH  19  24
HETATM   24  N   UNL     1     -45.084  60.249 -49.047  1.00  0.00    -0.330 N 
HETATM   25  C   UNL     1     -45.070  61.096 -47.978  1.00  0.00     0.314 C 
HETATM   26  N   UNL     1     -45.480  60.498 -46.832  1.00  0.00    -0.352 N 
HETATM   27  O   UNL     1     -44.674  62.250 -47.985  1.00  0.00    -0.248 OA
HETATM   28  H   UNL     1     -46.210  59.805 -46.878  1.00  0.00     0.160 HD
HETATM   29  H   UNL     1     -45.547  61.137 -46.050  1.00  0.00     0.160 HD
HETATM   30  H   UNL     1     -45.774  59.517 -48.972  1.00  0.00     0.165 HD
ENDBRANCH  19  24
ENDBRANCH   1  19
TORSDOF 7
ENDMDL
MODEL 10
REMARK VINA RESULT:      -6.7      4.722      6.196
REMARK  7 active torsions:
REMARK  status: ('A' for Active; 'I' for Inactive)
REMARK    1  A    between atoms: S_2  and  C_3 
REMARK    2  A    between atoms: C_3  and  C_4 
REMARK    3  A    between atoms: C_4  and  C_5 
REMARK    4  A    between atoms: C_5  and  N_6 
REMARK    5  A    between atoms: C_5  and  C_10 
REMARK       I    between atoms: N_6  and  C_7 
REMARK       I    between atoms: C_7  and  N_8 
REMARK       I    between atoms: C_10  and  N_11 
REMARK    6  A    between atoms: N_11  and  N_12 
REMARK       I    between atoms: N_12  and  C_13 
REMARK    7  A    between atoms: C_13  and  C_14 
ROOT
HETATM    1  C   UNL     1     -43.664  57.880 -51.877  1.00  0.00     0.259 C 
HETATM    2  N   UNL     1     -42.327  57.638 -52.109  1.00  0.00    -0.265 N 
HETATM    3  O   UNL     1     -44.409  56.999 -51.436  1.00  0.00    -0.269 OA
HETATM    4  H   UNL     1     -41.657  58.325 -52.453  1.00  0.00     0.190 HD
ENDROOT
BRANCH   2   5
HETATM    5  N   UNL     1     -41.843  56.333 -51.972  1.00  0.00    -0.263 N 
HETATM    6  C   UNL     1     -41.013  55.821 -52.957  1.00  0.00     0.278 C 
HETATM    7  O   UNL     1     -40.647  56.554 -53.878  1.00  0.00    -0.265 OA
HETATM    8  H   UNL     1     -42.209  55.775 -51.202  1.00  0.00     0.190 HD
BRANCH   6   9
HETATM    9  C   UNL     1     -40.638  54.421 -52.821  1.00  0.00     0.097 A 
HETATM   10  S   UNL     1     -40.377  53.726 -51.278  1.00  0.00    -0.082 SA
HETATM   11  C   UNL     1     -40.066  52.166 -51.923  1.00  0.00     0.017 A 
HETATM   12  C   UNL     1     -40.137  52.167 -53.318  1.00  0.00     0.004 A 
HETATM   13  C   UNL     1     -39.770  50.997 -51.195  1.00  0.00     0.020 A 
HETATM   14  C   UNL     1     -40.465  53.479 -53.819  1.00  0.00     0.068 A 
HETATM   15  C   UNL     1     -39.892  50.939 -53.990  1.00  0.00     0.014 A 
HETATM   16 CL   UNL     1     -40.610  53.774 -55.509  1.00  0.00    -0.082 Cl
HETATM   17  C   UNL     1     -39.599  49.776 -53.272  1.00  0.00     0.001 A 
HETATM   18  C   UNL     1     -39.541  49.806 -51.887  1.00  0.00     0.001 A 
ENDBRANCH   6   9
ENDBRANCH   2   5
BRANCH   1  19
HETATM   19  C   UNL     1     -44.120  59.349 -52.070  1.00  0.00     0.180 C 
BRANCH  19  20
HETATM   20  C   UNL     1     -45.136  59.534 -53.209  1.00  0.00     0.045 C 
BRANCH  20  21
HETATM   21  C   UNL     1     -44.645  60.478 -54.305  1.00  0.00     0.076 C 
BRANCH  21  22
HETATM   22  S   UNL     1     -42.903  60.917 -53.992  1.00  0.00    -0.173 SA
HETATM   23  C   UNL     1     -42.121  59.774 -55.154  1.00  0.00     0.089 C 
ENDBRANCH  21  22
ENDBRANCH  20  21
ENDBRANCH  19  20
BRANCH  19  24
HETATM   24  N   UNL     1     -44.527  59.883 -50.766  1.00  0.00    -0.330 N 
HETATM   25  C   UNL     1     -43.673  60.590 -49.971  1.00  0.00     0.314 C 
HETATM   26  N   UNL     1     -44.289  61.129 -48.891  1.00  0.00    -0.352 N 
HETATM   27  O   UNL     1     -42.468  60.696 -50.132  1.00  0.00    -0.248 OA
HETATM   28  H   UNL     1     -45.235  61.464 -48.986  1.00  0.00     0.160 HD
HETATM   29  H   UNL     1     -43.681  61.720 -48.337  1.00  0.00     0.160 HD
HETATM   30  H   UNL     1     -45.479  60.214 -50.728  1.00  0.00     0.165 HD
ENDBRANCH  19  24
ENDBRANCH   1  19
TORSDOF 7
ENDMDL
