MODEL 1
REMARK VINA RESULT:      -7.9      0.000      0.000
REMARK  6 active torsions:
REMARK  status: ('A' for Active; 'I' for Inactive)
REMARK    1  A    between atoms: C_8  and  N_9 
REMARK       I    between atoms: N_9  and  C_10 
REMARK    2  A    between atoms: C_10  and  C_11 
REMARK    3  A    between atoms: C_11  and  N_12 
REMARK    4  A    between atoms: N_12  and  C_13 
REMARK    5  A    between atoms: C_13  and  C_14 
REMARK    6  A    between atoms: C_13  and  C_17 
ROOT
HETATM    1  C   UNL     1     -43.234  55.661 -54.604  1.00  0.00     0.372 C 
ENDROOT
BRANCH   1   2
HETATM    2  C   UNL     1     -42.771  55.528 -56.055  1.00  0.00     0.250 C 
HETATM    3  N   UNL     1     -43.634  56.120 -56.951  1.00  0.00    -0.322 N 
HETATM    4  H   UNL     1     -44.544  56.364 -56.571  1.00  0.00     0.169 HD
HETATM    5  O   UNL     1     -41.696  54.992 -56.311  1.00  0.00    -0.271 OA
BRANCH   3   6
HETATM    6  C   UNL     1     -43.430  56.312 -58.307  1.00  0.00     0.085 A 
HETATM    7  C   UNL     1     -42.704  57.381 -58.801  1.00  0.00     0.052 A 
HETATM    8  C   UNL     1     -42.019  58.527 -58.162  1.00  0.00     0.072 C 
HETATM    9  N   UNL     1     -42.725  57.250 -60.160  1.00  0.00    -0.280 N 
HETATM   10  H   UNL     1     -42.310  57.863 -60.854  1.00  0.00     0.189 HD
HETATM   11  N   UNL     1     -43.367  56.163 -60.592  1.00  0.00    -0.177 NA
HETATM   12  C   UNL     1     -43.803  55.569 -59.469  1.00  0.00     0.079 A 
HETATM   13  C   UNL     1     -44.525  54.279 -59.603  1.00  0.00     0.075 C 
ENDBRANCH   3   6
ENDBRANCH   1   2
BRANCH   1  14
HETATM   14  N   UNL     1     -42.996  54.475 -53.778  1.00  0.00     0.101 N 
HETATM   15  H   UNL     1     -43.896  54.210 -53.376  1.00  0.00     0.317 HD
BRANCH  14  16
HETATM   16  C   UNL     1     -41.997  54.530 -52.684  1.00  0.00     0.259 C 
BRANCH  16  17
HETATM   17  C   UNL     1     -42.488  54.639 -51.191  1.00  0.00     0.015 C 
HETATM   18  C   UNL     1     -42.559  56.109 -50.718  1.00  0.00     0.012 C 
HETATM   19  C   UNL     1     -43.893  54.057 -50.958  1.00  0.00     0.012 C 
ENDBRANCH  16  17
BRANCH  16  20
HETATM   20  C   UNL     1     -41.107  53.288 -52.888  1.00  0.00    -0.003 A 
HETATM   21  C   UNL     1     -40.120  52.887 -51.971  1.00  0.00     0.042 A 
HETATM   22 CL   UNL     1     -39.829  53.723 -50.489  1.00  0.00    -0.084 Cl
HETATM   23  C   UNL     1     -39.324  51.762 -52.225  1.00  0.00     0.024 A 
HETATM   24  C   UNL     1     -39.498  51.018 -53.392  1.00  0.00     0.002 A 
HETATM   25  C   UNL     1     -40.468  51.395 -54.311  1.00  0.00     0.001 A 
HETATM   26  C   UNL     1     -41.261  52.518 -54.064  1.00  0.00     0.011 A 
ENDBRANCH  16  20
ENDBRANCH  14  16
ENDBRANCH   1  14
TORSDOF 6
ENDMDL
MODEL 2
REMARK VINA RESULT:      -7.5      0.464      1.759
REMARK  6 active torsions:
REMARK  status: ('A' for Active; 'I' for Inactive)
REMARK    1  A    between atoms: C_8  and  N_9 
REMARK       I    between atoms: N_9  and  C_10 
REMARK    2  A    between atoms: C_10  and  C_11 
REMARK    3  A    between atoms: C_11  and  N_12 
REMARK    4  A    between atoms: N_12  and  C_13 
REMARK    5  A    between atoms: C_13  and  C_14 
REMARK    6  A    between atoms: C_13  and  C_17 
ROOT
HETATM    1  C   UNL     1     -43.595  55.730 -54.522  1.00  0.00     0.372 C 
ENDROOT
BRANCH   1   2
HETATM    2  C   UNL     1     -42.823  55.970 -55.820  1.00  0.00     0.250 C 
HETATM    3  N   UNL     1     -43.639  56.302 -56.879  1.00  0.00    -0.322 N 
HETATM    4  H   UNL     1     -44.629  56.133 -56.724  1.00  0.00     0.169 HD
HETATM    5  O   UNL     1     -41.596  55.917 -55.825  1.00  0.00    -0.271 OA
BRANCH   3   6
HETATM    6  C   UNL     1     -43.247  56.730 -58.136  1.00  0.00     0.085 A 
HETATM    7  C   UNL     1     -43.537  56.014 -59.283  1.00  0.00     0.052 A 
HETATM    8  C   UNL     1     -44.233  54.732 -59.533  1.00  0.00     0.072 C 
HETATM    9  N   UNL     1     -42.991  56.724 -60.314  1.00  0.00    -0.280 N 
HETATM   10  H   UNL     1     -42.990  56.492 -61.301  1.00  0.00     0.189 HD
HETATM   11  N   UNL     1     -42.406  57.863 -59.940  1.00  0.00    -0.177 NA
HETATM   12  C   UNL     1     -42.558  57.890 -58.605  1.00  0.00     0.079 A 
HETATM   13  C   UNL     1     -42.053  59.079 -57.875  1.00  0.00     0.075 C 
ENDBRANCH   3   6
ENDBRANCH   1   2
BRANCH   1  14
HETATM   14  N   UNL     1     -43.205  54.518 -53.798  1.00  0.00     0.101 N 
HETATM   15  H   UNL     1     -44.064  54.098 -53.442  1.00  0.00     0.317 HD
BRANCH  14  16
HETATM   16  C   UNL     1     -42.236  54.611 -52.679  1.00  0.00     0.259 C 
BRANCH  16  17
HETATM   17  C   UNL     1     -42.766  54.672 -51.197  1.00  0.00     0.015 C 
HETATM   18  C   UNL     1     -43.130  56.115 -50.778  1.00  0.00     0.012 C 
HETATM   19  C   UNL     1     -44.037  53.836 -50.961  1.00  0.00     0.012 C 
ENDBRANCH  16  17
BRANCH  16  20
HETATM   20  C   UNL     1     -41.275  53.422 -52.879  1.00  0.00    -0.003 A 
HETATM   21  C   UNL     1     -40.281  53.068 -51.949  1.00  0.00     0.042 A 
HETATM   22 CL   UNL     1     -40.059  53.909 -50.458  1.00  0.00    -0.084 Cl
HETATM   23  C   UNL     1     -39.421  51.991 -52.199  1.00  0.00     0.024 A 
HETATM   24  C   UNL     1     -39.536  51.248 -53.373  1.00  0.00     0.002 A 
HETATM   25  C   UNL     1     -40.512  51.577 -54.304  1.00  0.00     0.001 A 
HETATM   26  C   UNL     1     -41.370  52.652 -54.062  1.00  0.00     0.011 A 
ENDBRANCH  16  20
ENDBRANCH  14  16
ENDBRANCH   1  14
TORSDOF 6
ENDMDL
MODEL 3
REMARK VINA RESULT:      -7.4      1.532      2.046
REMARK  6 active torsions:
REMARK  status: ('A' for Active; 'I' for Inactive)
REMARK    1  A    between atoms: C_8  and  N_9 
REMARK       I    between atoms: N_9  and  C_10 
REMARK    2  A    between atoms: C_10  and  C_11 
REMARK    3  A    between atoms: C_11  and  N_12 
REMARK    4  A    between atoms: N_12  and  C_13 
REMARK    5  A    between atoms: C_13  and  C_14 
REMARK    6  A    between atoms: C_13  and  C_17 
ROOT
HETATM    1  C   UNL     1     -43.779  55.902 -54.524  1.00  0.00     0.372 C 
ENDROOT
BRANCH   1   2
HETATM    2  C   UNL     1     -43.390  55.526 -55.954  1.00  0.00     0.250 C 
HETATM    3  N   UNL     1     -43.685  56.512 -56.869  1.00  0.00    -0.322 N 
HETATM    4  H   UNL     1     -44.304  57.242 -56.526  1.00  0.00     0.169 HD
HETATM    5  O   UNL     1     -42.816  54.463 -56.176  1.00  0.00    -0.271 OA
BRANCH   3   6
HETATM    6  C   UNL     1     -43.321  56.551 -58.204  1.00  0.00     0.085 A 
HETATM    7  C   UNL     1     -42.488  57.530 -58.715  1.00  0.00     0.052 A 
HETATM    8  C   UNL     1     -41.817  58.707 -58.118  1.00  0.00     0.072 C 
HETATM    9  N   UNL     1     -42.365  57.257 -60.047  1.00  0.00    -0.280 N 
HETATM   10  H   UNL     1     -41.843  57.776 -60.746  1.00  0.00     0.189 HD
HETATM   11  N   UNL     1     -43.014  56.160 -60.440  1.00  0.00    -0.177 NA
HETATM   12  C   UNL     1     -43.604  55.707 -59.322  1.00  0.00     0.079 A 
HETATM   13  C   UNL     1     -44.376  54.442 -59.410  1.00  0.00     0.075 C 
ENDBRANCH   3   6
ENDBRANCH   1   2
BRANCH   1  14
HETATM   14  N   UNL     1     -43.043  55.180 -53.483  1.00  0.00     0.101 N 
HETATM   15  H   UNL     1     -43.573  55.290 -52.617  1.00  0.00     0.317 HD
BRANCH  14  16
HETATM   16  C   UNL     1     -41.628  55.527 -53.209  1.00  0.00     0.259 C 
BRANCH  16  17
HETATM   17  C   UNL     1     -41.296  56.816 -52.366  1.00  0.00     0.015 C 
HETATM   18  C   UNL     1     -40.780  57.967 -53.260  1.00  0.00     0.012 C 
HETATM   19  C   UNL     1     -42.506  57.387 -51.607  1.00  0.00     0.012 C 
ENDBRANCH  16  17
BRANCH  16  20
HETATM   20  C   UNL     1     -41.022  54.266 -52.561  1.00  0.00    -0.003 A 
HETATM   21  C   UNL     1     -40.334  53.280 -53.289  1.00  0.00     0.042 A 
HETATM   22 CL   UNL     1     -40.059  53.397 -54.989  1.00  0.00    -0.084 Cl
HETATM   23  C   UNL     1     -39.827  52.142 -52.647  1.00  0.00     0.024 A 
HETATM   24  C   UNL     1     -39.992  51.969 -51.273  1.00  0.00     0.002 A 
HETATM   25  C   UNL     1     -40.666  52.933 -50.533  1.00  0.00     0.001 A 
HETATM   26  C   UNL     1     -41.177  54.067 -51.170  1.00  0.00     0.011 A 
ENDBRANCH  16  20
ENDBRANCH  14  16
ENDBRANCH   1  14
TORSDOF 6
ENDMDL
MODEL 4
REMARK VINA RESULT:      -7.3      1.531      1.867
REMARK  6 active torsions:
REMARK  status: ('A' for Active; 'I' for Inactive)
REMARK    1  A    between atoms: C_8  and  N_9 
REMARK       I    between atoms: N_9  and  C_10 
REMARK    2  A    between atoms: C_10  and  C_11 
REMARK    3  A    between atoms: C_11  and  N_12 
REMARK    4  A    between atoms: N_12  and  C_13 
REMARK    5  A    between atoms: C_13  and  C_14 
REMARK    6  A    between atoms: C_13  and  C_17 
ROOT
HETATM    1  C   UNL     1     -41.991  56.811 -54.924  1.00  0.00     0.372 C 
ENDROOT
BRANCH   1   2
HETATM    2  C   UNL     1     -42.819  56.329 -56.116  1.00  0.00     0.250 C 
HETATM    3  N   UNL     1     -43.401  57.360 -56.820  1.00  0.00    -0.322 N 
HETATM    4  H   UNL     1     -43.392  58.259 -56.346  1.00  0.00     0.169 HD
HETATM    5  O   UNL     1     -42.860  55.133 -56.393  1.00  0.00    -0.271 OA
BRANCH   3   6
HETATM    6  C   UNL     1     -44.074  57.275 -58.026  1.00  0.00     0.085 A 
HETATM    7  C   UNL     1     -45.374  57.721 -58.180  1.00  0.00     0.052 A 
HETATM    8  C   UNL     1     -46.358  58.327 -57.254  1.00  0.00     0.072 C 
HETATM    9  N   UNL     1     -45.705  57.466 -59.480  1.00  0.00    -0.280 N 
HETATM   10  H   UNL     1     -46.588  57.643 -59.947  1.00  0.00     0.189 HD
HETATM   11  N   UNL     1     -44.716  56.930 -60.198  1.00  0.00    -0.177 NA
HETATM   12  C   UNL     1     -43.702  56.810 -59.325  1.00  0.00     0.079 A 
HETATM   13  C   UNL     1     -42.410  56.284 -59.833  1.00  0.00     0.075 C 
ENDBRANCH   3   6
ENDBRANCH   1   2
BRANCH   1  14
HETATM   14  N   UNL     1     -41.114  55.793 -54.341  1.00  0.00     0.101 N 
HETATM   15  H   UNL     1     -41.081  55.018 -55.004  1.00  0.00     0.317 HD
BRANCH  14  16
HETATM   16  C   UNL     1     -41.418  55.244 -52.998  1.00  0.00     0.259 C 
BRANCH  16  17
HETATM   17  C   UNL     1     -42.906  55.238 -52.482  1.00  0.00     0.015 C 
HETATM   18  C   UNL     1     -43.247  53.927 -51.736  1.00  0.00     0.012 C 
HETATM   19  C   UNL     1     -43.222  56.375 -51.495  1.00  0.00     0.012 C 
ENDBRANCH  16  17
BRANCH  16  20
HETATM   20  C   UNL     1     -40.823  53.821 -53.001  1.00  0.00    -0.003 A 
HETATM   21  C   UNL     1     -40.163  53.258 -51.895  1.00  0.00     0.042 A 
HETATM   22 CL   UNL     1     -39.984  54.091 -50.394  1.00  0.00    -0.084 Cl
HETATM   23  C   UNL     1     -39.621  51.968 -51.967  1.00  0.00     0.024 A 
HETATM   24  C   UNL     1     -39.729  51.217 -53.137  1.00  0.00     0.002 A 
HETATM   25  C   UNL     1     -40.380  51.752 -54.242  1.00  0.00     0.001 A 
HETATM   26  C   UNL     1     -40.918  53.039 -54.176  1.00  0.00     0.011 A 
ENDBRANCH  16  20
ENDBRANCH  14  16
ENDBRANCH   1  14
TORSDOF 6
ENDMDL
MODEL 5
REMARK VINA RESULT:      -7.3      2.465      3.159
REMARK  6 active torsions:
REMARK  status: ('A' for Active; 'I' for Inactive)
REMARK    1  A    between atoms: C_8  and  N_9 
REMARK       I    between atoms: N_9  and  C_10 
REMARK    2  A    between atoms: C_10  and  C_11 
REMARK    3  A    between atoms: C_11  and  N_12 
REMARK    4  A    between atoms: N_12  and  C_13 
REMARK    5  A    between atoms: C_13  and  C_14 
REMARK    6  A    between atoms: C_13  and  C_17 
ROOT
HETATM    1  C   UNL     1     -40.862  57.533 -53.481  1.00  0.00     0.372 C 
ENDROOT
BRANCH   1   2
HETATM    2  C   UNL     1     -41.771  58.337 -54.411  1.00  0.00     0.250 C 
HETATM    3  N   UNL     1     -42.932  57.671 -54.736  1.00  0.00    -0.322 N 
HETATM    4  H   UNL     1     -42.935  56.680 -54.508  1.00  0.00     0.169 HD
HETATM    5  O   UNL     1     -41.460  59.479 -54.739  1.00  0.00    -0.271 OA
BRANCH   3   6
HETATM    6  C   UNL     1     -44.023  58.177 -55.421  1.00  0.00     0.085 A 
HETATM    7  C   UNL     1     -44.982  58.963 -54.807  1.00  0.00     0.052 A 
HETATM    8  C   UNL     1     -45.166  59.445 -53.420  1.00  0.00     0.072 C 
HETATM    9  N   UNL     1     -45.896  59.261 -55.776  1.00  0.00    -0.280 N 
HETATM   10  H   UNL     1     -46.748  59.805 -55.686  1.00  0.00     0.189 HD
HETATM   11  N   UNL     1     -45.594  58.771 -56.979  1.00  0.00    -0.177 NA
HETATM   12  C   UNL     1     -44.443  58.106 -56.785  1.00  0.00     0.079 A 
HETATM   13  C   UNL     1     -43.799  57.476 -57.965  1.00  0.00     0.075 C 
ENDBRANCH   3   6
ENDBRANCH   1   2
BRANCH   1  14
HETATM   14  N   UNL     1     -40.981  56.079 -53.620  1.00  0.00     0.101 N 
HETATM   15  H   UNL     1     -41.602  55.909 -54.411  1.00  0.00     0.317 HD
BRANCH  14  16
HETATM   16  C   UNL     1     -41.457  55.269 -52.474  1.00  0.00     0.259 C 
BRANCH  16  17
HETATM   17  C   UNL     1     -43.001  55.177 -52.177  1.00  0.00     0.015 C 
HETATM   18  C   UNL     1     -43.343  53.952 -51.298  1.00  0.00     0.012 C 
HETATM   19  C   UNL     1     -43.559  56.398 -51.426  1.00  0.00     0.012 C 
ENDBRANCH  16  17
BRANCH  16  20
HETATM   20  C   UNL     1     -40.847  53.869 -52.690  1.00  0.00    -0.003 A 
HETATM   21  C   UNL     1     -40.096  53.195 -51.711  1.00  0.00     0.042 A 
HETATM   22 CL   UNL     1     -39.810  53.850 -50.140  1.00  0.00    -0.084 Cl
HETATM   23  C   UNL     1     -39.546  51.934 -51.976  1.00  0.00     0.024 A 
HETATM   24  C   UNL     1     -39.736  51.322 -53.215  1.00  0.00     0.002 A 
HETATM   25  C   UNL     1     -40.477  51.969 -54.196  1.00  0.00     0.001 A 
HETATM   26  C   UNL     1     -41.024  53.228 -53.938  1.00  0.00     0.011 A 
ENDBRANCH  16  20
ENDBRANCH  14  16
ENDBRANCH   1  14
TORSDOF 6
ENDMDL
MODEL 6
REMARK VINA RESULT:      -7.2      2.999      3.974
REMARK  6 active torsions:
REMARK  status: ('A' for Active; 'I' for Inactive)
REMARK    1  A    between atoms: C_8  and  N_9 
REMARK       I    between atoms: N_9  and  C_10 
REMARK    2  A    between atoms: C_10  and  C_11 
REMARK    3  A    between atoms: C_11  and  N_12 
REMARK    4  A    between atoms: N_12  and  C_13 
REMARK    5  A    between atoms: C_13  and  C_14 
REMARK    6  A    between atoms: C_13  and  C_17 
ROOT
HETATM    1  C   UNL     1     -43.565  54.577 -54.504  1.00  0.00     0.372 C 
ENDROOT
BRANCH   1   2
HETATM    2  C   UNL     1     -43.623  56.056 -54.891  1.00  0.00     0.250 C 
HETATM    3  N   UNL     1     -44.782  56.675 -54.476  1.00  0.00    -0.322 N 
HETATM    4  H   UNL     1     -45.520  56.044 -54.176  1.00  0.00     0.169 HD
HETATM    5  O   UNL     1     -42.668  56.582 -55.456  1.00  0.00    -0.271 OA
BRANCH   3   6
HETATM    6  C   UNL     1     -45.073  58.027 -54.528  1.00  0.00     0.085 A 
HETATM    7  C   UNL     1     -45.543  58.638 -55.677  1.00  0.00     0.052 A 
HETATM    8  C   UNL     1     -45.832  58.148 -57.044  1.00  0.00     0.072 C 
HETATM    9  N   UNL     1     -45.703  59.956 -55.361  1.00  0.00    -0.280 N 
HETATM   10  H   UNL     1     -46.014  60.711 -55.963  1.00  0.00     0.189 HD
HETATM   11  N   UNL     1     -45.416  60.249 -54.091  1.00  0.00    -0.177 NA
HETATM   12  C   UNL     1     -45.033  59.077 -53.560  1.00  0.00     0.079 A 
HETATM   13  C   UNL     1     -44.692  59.049 -52.115  1.00  0.00     0.075 C 
ENDBRANCH   3   6
ENDBRANCH   1   2
BRANCH   1  14
HETATM   14  N   UNL     1     -43.133  54.326 -53.127  1.00  0.00     0.101 N 
HETATM   15  H   UNL     1     -43.859  54.705 -52.517  1.00  0.00     0.317 HD
BRANCH  14  16
HETATM   16  C   UNL     1     -41.822  54.838 -52.663  1.00  0.00     0.259 C 
BRANCH  16  17
HETATM   17  C   UNL     1     -41.771  55.890 -51.492  1.00  0.00     0.015 C 
HETATM   18  C   UNL     1     -41.352  57.290 -51.998  1.00  0.00     0.012 C 
HETATM   19  C   UNL     1     -43.121  56.090 -50.782  1.00  0.00     0.012 C 
ENDBRANCH  16  17
BRANCH  16  20
HETATM   20  C   UNL     1     -40.998  53.581 -52.318  1.00  0.00    -0.003 A 
HETATM   21  C   UNL     1     -40.294  52.832 -53.277  1.00  0.00     0.042 A 
HETATM   22 CL   UNL     1     -40.244  53.268 -54.947  1.00  0.00    -0.084 Cl
HETATM   23  C   UNL     1     -39.583  51.684 -52.906  1.00  0.00     0.024 A 
HETATM   24  C   UNL     1     -39.557  51.263 -51.576  1.00  0.00     0.002 A 
HETATM   25  C   UNL     1     -40.243  51.990 -50.611  1.00  0.00     0.001 A 
HETATM   26  C   UNL     1     -40.957  53.133 -50.977  1.00  0.00     0.011 A 
ENDBRANCH  16  20
ENDBRANCH  14  16
ENDBRANCH   1  14
TORSDOF 6
ENDMDL
MODEL 7
REMARK VINA RESULT:      -7.1      4.517      5.922
REMARK  6 active torsions:
REMARK  status: ('A' for Active; 'I' for Inactive)
REMARK    1  A    between atoms: C_8  and  N_9 
REMARK       I    between atoms: N_9  and  C_10 
REMARK    2  A    between atoms: C_10  and  C_11 
REMARK    3  A    between atoms: C_11  and  N_12 
REMARK    4  A    between atoms: N_12  and  C_13 
REMARK    5  A    between atoms: C_13  and  C_14 
REMARK    6  A    between atoms: C_13  and  C_17 
ROOT
HETATM    1  C   UNL     1     -43.500  55.947 -52.724  1.00  0.00     0.372 C 
ENDROOT
BRANCH   1   2
HETATM    2  C   UNL     1     -43.869  56.967 -51.646  1.00  0.00     0.250 C 
HETATM    3  N   UNL     1     -43.395  58.231 -51.917  1.00  0.00    -0.322 N 
HETATM    4  H   UNL     1     -42.698  58.277 -52.655  1.00  0.00     0.169 HD
HETATM    5  O   UNL     1     -44.574  56.632 -50.697  1.00  0.00    -0.271 OA
BRANCH   3   6
HETATM    6  C   UNL     1     -43.685  59.399 -51.232  1.00  0.00     0.085 A 
HETATM    7  C   UNL     1     -42.701  60.173 -50.644  1.00  0.00     0.052 A 
HETATM    8  C   UNL     1     -41.231  60.040 -50.535  1.00  0.00     0.072 C 
HETATM    9  N   UNL     1     -43.352  61.221 -50.058  1.00  0.00    -0.280 N 
HETATM   10  H   UNL     1     -42.953  61.982 -49.519  1.00  0.00     0.189 HD
HETATM   11  N   UNL     1     -44.672  61.217 -50.249  1.00  0.00    -0.177 NA
HETATM   12  C   UNL     1     -44.897  60.109 -50.974  1.00  0.00     0.079 A 
HETATM   13  C   UNL     1     -46.291  59.836 -51.408  1.00  0.00     0.075 C 
ENDBRANCH   3   6
ENDBRANCH   1   2
BRANCH   1  14
HETATM   14  N   UNL     1     -42.763  54.780 -52.231  1.00  0.00     0.101 N 
HETATM   15  H   UNL     1     -43.229  54.478 -51.374  1.00  0.00     0.317 HD
BRANCH  14  16
HETATM   16  C   UNL     1     -41.311  54.891 -51.955  1.00  0.00     0.259 C 
BRANCH  16  17
HETATM   17  C   UNL     1     -40.817  55.108 -50.476  1.00  0.00     0.015 C 
HETATM   18  C   UNL     1     -40.609  56.606 -50.155  1.00  0.00     0.012 C 
HETATM   19  C   UNL     1     -41.800  54.586 -49.413  1.00  0.00     0.012 C 
ENDBRANCH  16  17
BRANCH  16  20
HETATM   20  C   UNL     1     -40.686  53.624 -52.572  1.00  0.00    -0.003 A 
HETATM   21  C   UNL     1     -40.619  53.391 -53.956  1.00  0.00     0.042 A 
HETATM   22 CL   UNL     1     -41.198  54.526 -55.121  1.00  0.00    -0.084 Cl
HETATM   23  C   UNL     1     -40.061  52.207 -54.455  1.00  0.00     0.024 A 
HETATM   24  C   UNL     1     -39.557  51.238 -53.588  1.00  0.00     0.002 A 
HETATM   25  C   UNL     1     -39.610  51.449 -52.215  1.00  0.00     0.001 A 
HETATM   26  C   UNL     1     -40.169  52.626 -51.713  1.00  0.00     0.011 A 
ENDBRANCH  16  20
ENDBRANCH  14  16
ENDBRANCH   1  14
TORSDOF 6
ENDMDL
MODEL 8
REMARK VINA RESULT:      -7.1      3.221      5.662
REMARK  6 active torsions:
REMARK  status: ('A' for Active; 'I' for Inactive)
REMARK    1  A    between atoms: C_8  and  N_9 
REMARK       I    between atoms: N_9  and  C_10 
REMARK    2  A    between atoms: C_10  and  C_11 
REMARK    3  A    between atoms: C_11  and  N_12 
REMARK    4  A    between atoms: N_12  and  C_13 
REMARK    5  A    between atoms: C_13  and  C_14 
REMARK    6  A    between atoms: C_13  and  C_17 
ROOT
HETATM    1  C   UNL     1     -40.894  57.319 -54.095  1.00  0.00     0.372 C 
ENDROOT
BRANCH   1   2
HETATM    2  C   UNL     1     -41.484  57.888 -52.804  1.00  0.00     0.250 C 
HETATM    3  N   UNL     1     -42.770  58.355 -52.960  1.00  0.00    -0.322 N 
HETATM    4  H   UNL     1     -43.071  58.465 -53.925  1.00  0.00     0.169 HD
HETATM    5  O   UNL     1     -40.840  57.839 -51.760  1.00  0.00    -0.271 OA
BRANCH   3   6
HETATM    6  C   UNL     1     -43.632  58.782 -51.965  1.00  0.00     0.085 A 
HETATM    7  C   UNL     1     -44.243  57.903 -51.090  1.00  0.00     0.052 A 
HETATM    8  C   UNL     1     -44.217  56.430 -50.944  1.00  0.00     0.072 C 
HETATM    9  N   UNL     1     -45.018  58.671 -50.269  1.00  0.00    -0.280 N 
HETATM   10  H   UNL     1     -45.625  58.365 -49.515  1.00  0.00     0.189 HD
HETATM   11  N   UNL     1     -44.932  59.980 -50.508  1.00  0.00    -0.177 NA
HETATM   12  C   UNL     1     -44.081  60.072 -51.543  1.00  0.00     0.079 A 
HETATM   13  C   UNL     1     -43.723  61.428 -52.028  1.00  0.00     0.075 C 
ENDBRANCH   3   6
ENDBRANCH   1   2
BRANCH   1  14
HETATM   14  N   UNL     1     -40.577  55.890 -54.041  1.00  0.00     0.101 N 
HETATM   15  H   UNL     1     -40.209  55.635 -54.958  1.00  0.00     0.317 HD
BRANCH  14  16
HETATM   16  C   UNL     1     -41.633  54.916 -53.676  1.00  0.00     0.259 C 
BRANCH  16  17
HETATM   17  C   UNL     1     -42.752  54.558 -54.725  1.00  0.00     0.015 C 
HETATM   18  C   UNL     1     -44.094  55.250 -54.390  1.00  0.00     0.012 C 
HETATM   19  C   UNL     1     -42.411  54.984 -56.163  1.00  0.00     0.012 C 
ENDBRANCH  16  17
BRANCH  16  20
HETATM   20  C   UNL     1     -40.877  53.654 -53.216  1.00  0.00    -0.003 A 
HETATM   21  C   UNL     1     -40.464  53.442 -51.889  1.00  0.00     0.042 A 
HETATM   22 CL   UNL     1     -40.799  54.562 -50.619  1.00  0.00    -0.084 Cl
HETATM   23  C   UNL     1     -39.757  52.285 -51.537  1.00  0.00     0.024 A 
HETATM   24  C   UNL     1     -39.452  51.320 -52.496  1.00  0.00     0.002 A 
HETATM   25  C   UNL     1     -39.852  51.507 -53.813  1.00  0.00     0.001 A 
HETATM   26  C   UNL     1     -40.554  52.660 -54.169  1.00  0.00     0.011 A 
ENDBRANCH  16  20
ENDBRANCH  14  16
ENDBRANCH   1  14
TORSDOF 6
ENDMDL
MODEL 9
REMARK VINA RESULT:      -7.1      1.832      3.597
REMARK  6 active torsions:
REMARK  status: ('A' for Active; 'I' for Inactive)
REMARK    1  A    between atoms: C_8  and  N_9 
REMARK       I    between atoms: N_9  and  C_10 
REMARK    2  A    between atoms: C_10  and  C_11 
REMARK    3  A    between atoms: C_11  and  N_12 
REMARK    4  A    between atoms: N_12  and  C_13 
REMARK    5  A    between atoms: C_13  and  C_14 
REMARK    6  A    between atoms: C_13  and  C_17 
ROOT
HETATM    1  C   UNL     1     -43.575  55.846 -54.639  1.00  0.00     0.372 C 
ENDROOT
BRANCH   1   2
HETATM    2  C   UNL     1     -43.050  55.623 -56.058  1.00  0.00     0.250 C 
HETATM    3  N   UNL     1     -43.758  56.322 -57.009  1.00  0.00    -0.322 N 
HETATM    4  H   UNL     1     -44.644  56.704 -56.688  1.00  0.00     0.169 HD
HETATM    5  O   UNL     1     -42.054  54.929 -56.243  1.00  0.00    -0.271 OA
BRANCH   3   6
HETATM    6  C   UNL     1     -43.446  56.461 -58.351  1.00  0.00     0.085 A 
HETATM    7  C   UNL     1     -42.661  57.497 -58.824  1.00  0.00     0.052 A 
HETATM    8  C   UNL     1     -42.003  58.652 -58.174  1.00  0.00     0.072 C 
HETATM    9  N   UNL     1     -42.580  57.317 -60.175  1.00  0.00    -0.280 N 
HETATM   10  H   UNL     1     -42.100  57.896 -60.855  1.00  0.00     0.189 HD
HETATM   11  N   UNL     1     -43.212  56.228 -60.618  1.00  0.00    -0.177 NA
HETATM   12  C   UNL     1     -43.746  55.683 -59.512  1.00  0.00     0.079 A 
HETATM   13  C   UNL     1     -44.484  54.404 -59.657  1.00  0.00     0.075 C 
ENDBRANCH   3   6
ENDBRANCH   1   2
BRANCH   1  14
HETATM   14  N   UNL     1     -43.324  54.735 -53.716  1.00  0.00     0.101 N 
HETATM   15  H   UNL     1     -44.199  54.562 -53.220  1.00  0.00     0.317 HD
BRANCH  14  16
HETATM   16  C   UNL     1     -42.236  54.843 -52.715  1.00  0.00     0.259 C 
BRANCH  16  17
HETATM   17  C   UNL     1     -40.888  54.061 -52.948  1.00  0.00     0.015 C 
HETATM   18  C   UNL     1     -40.280  53.561 -51.618  1.00  0.00     0.012 C 
HETATM   19  C   UNL     1     -41.044  52.812 -53.832  1.00  0.00     0.012 C 
ENDBRANCH  16  17
BRANCH  16  20
HETATM   20  C   UNL     1     -41.982  56.356 -52.558  1.00  0.00    -0.003 A 
HETATM   21  C   UNL     1     -42.793  57.197 -51.776  1.00  0.00     0.042 A 
HETATM   22 CL   UNL     1     -44.142  56.614 -50.872  1.00  0.00    -0.084 Cl
HETATM   23  C   UNL     1     -42.525  58.570 -51.692  1.00  0.00     0.024 A 
HETATM   24  C   UNL     1     -41.448  59.127 -52.380  1.00  0.00     0.002 A 
HETATM   25  C   UNL     1     -40.631  58.314 -53.156  1.00  0.00     0.001 A 
HETATM   26  C   UNL     1     -40.896  56.946 -53.246  1.00  0.00     0.011 A 
ENDBRANCH  16  20
ENDBRANCH  14  16
ENDBRANCH   1  14
TORSDOF 6
ENDMDL
MODEL 10
REMARK VINA RESULT:      -7.1      3.191      4.712
REMARK  6 active torsions:
REMARK  status: ('A' for Active; 'I' for Inactive)
REMARK    1  A    between atoms: C_8  and  N_9 
REMARK       I    between atoms: N_9  and  C_10 
REMARK    2  A    between atoms: C_10  and  C_11 
REMARK    3  A    between atoms: C_11  and  N_12 
REMARK    4  A    between atoms: N_12  and  C_13 
REMARK    5  A    between atoms: C_13  and  C_14 
REMARK    6  A    between atoms: C_13  and  C_17 
ROOT
HETATM    1  C   UNL     1     -40.724  57.294 -53.362  1.00  0.00     0.372 C 
ENDROOT
BRANCH   1   2
HETATM    2  C   UNL     1     -41.724  58.319 -53.898  1.00  0.00     0.250 C 
HETATM    3  N   UNL     1     -42.991  58.153 -53.385  1.00  0.00    -0.322 N 
HETATM    4  H   UNL     1     -43.147  57.269 -52.909  1.00  0.00     0.169 HD
HETATM    5  O   UNL     1     -41.346  59.209 -54.656  1.00  0.00    -0.271 OA
BRANCH   3   6
HETATM    6  C   UNL     1     -44.076  58.999 -53.544  1.00  0.00     0.085 A 
HETATM    7  C   UNL     1     -44.888  58.956 -54.662  1.00  0.00     0.052 A 
HETATM    8  C   UNL     1     -44.877  58.141 -55.898  1.00  0.00     0.072 C 
HETATM    9  N   UNL     1     -45.830  59.928 -54.477  1.00  0.00    -0.280 N 
HETATM   10  H   UNL     1     -46.581  60.198 -55.103  1.00  0.00     0.189 HD
HETATM   11  N   UNL     1     -45.724  60.573 -53.314  1.00  0.00    -0.177 NA
HETATM   12  C   UNL     1     -44.656  60.013 -52.722  1.00  0.00     0.079 A 
HETATM   13  C   UNL     1     -44.296  60.480 -51.360  1.00  0.00     0.075 C 
ENDBRANCH   3   6
ENDBRANCH   1   2
BRANCH   1  14
HETATM   14  N   UNL     1     -40.696  56.028 -54.098  1.00  0.00     0.101 N 
HETATM   15  H   UNL     1     -40.765  56.261 -55.089  1.00  0.00     0.317 HD
BRANCH  14  16
HETATM   16  C   UNL     1     -41.703  54.982 -53.797  1.00  0.00     0.259 C 
BRANCH  16  17
HETATM   17  C   UNL     1     -42.718  54.537 -54.917  1.00  0.00     0.015 C 
HETATM   18  C   UNL     1     -44.183  54.793 -54.496  1.00  0.00     0.012 C 
HETATM   19  C   UNL     1     -42.531  55.281 -56.251  1.00  0.00     0.012 C 
ENDBRANCH  16  17
BRANCH  16  20
HETATM   20  C   UNL     1     -40.892  53.780 -53.272  1.00  0.00    -0.003 A 
HETATM   21  C   UNL     1     -40.505  53.638 -51.928  1.00  0.00     0.042 A 
HETATM   22 CL   UNL     1     -40.936  54.781 -50.708  1.00  0.00    -0.084 Cl
HETATM   23  C   UNL     1     -39.746  52.535 -51.516  1.00  0.00     0.024 A 
HETATM   24  C   UNL     1     -39.362  51.556 -52.432  1.00  0.00     0.002 A 
HETATM   25  C   UNL     1     -39.735  51.674 -53.765  1.00  0.00     0.001 A 
HETATM   26  C   UNL     1     -40.489  52.774 -54.181  1.00  0.00     0.011 A 
ENDBRANCH  16  20
ENDBRANCH  14  16
ENDBRANCH   1  14
TORSDOF 6
ENDMDL
