MODEL 1
REMARK VINA RESULT:      -8.6      0.000      0.000
REMARK  7 active torsions:
REMARK  status: ('A' for Active; 'I' for Inactive)
REMARK    1  A    between atoms: C_3  and  O_4 
REMARK    2  A    between atoms: C_8  and  C_9 
REMARK    3  A    between atoms: C_9  and  N_10 
REMARK    4  A    between atoms: C_15  and  O_16 
REMARK    5  A    between atoms: C_18  and  N_19 
REMARK       I    between atoms: N_19  and  C_20 
REMARK    6  A    between atoms: C_20  and  C_21 
REMARK    7  A    between atoms: C_21  and  C_22 
ROOT
HETATM    1  N   UNL     1     -41.416  54.657 -53.605  1.00  0.00    -0.067 N 
HETATM    2  H   UNL     1     -41.388  53.854 -54.245  1.00  0.00     0.280 HD
HETATM    3  C   UNL     1     -42.884  54.993 -53.460  1.00  0.00     0.236 C 
HETATM    4  C   UNL     1     -43.074  56.321 -52.736  1.00  0.00     0.045 C 
HETATM    5  C   UNL     1     -42.284  57.485 -53.383  1.00  0.00     0.019 A 
HETATM    6  C   UNL     1     -42.881  57.970 -54.773  1.00  0.00     0.161 A 
HETATM    7  C   UNL     1     -43.188  59.502 -54.655  1.00  0.00     0.148 A 
HETATM    8  C   UNL     1     -42.845  59.834 -53.235  1.00  0.00    -0.026 A 
HETATM    9  C   UNL     1     -42.371  58.731 -52.525  1.00  0.00    -0.038 A 
HETATM   10  C   UNL     1     -42.995  61.072 -52.617  1.00  0.00     0.010 A 
HETATM   11  C   UNL     1     -42.648  61.203 -51.273  1.00  0.00     0.001 A 
HETATM   12  C   UNL     1     -42.162  60.104 -50.560  1.00  0.00     0.001 A 
HETATM   13  C   UNL     1     -42.020  58.863 -51.183  1.00  0.00     0.009 A 
HETATM   14  C   UNL     1     -40.805  57.060 -53.518  1.00  0.00     0.045 C 
HETATM   15  C   UNL     1     -40.652  55.760 -54.292  1.00  0.00     0.236 C 
ENDROOT
BRANCH   6  16
HETATM   16  O   UNL     1     -44.078  57.220 -55.075  1.00  0.00    -0.387 OA
HETATM   17  C   UNL     1     -45.218  58.050 -55.291  1.00  0.00     0.202 C 
ENDBRANCH   6  16
BRANCH   7  18
HETATM   18  N   UNL     1     -42.537  60.393 -55.607  1.00  0.00    -0.350 N 
HETATM   19  C   UNL     1     -43.142  60.947 -56.709  1.00  0.00     0.223 C 
HETATM   20  O   UNL     1     -44.368  60.980 -56.833  1.00  0.00    -0.273 OA
HETATM   21  H   UNL     1     -41.528  60.294 -55.650  1.00  0.00     0.163 HD
BRANCH  19  22
HETATM   22  C   UNL     1     -42.263  61.557 -57.798  1.00  0.00     0.148 C 
BRANCH  22  23
HETATM   23  C   UNL     1     -42.116  60.736 -59.044  1.00  0.00    -0.009 A 
HETATM   24  S   UNL     1     -42.139  59.023 -58.960  1.00  0.00    -0.106 SA
HETATM   25  C   UNL     1     -41.974  58.874 -60.655  1.00  0.00     0.050 A 
HETATM   26  C   UNL     1     -41.919  60.100 -61.277  1.00  0.00     0.008 A 
HETATM   27  C   UNL     1     -42.001  61.176 -60.348  1.00  0.00     0.015 A 
ENDBRANCH  22  23
ENDBRANCH  19  22
ENDBRANCH   7  18
BRANCH   1  28
HETATM   28  C   UNL     1     -40.738  54.165 -52.342  1.00  0.00     0.273 C 
BRANCH  28  29
HETATM   29  C   UNL     1     -40.338  52.715 -52.386  1.00  0.00    -0.031 A 
HETATM   30  C   UNL     1     -40.173  51.983 -51.201  1.00  0.00     0.018 A 
HETATM   31  C   UNL     1     -39.807  50.629 -51.237  1.00  0.00    -0.028 A 
HETATM   32  C   UNL     1     -39.648  49.999 -52.479  1.00  0.00     0.077 A 
HETATM   33  C   UNL     1     -39.678  49.866 -49.948  1.00  0.00     0.051 C 
HETATM   34  C   UNL     1     -39.820  50.704 -53.679  1.00  0.00    -0.028 A 
HETATM   35  C   UNL     1     -39.665  50.047 -55.023  1.00  0.00     0.051 C 
HETATM   36  C   UNL     1     -40.155  52.067 -53.617  1.00  0.00     0.018 A 
BRANCH  32  37
HETATM   37  O   UNL     1     -39.328  48.672 -52.463  1.00  0.00    -0.360 OA
HETATM   38  H   UNL     1     -39.403  48.290 -53.352  1.00  0.00     0.217 HD
ENDBRANCH  32  37
ENDBRANCH  28  29
ENDBRANCH   1  28
TORSDOF 7
ENDMDL
MODEL 2
REMARK VINA RESULT:      -8.4      0.148      1.473
REMARK  7 active torsions:
REMARK  status: ('A' for Active; 'I' for Inactive)
REMARK    1  A    between atoms: C_3  and  O_4 
REMARK    2  A    between atoms: C_8  and  C_9 
REMARK    3  A    between atoms: C_9  and  N_10 
REMARK    4  A    between atoms: C_15  and  O_16 
REMARK    5  A    between atoms: C_18  and  N_19 
REMARK       I    between atoms: N_19  and  C_20 
REMARK    6  A    between atoms: C_20  and  C_21 
REMARK    7  A    between atoms: C_21  and  C_22 
ROOT
HETATM    1  N   UNL     1     -41.388  54.679 -53.641  1.00  0.00    -0.067 N 
HETATM    2  H   UNL     1     -41.354  53.879 -54.284  1.00  0.00     0.280 HD
HETATM    3  C   UNL     1     -42.859  55.000 -53.489  1.00  0.00     0.236 C 
HETATM    4  C   UNL     1     -43.060  56.323 -52.759  1.00  0.00     0.045 C 
HETATM    5  C   UNL     1     -42.284  57.497 -53.403  1.00  0.00     0.019 A 
HETATM    6  C   UNL     1     -42.890  57.983 -54.789  1.00  0.00     0.161 A 
HETATM    7  C   UNL     1     -43.212  59.511 -54.663  1.00  0.00     0.148 A 
HETATM    8  C   UNL     1     -42.867  59.840 -53.243  1.00  0.00    -0.026 A 
HETATM    9  C   UNL     1     -42.380  58.739 -52.540  1.00  0.00    -0.038 A 
HETATM   10  C   UNL     1     -43.028  61.073 -52.619  1.00  0.00     0.010 A 
HETATM   11  C   UNL     1     -42.677  61.202 -51.276  1.00  0.00     0.001 A 
HETATM   12  C   UNL     1     -42.178  60.105 -50.569  1.00  0.00     0.001 A 
HETATM   13  C   UNL     1     -42.027  58.868 -51.198  1.00  0.00     0.009 A 
HETATM   14  C   UNL     1     -40.800  57.088 -53.545  1.00  0.00     0.045 C 
HETATM   15  C   UNL     1     -40.638  55.793 -54.325  1.00  0.00     0.236 C 
ENDROOT
BRANCH   6  16
HETATM   16  O   UNL     1     -44.080  57.222 -55.091  1.00  0.00    -0.387 OA
HETATM   17  C   UNL     1     -45.195  58.043 -55.434  1.00  0.00     0.202 C 
ENDBRANCH   6  16
BRANCH   7  18
HETATM   18  N   UNL     1     -42.572  60.412 -55.613  1.00  0.00    -0.350 N 
HETATM   19  C   UNL     1     -43.227  61.121 -56.591  1.00  0.00     0.223 C 
HETATM   20  O   UNL     1     -44.448  61.288 -56.569  1.00  0.00    -0.273 OA
HETATM   21  H   UNL     1     -41.590  60.216 -55.781  1.00  0.00     0.163 HD
BRANCH  19  22
HETATM   22  C   UNL     1     -42.408  61.733 -57.725  1.00  0.00     0.148 C 
BRANCH  22  23
HETATM   23  C   UNL     1     -42.234  60.867 -58.936  1.00  0.00    -0.009 A 
HETATM   24  S   UNL     1     -42.540  59.181 -58.847  1.00  0.00    -0.106 SA
HETATM   25  C   UNL     1     -42.184  58.964 -60.504  1.00  0.00     0.050 A 
HETATM   26  C   UNL     1     -41.854  60.149 -61.121  1.00  0.00     0.008 A 
HETATM   27  C   UNL     1     -41.884  61.249 -60.216  1.00  0.00     0.015 A 
ENDBRANCH  22  23
ENDBRANCH  19  22
ENDBRANCH   7  18
BRANCH   1  28
HETATM   28  C   UNL     1     -40.701  54.188 -52.382  1.00  0.00     0.273 C 
BRANCH  28  29
HETATM   29  C   UNL     1     -40.363  52.722 -52.400  1.00  0.00    -0.031 A 
HETATM   30  C   UNL     1     -40.134  52.056 -53.613  1.00  0.00     0.018 A 
HETATM   31  C   UNL     1     -39.812  50.692 -53.635  1.00  0.00    -0.028 A 
HETATM   32  C   UNL     1     -39.679  50.003 -52.421  1.00  0.00     0.077 A 
HETATM   33  C   UNL     1     -39.534  50.020 -54.952  1.00  0.00     0.051 C 
HETATM   34  C   UNL     1     -39.889  50.647 -51.194  1.00  0.00    -0.028 A 
HETATM   35  C   UNL     1     -39.742  49.933 -49.879  1.00  0.00     0.051 C 
HETATM   36  C   UNL     1     -40.243  52.007 -51.199  1.00  0.00     0.018 A 
BRANCH  32  37
HETATM   37  O   UNL     1     -39.328  48.685 -52.492  1.00  0.00    -0.360 OA
HETATM   38  H   UNL     1     -38.664  48.470 -51.818  1.00  0.00     0.217 HD
ENDBRANCH  32  37
ENDBRANCH  28  29
ENDBRANCH   1  28
TORSDOF 7
ENDMDL
MODEL 3
REMARK VINA RESULT:      -8.3      3.488      5.347
REMARK  7 active torsions:
REMARK  status: ('A' for Active; 'I' for Inactive)
REMARK    1  A    between atoms: C_3  and  O_4 
REMARK    2  A    between atoms: C_8  and  C_9 
REMARK    3  A    between atoms: C_9  and  N_10 
REMARK    4  A    between atoms: C_15  and  O_16 
REMARK    5  A    between atoms: C_18  and  N_19 
REMARK       I    between atoms: N_19  and  C_20 
REMARK    6  A    between atoms: C_20  and  C_21 
REMARK    7  A    between atoms: C_21  and  C_22 
ROOT
HETATM    1  N   UNL     1     -42.377  55.356 -54.839  1.00  0.00    -0.067 N 
HETATM    2  H   UNL     1     -42.676  54.940 -53.950  1.00  0.00     0.280 HD
HETATM    3  C   UNL     1     -42.503  56.850 -54.636  1.00  0.00     0.236 C 
HETATM    4  C   UNL     1     -42.332  57.600 -55.953  1.00  0.00     0.045 C 
HETATM    5  C   UNL     1     -43.280  57.094 -57.068  1.00  0.00     0.019 A 
HETATM    6  C   UNL     1     -44.801  57.496 -56.849  1.00  0.00     0.161 A 
HETATM    7  C   UNL     1     -45.276  58.285 -58.116  1.00  0.00     0.148 A 
HETATM    8  C   UNL     1     -44.048  58.380 -58.968  1.00  0.00    -0.026 A 
HETATM    9  C   UNL     1     -42.945  57.750 -58.392  1.00  0.00    -0.038 A 
HETATM   10  C   UNL     1     -43.938  59.042 -60.188  1.00  0.00     0.010 A 
HETATM   11  C   UNL     1     -42.707  59.054 -60.842  1.00  0.00     0.001 A 
HETATM   12  C   UNL     1     -41.601  58.414 -60.275  1.00  0.00     0.001 A 
HETATM   13  C   UNL     1     -41.715  57.760 -59.048  1.00  0.00     0.009 A 
HETATM   14  C   UNL     1     -43.111  55.563 -57.201  1.00  0.00     0.045 C 
HETATM   15  C   UNL     1     -43.342  54.847 -55.880  1.00  0.00     0.236 C 
ENDROOT
BRANCH   6  16
HETATM   16  O   UNL     1     -44.922  58.302 -55.656  1.00  0.00    -0.387 OA
HETATM   17  C   UNL     1     -45.392  59.622 -55.920  1.00  0.00     0.202 C 
ENDBRANCH   6  16
BRANCH   7  18
HETATM   18  N   UNL     1     -46.420  57.756 -58.847  1.00  0.00    -0.350 N 
HETATM   19  C   UNL     1     -46.379  56.682 -59.704  1.00  0.00     0.223 C 
HETATM   20  O   UNL     1     -45.438  55.886 -59.709  1.00  0.00    -0.273 OA
HETATM   21  H   UNL     1     -47.165  58.426 -59.003  1.00  0.00     0.163 HD
BRANCH  19  22
HETATM   22  C   UNL     1     -47.548  56.465 -60.662  1.00  0.00     0.148 C 
BRANCH  22  23
HETATM   23  C   UNL     1     -47.858  57.615 -61.572  1.00  0.00    -0.009 A 
HETATM   24  S   UNL     1     -48.742  57.362 -63.020  1.00  0.00    -0.106 SA
HETATM   25  C   UNL     1     -48.704  59.025 -63.411  1.00  0.00     0.050 A 
HETATM   26  C   UNL     1     -48.046  59.765 -62.454  1.00  0.00     0.008 A 
HETATM   27  C   UNL     1     -47.558  58.952 -61.391  1.00  0.00     0.015 A 
ENDBRANCH  22  23
ENDBRANCH  19  22
ENDBRANCH   7  18
BRANCH   1  28
HETATM   28  C   UNL     1     -40.963  54.849 -55.044  1.00  0.00     0.273 C 
BRANCH  28  29
HETATM   29  C   UNL     1     -40.567  53.743 -54.105  1.00  0.00    -0.031 A 
HETATM   30  C   UNL     1     -40.222  52.476 -54.598  1.00  0.00     0.018 A 
HETATM   31  C   UNL     1     -39.846  51.444 -53.727  1.00  0.00    -0.028 A 
HETATM   32  C   UNL     1     -39.776  51.704 -52.351  1.00  0.00     0.077 A 
HETATM   33  C   UNL     1     -39.445  50.109 -54.294  1.00  0.00     0.051 C 
HETATM   34  C   UNL     1     -40.102  52.965 -51.832  1.00  0.00    -0.028 A 
HETATM   35  C   UNL     1     -40.024  53.272 -50.363  1.00  0.00     0.051 C 
HETATM   36  C   UNL     1     -40.507  53.974 -52.722  1.00  0.00     0.018 A 
BRANCH  32  37
HETATM   37  O   UNL     1     -39.368  50.678 -51.546  1.00  0.00    -0.360 OA
HETATM   38  H   UNL     1     -38.910  51.018 -50.762  1.00  0.00     0.217 HD
ENDBRANCH  32  37
ENDBRANCH  28  29
ENDBRANCH   1  28
TORSDOF 7
ENDMDL
MODEL 4
REMARK VINA RESULT:      -8.2      4.304      9.766
REMARK  7 active torsions:
REMARK  status: ('A' for Active; 'I' for Inactive)
REMARK    1  A    between atoms: C_3  and  O_4 
REMARK    2  A    between atoms: C_8  and  C_9 
REMARK    3  A    between atoms: C_9  and  N_10 
REMARK    4  A    between atoms: C_15  and  O_16 
REMARK    5  A    between atoms: C_18  and  N_19 
REMARK       I    between atoms: N_19  and  C_20 
REMARK    6  A    between atoms: C_20  and  C_21 
REMARK    7  A    between atoms: C_21  and  C_22 
ROOT
HETATM    1  N   UNL     1     -44.091  60.683 -49.741  1.00  0.00    -0.067 N 
HETATM    2  H   UNL     1     -43.811  60.629 -48.754  1.00  0.00     0.280 HD
HETATM    3  C   UNL     1     -45.171  59.634 -49.900  1.00  0.00     0.236 C 
HETATM    4  C   UNL     1     -45.515  59.420 -51.370  1.00  0.00     0.045 C 
HETATM    5  C   UNL     1     -44.276  59.101 -52.244  1.00  0.00     0.019 A 
HETATM    6  C   UNL     1     -43.678  57.649 -52.002  1.00  0.00     0.161 A 
HETATM    7  C   UNL     1     -43.660  56.903 -53.380  1.00  0.00     0.148 A 
HETATM    8  C   UNL     1     -44.291  57.874 -54.329  1.00  0.00    -0.026 A 
HETATM    9  C   UNL     1     -44.652  59.071 -53.711  1.00  0.00    -0.038 A 
HETATM   10  C   UNL     1     -44.555  57.658 -55.678  1.00  0.00     0.010 A 
HETATM   11  C   UNL     1     -45.174  58.665 -56.417  1.00  0.00     0.001 A 
HETATM   12  C   UNL     1     -45.528  59.871 -55.805  1.00  0.00     0.001 A 
HETATM   13  C   UNL     1     -45.268  60.080 -54.450  1.00  0.00     0.009 A 
HETATM   14  C   UNL     1     -43.214  60.198 -52.011  1.00  0.00     0.045 C 
HETATM   15  C   UNL     1     -42.858  60.346 -50.540  1.00  0.00     0.236 C 
ENDROOT
BRANCH   6  16
HETATM   16  O   UNL     1     -44.490  56.944 -51.038  1.00  0.00    -0.387 OA
HETATM   17  C   UNL     1     -43.977  55.653 -50.713  1.00  0.00     0.202 C 
ENDBRANCH   6  16
BRANCH   7  18
HETATM   18  N   UNL     1     -42.375  56.411 -53.861  1.00  0.00    -0.350 N 
HETATM   19  C   UNL     1     -42.108  55.108 -54.203  1.00  0.00     0.223 C 
HETATM   20  O   UNL     1     -43.006  54.291 -54.416  1.00  0.00    -0.273 OA
HETATM   21  H   UNL     1     -41.579  56.974 -53.579  1.00  0.00     0.163 HD
BRANCH  19  22
HETATM   22  C   UNL     1     -40.651  54.671 -54.342  1.00  0.00     0.148 C 
BRANCH  22  23
HETATM   23  C   UNL     1     -40.306  53.363 -53.695  1.00  0.00    -0.009 A 
HETATM   24  S   UNL     1     -40.174  53.247 -51.989  1.00  0.00    -0.106 SA
HETATM   25  C   UNL     1     -39.831  51.575 -52.064  1.00  0.00     0.050 A 
HETATM   26  C   UNL     1     -39.831  51.106 -53.358  1.00  0.00     0.008 A 
HETATM   27  C   UNL     1     -40.106  52.138 -54.301  1.00  0.00     0.015 A 
ENDBRANCH  22  23
ENDBRANCH  19  22
ENDBRANCH   7  18
BRANCH   1  28
HETATM   28  C   UNL     1     -44.548  62.115 -49.933  1.00  0.00     0.273 C 
BRANCH  28  29
HETATM   29  C   UNL     1     -45.551  62.580 -48.913  1.00  0.00    -0.031 A 
HETATM   30  C   UNL     1     -45.205  62.667 -47.556  1.00  0.00     0.018 A 
HETATM   31  C   UNL     1     -46.134  63.107 -46.603  1.00  0.00    -0.028 A 
HETATM   32  C   UNL     1     -47.410  63.502 -47.027  1.00  0.00     0.077 A 
HETATM   33  C   UNL     1     -45.714  63.225 -45.163  1.00  0.00     0.051 C 
HETATM   34  C   UNL     1     -47.780  63.438 -48.378  1.00  0.00    -0.028 A 
HETATM   35  C   UNL     1     -49.139  63.866 -48.858  1.00  0.00     0.051 C 
HETATM   36  C   UNL     1     -46.842  62.963 -49.310  1.00  0.00     0.018 A 
BRANCH  32  37
HETATM   37  O   UNL     1     -48.268  63.957 -46.067  1.00  0.00    -0.360 OA
HETATM   38  H   UNL     1     -48.776  63.224 -45.684  1.00  0.00     0.217 HD
ENDBRANCH  32  37
ENDBRANCH  28  29
ENDBRANCH   1  28
TORSDOF 7
ENDMDL
MODEL 5
REMARK VINA RESULT:      -8.1      3.601      6.521
REMARK  7 active torsions:
REMARK  status: ('A' for Active; 'I' for Inactive)
REMARK    1  A    between atoms: C_3  and  O_4 
REMARK    2  A    between atoms: C_8  and  C_9 
REMARK    3  A    between atoms: C_9  and  N_10 
REMARK    4  A    between atoms: C_15  and  O_16 
REMARK    5  A    between atoms: C_18  and  N_19 
REMARK       I    between atoms: N_19  and  C_20 
REMARK    6  A    between atoms: C_20  and  C_21 
REMARK    7  A    between atoms: C_21  and  C_22 
ROOT
HETATM    1  N   UNL     1     -41.272  55.612 -52.314  1.00  0.00    -0.067 N 
HETATM    2  H   UNL     1     -40.661  55.204 -51.597  1.00  0.00     0.280 HD
HETATM    3  C   UNL     1     -40.580  56.888 -52.740  1.00  0.00     0.236 C 
HETATM    4  C   UNL     1     -41.489  57.737 -53.623  1.00  0.00     0.045 C 
HETATM    5  C   UNL     1     -42.868  58.024 -52.979  1.00  0.00     0.019 A 
HETATM    6  C   UNL     1     -42.809  59.052 -51.769  1.00  0.00     0.161 A 
HETATM    7  C   UNL     1     -43.779  60.237 -52.101  1.00  0.00     0.148 A 
HETATM    8  C   UNL     1     -44.295  59.914 -53.469  1.00  0.00    -0.026 A 
HETATM    9  C   UNL     1     -43.784  58.716 -53.967  1.00  0.00    -0.038 A 
HETATM   10  C   UNL     1     -45.157  60.697 -54.232  1.00  0.00     0.010 A 
HETATM   11  C   UNL     1     -45.522  60.257 -55.504  1.00  0.00     0.001 A 
HETATM   12  C   UNL     1     -45.021  59.052 -56.003  1.00  0.00     0.001 A 
HETATM   13  C   UNL     1     -44.151  58.276 -55.237  1.00  0.00     0.009 A 
HETATM   14  C   UNL     1     -43.500  56.680 -52.552  1.00  0.00     0.045 C 
HETATM   15  C   UNL     1     -42.587  55.887 -51.629  1.00  0.00     0.236 C 
ENDROOT
BRANCH   6  16
HETATM   16  O   UNL     1     -41.454  59.520 -51.596  1.00  0.00    -0.387 OA
HETATM   17  C   UNL     1     -41.056  59.583 -50.228  1.00  0.00     0.202 C 
ENDBRANCH   6  16
BRANCH   7  18
HETATM   18  N   UNL     1     -44.852  60.511 -51.153  1.00  0.00    -0.350 N 
HETATM   19  C   UNL     1     -44.695  61.159 -49.951  1.00  0.00     0.223 C 
HETATM   20  O   UNL     1     -43.691  61.828 -49.695  1.00  0.00    -0.273 OA
HETATM   21  H   UNL     1     -45.645  59.883 -51.224  1.00  0.00     0.163 HD
BRANCH  19  22
HETATM   22  C   UNL     1     -45.812  61.060 -48.915  1.00  0.00     0.148 C 
BRANCH  22  23
HETATM   23  C   UNL     1     -45.479  61.598 -47.555  1.00  0.00    -0.009 A 
HETATM   24  S   UNL     1     -45.816  63.234 -47.163  1.00  0.00    -0.106 SA
HETATM   25  C   UNL     1     -45.231  63.040 -45.569  1.00  0.00     0.050 A 
HETATM   26  C   UNL     1     -44.802  61.754 -45.330  1.00  0.00     0.008 A 
HETATM   27  C   UNL     1     -44.946  60.920 -46.476  1.00  0.00     0.015 A 
ENDBRANCH  22  23
ENDBRANCH  19  22
ENDBRANCH   7  18
BRANCH   1  28
HETATM   28  C   UNL     1     -41.374  54.544 -53.385  1.00  0.00     0.273 C 
BRANCH  28  29
HETATM   29  C   UNL     1     -40.809  53.212 -52.977  1.00  0.00    -0.031 A 
HETATM   30  C   UNL     1     -40.741  52.847 -51.624  1.00  0.00     0.018 A 
HETATM   31  C   UNL     1     -40.221  51.603 -51.239  1.00  0.00    -0.028 A 
HETATM   32  C   UNL     1     -39.805  50.702 -52.230  1.00  0.00     0.077 A 
HETATM   33  C   UNL     1     -40.200  51.231 -49.782  1.00  0.00     0.051 C 
HETATM   34  C   UNL     1     -39.874  51.035 -53.590  1.00  0.00    -0.028 A 
HETATM   35  C   UNL     1     -39.444  50.082 -54.671  1.00  0.00     0.051 C 
HETATM   36  C   UNL     1     -40.368  52.300 -53.948  1.00  0.00     0.018 A 
BRANCH  32  37
HETATM   37  O   UNL     1     -39.340  49.489 -51.808  1.00  0.00    -0.360 OA
HETATM   38  H   UNL     1     -38.858  49.578 -50.971  1.00  0.00     0.217 HD
ENDBRANCH  32  37
ENDBRANCH  28  29
ENDBRANCH   1  28
TORSDOF 7
ENDMDL
MODEL 6
REMARK VINA RESULT:      -8.0      3.553      5.573
REMARK  7 active torsions:
REMARK  status: ('A' for Active; 'I' for Inactive)
REMARK    1  A    between atoms: C_3  and  O_4 
REMARK    2  A    between atoms: C_8  and  C_9 
REMARK    3  A    between atoms: C_9  and  N_10 
REMARK    4  A    between atoms: C_15  and  O_16 
REMARK    5  A    between atoms: C_18  and  N_19 
REMARK       I    between atoms: N_19  and  C_20 
REMARK    6  A    between atoms: C_20  and  C_21 
REMARK    7  A    between atoms: C_21  and  C_22 
ROOT
HETATM    1  N   UNL     1     -42.282  56.229 -53.637  1.00  0.00    -0.067 N 
HETATM    2  H   UNL     1     -41.785  56.076 -52.752  1.00  0.00     0.280 HD
HETATM    3  C   UNL     1     -41.612  57.435 -54.260  1.00  0.00     0.236 C 
HETATM    4  C   UNL     1     -42.400  57.940 -55.464  1.00  0.00     0.045 C 
HETATM    5  C   UNL     1     -43.889  58.218 -55.142  1.00  0.00     0.019 A 
HETATM    6  C   UNL     1     -44.122  59.506 -54.243  1.00  0.00     0.161 A 
HETATM    7  C   UNL     1     -45.093  60.462 -55.016  1.00  0.00     0.148 A 
HETATM    8  C   UNL     1     -45.329  59.764 -56.320  1.00  0.00    -0.026 A 
HETATM    9  C   UNL     1     -44.656  58.546 -56.407  1.00  0.00    -0.038 A 
HETATM   10  C   UNL     1     -46.089  60.239 -57.386  1.00  0.00     0.010 A 
HETATM   11  C   UNL     1     -46.185  59.470 -58.544  1.00  0.00     0.001 A 
HETATM   12  C   UNL     1     -45.522  58.243 -58.632  1.00  0.00     0.001 A 
HETATM   13  C   UNL     1     -44.755  57.775 -57.564  1.00  0.00     0.009 A 
HETATM   14  C   UNL     1     -44.496  56.954 -54.492  1.00  0.00     0.045 C 
HETATM   15  C   UNL     1     -43.715  56.513 -53.264  1.00  0.00     0.236 C 
ENDROOT
BRANCH   6  16
HETATM   16  O   UNL     1     -42.856  60.150 -53.982  1.00  0.00    -0.387 OA
HETATM   17  C   UNL     1     -42.770  60.702 -52.669  1.00  0.00     0.202 C 
ENDBRANCH   6  16
BRANCH   7  18
HETATM   18  N   UNL     1     -46.336  60.835 -54.353  1.00  0.00    -0.350 N 
HETATM   19  C   UNL     1     -46.473  61.869 -53.459  1.00  0.00     0.223 C 
HETATM   20  O   UNL     1     -45.627  62.761 -53.357  1.00  0.00    -0.273 OA
HETATM   21  H   UNL     1     -47.013  60.083 -54.277  1.00  0.00     0.163 HD
BRANCH  19  22
HETATM   22  C   UNL     1     -47.723  61.920 -52.583  1.00  0.00     0.148 C 
BRANCH  22  23
HETATM   23  C   UNL     1     -48.978  62.358 -53.277  1.00  0.00    -0.009 A 
HETATM   24  S   UNL     1     -48.914  63.528 -54.530  1.00  0.00    -0.106 SA
HETATM   25  C   UNL     1     -50.601  63.437 -54.790  1.00  0.00     0.050 A 
HETATM   26  C   UNL     1     -51.203  62.523 -53.954  1.00  0.00     0.008 A 
HETATM   27  C   UNL     1     -50.266  61.899 -53.081  1.00  0.00     0.015 A 
ENDBRANCH  22  23
ENDBRANCH  19  22
ENDBRANCH   7  18
BRANCH   1  28
HETATM   28  C   UNL     1     -42.115  54.931 -54.401  1.00  0.00     0.273 C 
BRANCH  28  29
HETATM   29  C   UNL     1     -41.323  53.885 -53.665  1.00  0.00    -0.031 A 
HETATM   30  C   UNL     1     -40.998  54.054 -52.311  1.00  0.00     0.018 A 
HETATM   31  C   UNL     1     -40.266  53.079 -51.620  1.00  0.00    -0.028 A 
HETATM   32  C   UNL     1     -39.895  51.904 -52.288  1.00  0.00     0.077 A 
HETATM   33  C   UNL     1     -39.970  53.277 -50.158  1.00  0.00     0.051 C 
HETATM   34  C   UNL     1     -40.218  51.702 -53.638  1.00  0.00    -0.028 A 
HETATM   35  C   UNL     1     -39.840  50.446 -54.373  1.00  0.00     0.051 C 
HETATM   36  C   UNL     1     -40.924  52.708 -54.318  1.00  0.00     0.018 A 
BRANCH  32  37
HETATM   37  O   UNL     1     -39.215  50.967 -51.563  1.00  0.00    -0.360 OA
HETATM   38  H   UNL     1     -38.286  51.224 -51.455  1.00  0.00     0.217 HD
ENDBRANCH  32  37
ENDBRANCH  28  29
ENDBRANCH   1  28
TORSDOF 7
ENDMDL
MODEL 7
REMARK VINA RESULT:      -8.0      3.690      9.536
REMARK  7 active torsions:
REMARK  status: ('A' for Active; 'I' for Inactive)
REMARK    1  A    between atoms: C_3  and  O_4 
REMARK    2  A    between atoms: C_8  and  C_9 
REMARK    3  A    between atoms: C_9  and  N_10 
REMARK    4  A    between atoms: C_15  and  O_16 
REMARK    5  A    between atoms: C_18  and  N_19 
REMARK       I    between atoms: N_19  and  C_20 
REMARK    6  A    between atoms: C_20  and  C_21 
REMARK    7  A    between atoms: C_21  and  C_22 
ROOT
HETATM    1  N   UNL     1     -43.257  59.259 -50.593  1.00  0.00    -0.067 N 
HETATM    2  H   UNL     1     -43.177  59.197 -49.571  1.00  0.00     0.280 HD
HETATM    3  C   UNL     1     -44.419  58.359 -50.952  1.00  0.00     0.236 C 
HETATM    4  C   UNL     1     -44.506  58.152 -52.460  1.00  0.00     0.045 C 
HETATM    5  C   UNL     1     -43.180  57.647 -53.082  1.00  0.00     0.019 A 
HETATM    6  C   UNL     1     -42.840  56.136 -52.729  1.00  0.00     0.161 A 
HETATM    7  C   UNL     1     -42.665  55.356 -54.076  1.00  0.00     0.148 A 
HETATM    8  C   UNL     1     -42.968  56.376 -55.130  1.00  0.00    -0.026 A 
HETATM    9  C   UNL     1     -43.274  57.627 -54.595  1.00  0.00    -0.038 A 
HETATM   10  C   UNL     1     -43.001  56.159 -56.504  1.00  0.00     0.010 A 
HETATM   11  C   UNL     1     -43.327  57.219 -57.349  1.00  0.00     0.001 A 
HETATM   12  C   UNL     1     -43.623  58.478 -56.818  1.00  0.00     0.001 A 
HETATM   13  C   UNL     1     -43.597  58.687 -55.439  1.00  0.00     0.009 A 
HETATM   14  C   UNL     1     -42.042  58.600 -52.654  1.00  0.00     0.045 C 
HETATM   15  C   UNL     1     -41.953  58.740 -51.143  1.00  0.00     0.236 C 
ENDROOT
BRANCH   6  16
HETATM   16  O   UNL     1     -43.907  55.572 -51.935  1.00  0.00    -0.387 OA
HETATM   17  C   UNL     1     -43.566  54.315 -51.353  1.00  0.00     0.202 C 
ENDBRANCH   6  16
BRANCH   7  18
HETATM   18  N   UNL     1     -41.391  54.686 -54.303  1.00  0.00    -0.350 N 
HETATM   19  C   UNL     1     -41.225  53.326 -54.419  1.00  0.00     0.223 C 
HETATM   20  O   UNL     1     -42.174  52.569 -54.637  1.00  0.00    -0.273 OA
HETATM   21  H   UNL     1     -40.580  55.213 -53.996  1.00  0.00     0.163 HD
BRANCH  19  22
HETATM   22  C   UNL     1     -39.818  52.747 -54.295  1.00  0.00     0.148 C 
BRANCH  22  23
HETATM   23  C   UNL     1     -39.687  51.561 -53.386  1.00  0.00    -0.009 A 
HETATM   24  S   UNL     1     -39.644  51.774 -51.684  1.00  0.00    -0.106 SA
HETATM   25  C   UNL     1     -39.537  50.090 -51.412  1.00  0.00     0.050 A 
HETATM   26  C   UNL     1     -39.549  49.376 -52.589  1.00  0.00     0.008 A 
HETATM   27  C   UNL     1     -39.637  50.224 -53.729  1.00  0.00     0.015 A 
ENDBRANCH  22  23
ENDBRANCH  19  22
ENDBRANCH   7  18
BRANCH   1  28
HETATM   28  C   UNL     1     -43.471  60.734 -50.871  1.00  0.00     0.273 C 
BRANCH  28  29
HETATM   29  C   UNL     1     -44.525  61.373 -50.009  1.00  0.00    -0.031 A 
HETATM   30  C   UNL     1     -45.593  62.075 -50.587  1.00  0.00     0.018 A 
HETATM   31  C   UNL     1     -46.581  62.667 -49.788  1.00  0.00    -0.028 A 
HETATM   32  C   UNL     1     -46.515  62.514 -48.396  1.00  0.00     0.077 A 
HETATM   33  C   UNL     1     -47.733  63.378 -50.445  1.00  0.00     0.051 C 
HETATM   34  C   UNL     1     -45.466  61.806 -47.792  1.00  0.00    -0.028 A 
HETATM   35  C   UNL     1     -45.378  61.619 -46.303  1.00  0.00     0.051 C 
HETATM   36  C   UNL     1     -44.470  61.250 -48.613  1.00  0.00     0.018 A 
BRANCH  32  37
HETATM   37  O   UNL     1     -47.520  63.077 -47.662  1.00  0.00    -0.360 OA
HETATM   38  H   UNL     1     -47.366  64.027 -47.541  1.00  0.00     0.217 HD
ENDBRANCH  32  37
ENDBRANCH  28  29
ENDBRANCH   1  28
TORSDOF 7
ENDMDL
MODEL 8
REMARK VINA RESULT:      -8.0      2.595      4.783
REMARK  7 active torsions:
REMARK  status: ('A' for Active; 'I' for Inactive)
REMARK    1  A    between atoms: C_3  and  O_4 
REMARK    2  A    between atoms: C_8  and  C_9 
REMARK    3  A    between atoms: C_9  and  N_10 
REMARK    4  A    between atoms: C_15  and  O_16 
REMARK    5  A    between atoms: C_18  and  N_19 
REMARK       I    between atoms: N_19  and  C_20 
REMARK    6  A    between atoms: C_20  and  C_21 
REMARK    7  A    between atoms: C_21  and  C_22 
ROOT
HETATM    1  N   UNL     1     -43.161  56.227 -53.212  1.00  0.00    -0.067 N 
HETATM    2  H   UNL     1     -43.173  56.465 -52.213  1.00  0.00     0.280 HD
HETATM    3  C   UNL     1     -41.803  56.674 -53.707  1.00  0.00     0.236 C 
HETATM    4  C   UNL     1     -41.726  56.615 -55.229  1.00  0.00     0.045 C 
HETATM    5  C   UNL     1     -42.871  57.391 -55.926  1.00  0.00     0.019 A 
HETATM    6  C   UNL     1     -42.735  58.970 -55.816  1.00  0.00     0.161 A 
HETATM    7  C   UNL     1     -42.733  59.553 -57.271  1.00  0.00     0.148 A 
HETATM    8  C   UNL     1     -42.791  58.341 -58.149  1.00  0.00    -0.026 A 
HETATM    9  C   UNL     1     -42.843  57.152 -57.422  1.00  0.00    -0.038 A 
HETATM   10  C   UNL     1     -42.757  58.327 -59.541  1.00  0.00     0.010 A 
HETATM   11  C   UNL     1     -42.796  57.103 -60.206  1.00  0.00     0.001 A 
HETATM   12  C   UNL     1     -42.860  55.909 -59.482  1.00  0.00     0.001 A 
HETATM   13  C   UNL     1     -42.884  55.929 -58.087  1.00  0.00     0.009 A 
HETATM   14  C   UNL     1     -44.219  56.897 -55.355  1.00  0.00     0.045 C 
HETATM   15  C   UNL     1     -44.278  57.021 -53.841  1.00  0.00     0.236 C 
ENDROOT
BRANCH   6  16
HETATM   16  O   UNL     1     -41.515  59.305 -55.119  1.00  0.00    -0.387 OA
HETATM   17  C   UNL     1     -41.735  60.117 -53.968  1.00  0.00     0.202 C 
ENDBRANCH   6  16
BRANCH   7  18
HETATM   18  N   UNL     1     -43.762  60.530 -57.604  1.00  0.00    -0.350 N 
HETATM   19  C   UNL     1     -43.639  61.889 -57.445  1.00  0.00     0.223 C 
HETATM   20  O   UNL     1     -42.544  62.432 -57.284  1.00  0.00    -0.273 OA
HETATM   21  H   UNL     1     -44.707  60.160 -57.601  1.00  0.00     0.163 HD
BRANCH  19  22
HETATM   22  C   UNL     1     -44.900  62.749 -57.492  1.00  0.00     0.148 C 
BRANCH  22  23
HETATM   23  C   UNL     1     -45.840  62.579 -56.336  1.00  0.00    -0.009 A 
HETATM   24  S   UNL     1     -45.236  62.190 -54.778  1.00  0.00    -0.106 SA
HETATM   25  C   UNL     1     -46.801  62.218 -54.093  1.00  0.00     0.050 A 
HETATM   26  C   UNL     1     -47.765  62.533 -55.024  1.00  0.00     0.008 A 
HETATM   27  C   UNL     1     -47.211  62.741 -56.319  1.00  0.00     0.015 A 
ENDBRANCH  22  23
ENDBRANCH  19  22
ENDBRANCH   7  18
BRANCH   1  28
HETATM   28  C   UNL     1     -43.402  54.731 -53.253  1.00  0.00     0.273 C 
BRANCH  28  29
HETATM   29  C   UNL     1     -42.222  53.907 -52.819  1.00  0.00    -0.031 A 
HETATM   30  C   UNL     1     -41.766  53.954 -51.493  1.00  0.00     0.018 A 
HETATM   31  C   UNL     1     -40.670  53.183 -51.081  1.00  0.00    -0.028 A 
HETATM   32  C   UNL     1     -40.054  52.326 -52.004  1.00  0.00     0.077 A 
HETATM   33  C   UNL     1     -40.235  53.228 -49.642  1.00  0.00     0.051 C 
HETATM   34  C   UNL     1     -40.497  52.250 -53.332  1.00  0.00    -0.028 A 
HETATM   35  C   UNL     1     -39.860  51.331 -54.338  1.00  0.00     0.051 C 
HETATM   36  C   UNL     1     -41.576  53.056 -53.729  1.00  0.00     0.018 A 
BRANCH  32  37
HETATM   37  O   UNL     1     -39.014  51.568 -51.547  1.00  0.00    -0.360 OA
HETATM   38  H   UNL     1     -38.346  52.124 -51.116  1.00  0.00     0.217 HD
ENDBRANCH  32  37
ENDBRANCH  28  29
ENDBRANCH   1  28
TORSDOF 7
ENDMDL
MODEL 9
REMARK VINA RESULT:      -8.0      3.230      5.738
REMARK  7 active torsions:
REMARK  status: ('A' for Active; 'I' for Inactive)
REMARK    1  A    between atoms: C_3  and  O_4 
REMARK    2  A    between atoms: C_8  and  C_9 
REMARK    3  A    between atoms: C_9  and  N_10 
REMARK    4  A    between atoms: C_15  and  O_16 
REMARK    5  A    between atoms: C_18  and  N_19 
REMARK       I    between atoms: N_19  and  C_20 
REMARK    6  A    between atoms: C_20  and  C_21 
REMARK    7  A    between atoms: C_21  and  C_22 
ROOT
HETATM    1  N   UNL     1     -42.008  55.931 -53.385  1.00  0.00    -0.067 N 
HETATM    2  H   UNL     1     -41.530  55.733 -52.498  1.00  0.00     0.280 HD
HETATM    3  C   UNL     1     -41.346  57.182 -53.919  1.00  0.00     0.236 C 
HETATM    4  C   UNL     1     -42.114  57.744 -55.111  1.00  0.00     0.045 C 
HETATM    5  C   UNL     1     -43.615  57.977 -54.810  1.00  0.00     0.019 A 
HETATM    6  C   UNL     1     -43.892  59.207 -53.843  1.00  0.00     0.161 A 
HETATM    7  C   UNL     1     -44.862  60.190 -54.583  1.00  0.00     0.148 A 
HETATM    8  C   UNL     1     -45.055  59.567 -55.931  1.00  0.00    -0.026 A 
HETATM    9  C   UNL     1     -44.358  58.367 -56.073  1.00  0.00    -0.038 A 
HETATM   10  C   UNL     1     -45.797  60.091 -56.985  1.00  0.00     0.010 A 
HETATM   11  C   UNL     1     -45.853  59.390 -58.188  1.00  0.00     0.001 A 
HETATM   12  C   UNL     1     -45.165  58.181 -58.331  1.00  0.00     0.001 A 
HETATM   13  C   UNL     1     -44.415  57.664 -57.274  1.00  0.00     0.009 A 
HETATM   14  C   UNL     1     -44.215  56.668 -54.250  1.00  0.00     0.045 C 
HETATM   15  C   UNL     1     -43.455  56.168 -53.031  1.00  0.00     0.236 C 
ENDROOT
BRANCH   6  16
HETATM   16  O   UNL     1     -42.644  59.855 -53.514  1.00  0.00    -0.387 OA
HETATM   17  C   UNL     1     -42.710  61.276 -53.613  1.00  0.00     0.202 C 
ENDBRANCH   6  16
BRANCH   7  18
HETATM   18  N   UNL     1     -46.127  60.503 -53.930  1.00  0.00    -0.350 N 
HETATM   19  C   UNL     1     -46.554  61.768 -53.604  1.00  0.00     0.223 C 
HETATM   20  O   UNL     1     -46.043  62.776 -54.095  1.00  0.00    -0.273 OA
HETATM   21  H   UNL     1     -46.515  59.742 -53.382  1.00  0.00     0.163 HD
BRANCH  19  22
HETATM   22  C   UNL     1     -47.710  61.919 -52.617  1.00  0.00     0.148 C 
BRANCH  22  23
HETATM   23  C   UNL     1     -47.378  62.632 -51.340  1.00  0.00    -0.009 A 
HETATM   24  S   UNL     1     -48.231  64.052 -50.893  1.00  0.00    -0.106 SA
HETATM   25  C   UNL     1     -47.356  64.195 -49.433  1.00  0.00     0.050 A 
HETATM   26  C   UNL     1     -46.443  63.176 -49.276  1.00  0.00     0.008 A 
HETATM   27  C   UNL     1     -46.456  62.273 -50.377  1.00  0.00     0.015 A 
ENDBRANCH  22  23
ENDBRANCH  19  22
ENDBRANCH   7  18
BRANCH   1  28
HETATM   28  C   UNL     1     -41.800  54.683 -54.219  1.00  0.00     0.273 C 
BRANCH  28  29
HETATM   29  C   UNL     1     -41.100  53.569 -53.491  1.00  0.00    -0.031 A 
HETATM   30  C   UNL     1     -40.967  53.599 -52.095  1.00  0.00     0.018 A 
HETATM   31  C   UNL     1     -40.321  52.560 -51.411  1.00  0.00    -0.028 A 
HETATM   32  C   UNL     1     -39.842  51.460 -52.137  1.00  0.00     0.077 A 
HETATM   33  C   UNL     1     -40.232  52.608 -49.910  1.00  0.00     0.051 C 
HETATM   34  C   UNL     1     -39.972  51.397 -53.531  1.00  0.00    -0.028 A 
HETATM   35  C   UNL     1     -39.476  50.224 -54.330  1.00  0.00     0.051 C 
HETATM   36  C   UNL     1     -40.595  52.466 -54.197  1.00  0.00     0.018 A 
BRANCH  32  37
HETATM   37  O   UNL     1     -39.253  50.456 -51.423  1.00  0.00    -0.360 OA
HETATM   38  H   UNL     1     -38.286  50.518 -51.475  1.00  0.00     0.217 HD
ENDBRANCH  32  37
ENDBRANCH  28  29
ENDBRANCH   1  28
TORSDOF 7
ENDMDL
MODEL 10
REMARK VINA RESULT:      -8.0      2.822      4.684
REMARK  7 active torsions:
REMARK  status: ('A' for Active; 'I' for Inactive)
REMARK    1  A    between atoms: C_3  and  O_4 
REMARK    2  A    between atoms: C_8  and  C_9 
REMARK    3  A    between atoms: C_9  and  N_10 
REMARK    4  A    between atoms: C_15  and  O_16 
REMARK    5  A    between atoms: C_18  and  N_19 
REMARK       I    between atoms: N_19  and  C_20 
REMARK    6  A    between atoms: C_20  and  C_21 
REMARK    7  A    between atoms: C_21  and  C_22 
ROOT
HETATM    1  N   UNL     1     -43.275  56.307 -53.106  1.00  0.00    -0.067 N 
HETATM    2  H   UNL     1     -43.307  56.559 -52.111  1.00  0.00     0.280 HD
HETATM    3  C   UNL     1     -41.902  56.736 -53.576  1.00  0.00     0.236 C 
HETATM    4  C   UNL     1     -41.792  56.655 -55.095  1.00  0.00     0.045 C 
HETATM    5  C   UNL     1     -42.913  57.431 -55.828  1.00  0.00     0.019 A 
HETATM    6  C   UNL     1     -42.765  59.010 -55.738  1.00  0.00     0.161 A 
HETATM    7  C   UNL     1     -42.725  59.573 -57.199  1.00  0.00     0.148 A 
HETATM    8  C   UNL     1     -42.775  58.350 -58.062  1.00  0.00    -0.026 A 
HETATM    9  C   UNL     1     -42.855  57.172 -57.320  1.00  0.00    -0.038 A 
HETATM   10  C   UNL     1     -42.711  58.316 -59.452  1.00  0.00     0.010 A 
HETATM   11  C   UNL     1     -42.746  57.083 -60.101  1.00  0.00     0.001 A 
HETATM   12  C   UNL     1     -42.837  55.900 -59.363  1.00  0.00     0.001 A 
HETATM   13  C   UNL     1     -42.893  55.939 -57.969  1.00  0.00     0.009 A 
HETATM   14  C   UNL     1     -44.278  56.957 -55.281  1.00  0.00     0.045 C 
HETATM   15  C   UNL     1     -44.370  57.104 -53.770  1.00  0.00     0.236 C 
ENDROOT
BRANCH   6  16
HETATM   16  O   UNL     1     -41.557  59.343 -55.018  1.00  0.00    -0.387 OA
HETATM   17  C   UNL     1     -41.799  60.142 -53.861  1.00  0.00     0.202 C 
ENDBRANCH   6  16
BRANCH   7  18
HETATM   18  N   UNL     1     -43.737  60.555 -57.569  1.00  0.00    -0.350 N 
HETATM   19  C   UNL     1     -45.093  60.371 -57.448  1.00  0.00     0.223 C 
HETATM   20  O   UNL     1     -45.572  59.479 -56.746  1.00  0.00    -0.273 OA
HETATM   21  H   UNL     1     -43.434  61.226 -58.266  1.00  0.00     0.163 HD
BRANCH  19  22
HETATM   22  C   UNL     1     -46.029  61.319 -58.195  1.00  0.00     0.148 C 
BRANCH  22  23
HETATM   23  C   UNL     1     -46.847  60.692 -59.284  1.00  0.00    -0.009 A 
HETATM   24  S   UNL     1     -46.147  59.531 -60.336  1.00  0.00    -0.106 SA
HETATM   25  C   UNL     1     -47.620  59.306 -61.173  1.00  0.00     0.050 A 
HETATM   26  C   UNL     1     -48.631  60.084 -60.656  1.00  0.00     0.008 A 
HETATM   27  C   UNL     1     -48.186  60.885 -59.565  1.00  0.00     0.015 A 
ENDBRANCH  22  23
ENDBRANCH  19  22
ENDBRANCH   7  18
BRANCH   1  28
HETATM   28  C   UNL     1     -43.530  54.814 -53.132  1.00  0.00     0.273 C 
BRANCH  28  29
HETATM   29  C   UNL     1     -42.339  53.982 -52.744  1.00  0.00    -0.031 A 
HETATM   30  C   UNL     1     -41.676  53.193 -53.696  1.00  0.00     0.018 A 
HETATM   31  C   UNL     1     -40.560  52.421 -53.341  1.00  0.00    -0.028 A 
HETATM   32  C   UNL     1     -40.084  52.478 -52.024  1.00  0.00     0.077 A 
HETATM   33  C   UNL     1     -39.852  51.619 -54.398  1.00  0.00     0.051 C 
HETATM   34  C   UNL     1     -40.719  53.268 -51.055  1.00  0.00    -0.028 A 
HETATM   35  C   UNL     1     -40.221  53.353 -49.639  1.00  0.00     0.051 C 
HETATM   36  C   UNL     1     -41.854  54.007 -51.428  1.00  0.00     0.018 A 
BRANCH  32  37
HETATM   37  O   UNL     1     -38.974  51.737 -51.734  1.00  0.00    -0.360 OA
HETATM   38  H   UNL     1     -38.358  51.735 -52.484  1.00  0.00     0.217 HD
ENDBRANCH  32  37
ENDBRANCH  28  29
ENDBRANCH   1  28
TORSDOF 7
ENDMDL
