MODEL 1
REMARK VINA RESULT:      -9.2      0.000      0.000
REMARK  3 active torsions:
REMARK  status: ('A' for Active; 'I' for Inactive)
REMARK    1  A    between atoms: C_7  and  C_8 
REMARK    2  A    between atoms: C_12  and  C_13 
REMARK    3  A    between atoms: C_16  and  C_17 
ROOT
HETATM    1  C   UNL     1     -44.428  56.940 -50.961  1.00  0.00     0.048 C 
HETATM    2  C   UNL     1     -43.488  55.852 -51.386  1.00  0.00    -0.061 A 
HETATM    3  C   UNL     1     -43.109  55.700 -52.725  1.00  0.00     0.021 A 
HETATM    4  C   UNL     1     -42.200  54.688 -53.146  1.00  0.00     0.008 A 
HETATM    5  C   UNL     1     -41.690  53.814 -52.166  1.00  0.00     0.068 A 
HETATM    6  N   UNL     1     -40.851  52.808 -52.445  1.00  0.00    -0.252 NA
HETATM    7  C   UNL     1     -40.452  52.581 -53.714  1.00  0.00     0.040 A 
HETATM    8  C   UNL     1     -40.898  53.393 -54.746  1.00  0.00     0.044 A 
HETATM    9  C   UNL     1     -41.768  54.464 -54.483  1.00  0.00     0.034 A 
HETATM   10  C   UNL     1     -42.063  53.984 -50.840  1.00  0.00     0.033 A 
HETATM   11  C   UNL     1     -42.944  54.990 -50.441  1.00  0.00     0.009 A 
ENDROOT
BRANCH   9  12
HETATM   12  C   UNL     1     -42.182  55.321 -55.594  1.00  0.00     0.207 A 
HETATM   13  O   UNL     1     -41.832  56.646 -55.516  1.00  0.00    -0.191 OA
HETATM   14  N   UNL     1     -42.319  57.266 -56.671  1.00  0.00    -0.108 NA
HETATM   15  C   UNL     1     -42.893  56.261 -57.331  1.00  0.00     0.189 A 
HETATM   16  N   UNL     1     -42.861  55.045 -56.693  1.00  0.00    -0.202 NA
BRANCH  15  17
HETATM   17  C   UNL     1     -43.569  56.410 -58.654  1.00  0.00     0.282 C 
HETATM   18  N   UNL     1     -45.037  56.805 -58.449  1.00  0.00    -0.060 N 
HETATM   19  H   UNL     1     -45.423  56.168 -57.736  1.00  0.00     0.278 HD
HETATM   20  H   UNL     1     -45.064  57.738 -58.018  1.00  0.00     0.278 HD
HETATM   21  C   UNL     1     -45.841  56.779 -59.711  1.00  0.00     0.259 C 
HETATM   22  C   UNL     1     -45.676  55.423 -60.398  1.00  0.00     0.195 C 
HETATM   23  O   UNL     1     -44.291  55.166 -60.659  1.00  0.00    -0.387 OA
HETATM   24  C   UNL     1     -43.524  55.088 -59.447  1.00  0.00     0.208 C 
ENDBRANCH  15  17
ENDBRANCH   9  12
BRANCH   7  25
HETATM   25  C   UNL     1     -39.531  51.415 -53.982  1.00  0.00     0.038 A 
HETATM   26  C   UNL     1     -39.715  50.108 -53.244  1.00  0.00     0.011 A 
HETATM   27  C   UNL     1     -40.057  50.194 -54.702  1.00  0.00     0.011 A 
ENDBRANCH   7  25
TORSDOF 3
ENDMDL
MODEL 2
REMARK VINA RESULT:      -9.2      1.690      4.184
REMARK  3 active torsions:
REMARK  status: ('A' for Active; 'I' for Inactive)
REMARK    1  A    between atoms: C_7  and  C_8 
REMARK    2  A    between atoms: C_12  and  C_13 
REMARK    3  A    between atoms: C_16  and  C_17 
ROOT
HETATM    1  C   UNL     1     -39.744  50.148 -54.567  1.00  0.00     0.048 C 
HETATM    2  C   UNL     1     -39.965  51.330 -53.673  1.00  0.00    -0.061 A 
HETATM    3  C   UNL     1     -40.661  52.460 -54.119  1.00  0.00     0.021 A 
HETATM    4  C   UNL     1     -40.900  53.584 -53.278  1.00  0.00     0.008 A 
HETATM    5  C   UNL     1     -40.400  53.539 -51.962  1.00  0.00     0.068 A 
HETATM    6  N   UNL     1     -40.539  54.545 -51.089  1.00  0.00    -0.252 NA
HETATM    7  C   UNL     1     -41.179  55.679 -51.446  1.00  0.00     0.040 A 
HETATM    8  C   UNL     1     -41.710  55.812 -52.721  1.00  0.00     0.044 A 
HETATM    9  C   UNL     1     -41.592  54.769 -53.654  1.00  0.00     0.034 A 
HETATM   10  C   UNL     1     -39.724  52.407 -51.528  1.00  0.00     0.033 A 
HETATM   11  C   UNL     1     -39.509  51.308 -52.360  1.00  0.00     0.009 A 
ENDROOT
BRANCH   9  12
HETATM   12  C   UNL     1     -42.203  54.935 -54.972  1.00  0.00     0.207 A 
HETATM   13  O   UNL     1     -43.018  53.921 -55.408  1.00  0.00    -0.191 OA
HETATM   14  N   UNL     1     -43.490  54.290 -56.672  1.00  0.00    -0.108 NA
HETATM   15  C   UNL     1     -42.931  55.484 -56.864  1.00  0.00     0.189 A 
HETATM   16  N   UNL     1     -42.103  55.913 -55.856  1.00  0.00    -0.202 NA
BRANCH  15  17
HETATM   17  C   UNL     1     -43.132  56.312 -58.090  1.00  0.00     0.282 C 
HETATM   18  N   UNL     1     -44.495  57.011 -58.032  1.00  0.00    -0.060 N 
HETATM   19  H   UNL     1     -45.189  56.296 -57.768  1.00  0.00     0.278 HD
HETATM   20  H   UNL     1     -44.484  57.676 -57.248  1.00  0.00     0.278 HD
HETATM   21  C   UNL     1     -44.865  57.699 -59.307  1.00  0.00     0.259 C 
HETATM   22  C   UNL     1     -44.745  56.718 -60.474  1.00  0.00     0.195 C 
HETATM   23  O   UNL     1     -43.417  56.185 -60.538  1.00  0.00    -0.387 OA
HETATM   24  C   UNL     1     -43.085  55.435 -59.359  1.00  0.00     0.208 C 
ENDBRANCH  15  17
ENDBRANCH   9  12
BRANCH   7  25
HETATM   25  C   UNL     1     -41.282  56.797 -50.438  1.00  0.00     0.038 A 
HETATM   26  C   UNL     1     -40.428  58.036 -50.579  1.00  0.00     0.011 A 
HETATM   27  C   UNL     1     -41.902  58.116 -50.842  1.00  0.00     0.011 A 
ENDBRANCH   7  25
TORSDOF 3
ENDMDL
MODEL 3
REMARK VINA RESULT:      -8.5      1.651      2.226
REMARK  3 active torsions:
REMARK  status: ('A' for Active; 'I' for Inactive)
REMARK    1  A    between atoms: C_7  and  C_8 
REMARK    2  A    between atoms: C_12  and  C_13 
REMARK    3  A    between atoms: C_16  and  C_17 
ROOT
HETATM    1  C   UNL     1     -44.237  56.927 -50.850  1.00  0.00     0.048 C 
HETATM    2  C   UNL     1     -43.298  55.820 -51.225  1.00  0.00    -0.061 A 
HETATM    3  C   UNL     1     -42.966  55.569 -52.562  1.00  0.00     0.021 A 
HETATM    4  C   UNL     1     -42.059  54.538 -52.937  1.00  0.00     0.008 A 
HETATM    5  C   UNL     1     -41.501  53.748 -51.913  1.00  0.00     0.068 A 
HETATM    6  N   UNL     1     -40.659  52.733 -52.145  1.00  0.00    -0.252 NA
HETATM    7  C   UNL     1     -40.304  52.413 -53.407  1.00  0.00     0.040 A 
HETATM    8  C   UNL     1     -40.799  53.137 -54.481  1.00  0.00     0.044 A 
HETATM    9  C   UNL     1     -41.674  54.216 -54.268  1.00  0.00     0.034 A 
HETATM   10  C   UNL     1     -41.827  54.017 -50.591  1.00  0.00     0.033 A 
HETATM   11  C   UNL     1     -42.707  55.041 -50.238  1.00  0.00     0.009 A 
ENDROOT
BRANCH   9  12
HETATM   12  C   UNL     1     -42.140  54.979 -55.426  1.00  0.00     0.207 A 
HETATM   13  O   UNL     1     -43.028  54.350 -56.263  1.00  0.00    -0.191 OA
HETATM   14  N   UNL     1     -43.338  55.255 -57.284  1.00  0.00    -0.108 NA
HETATM   15  C   UNL     1     -42.627  56.333 -56.955  1.00  0.00     0.189 A 
HETATM   16  N   UNL     1     -41.848  56.202 -55.832  1.00  0.00    -0.202 NA
BRANCH  15  17
HETATM   17  C   UNL     1     -42.618  57.600 -57.746  1.00  0.00     0.282 C 
HETATM   18  N   UNL     1     -42.209  58.773 -56.847  1.00  0.00    -0.060 N 
HETATM   19  H   UNL     1     -42.769  58.702 -55.985  1.00  0.00     0.278 HD
HETATM   20  H   UNL     1     -41.236  58.627 -56.548  1.00  0.00     0.278 HD
HETATM   21  C   UNL     1     -42.368  60.108 -57.504  1.00  0.00     0.259 C 
HETATM   22  C   UNL     1     -43.788  60.243 -58.056  1.00  0.00     0.195 C 
HETATM   23  O   UNL     1     -44.066  59.177 -58.971  1.00  0.00    -0.387 OA
HETATM   24  C   UNL     1     -44.016  57.894 -58.329  1.00  0.00     0.208 C 
ENDBRANCH  15  17
ENDBRANCH   9  12
BRANCH   7  25
HETATM   25  C   UNL     1     -39.377  51.240 -53.619  1.00  0.00     0.038 A 
HETATM   26  C   UNL     1     -39.726  49.878 -53.063  1.00  0.00     0.011 A 
HETATM   27  C   UNL     1     -39.789  50.116 -54.542  1.00  0.00     0.011 A 
ENDBRANCH   7  25
TORSDOF 3
ENDMDL
MODEL 4
REMARK VINA RESULT:      -8.5      1.985      2.312
REMARK  3 active torsions:
REMARK  status: ('A' for Active; 'I' for Inactive)
REMARK    1  A    between atoms: C_7  and  C_8 
REMARK    2  A    between atoms: C_12  and  C_13 
REMARK    3  A    between atoms: C_16  and  C_17 
ROOT
HETATM    1  C   UNL     1     -41.644  57.213 -49.847  1.00  0.00     0.048 C 
HETATM    2  C   UNL     1     -41.115  55.954 -50.467  1.00  0.00    -0.061 A 
HETATM    3  C   UNL     1     -41.447  55.593 -51.778  1.00  0.00     0.021 A 
HETATM    4  C   UNL     1     -40.937  54.414 -52.392  1.00  0.00     0.008 A 
HETATM    5  C   UNL     1     -40.082  53.593 -51.630  1.00  0.00     0.068 A 
HETATM    6  N   UNL     1     -39.564  52.447 -52.090  1.00  0.00    -0.252 NA
HETATM    7  C   UNL     1     -39.851  52.017 -53.336  1.00  0.00     0.040 A 
HETATM    8  C   UNL     1     -40.680  52.762 -54.162  1.00  0.00     0.044 A 
HETATM    9  C   UNL     1     -41.228  53.974 -53.713  1.00  0.00     0.034 A 
HETATM   10  C   UNL     1     -39.750  53.970 -50.337  1.00  0.00     0.033 A 
HETATM   11  C   UNL     1     -40.247  55.136 -49.753  1.00  0.00     0.009 A 
ENDROOT
BRANCH   9  12
HETATM   12  C   UNL     1     -42.063  54.748 -54.631  1.00  0.00     0.207 A 
HETATM   13  O   UNL     1     -43.341  55.030 -54.215  1.00  0.00    -0.191 OA
HETATM   14  N   UNL     1     -43.948  55.773 -55.233  1.00  0.00    -0.108 NA
HETATM   15  C   UNL     1     -42.981  55.878 -56.144  1.00  0.00     0.189 A 
HETATM   16  N   UNL     1     -41.808  55.237 -55.832  1.00  0.00    -0.202 NA
BRANCH  15  17
HETATM   17  C   UNL     1     -43.134  56.599 -57.443  1.00  0.00     0.282 C 
HETATM   18  N   UNL     1     -42.694  55.692 -58.599  1.00  0.00    -0.060 N 
HETATM   19  H   UNL     1     -41.785  55.286 -58.333  1.00  0.00     0.278 HD
HETATM   20  H   UNL     1     -43.341  54.894 -58.648  1.00  0.00     0.278 HD
HETATM   21  C   UNL     1     -42.624  56.400 -59.915  1.00  0.00     0.259 C 
HETATM   22  C   UNL     1     -41.762  57.655 -59.778  1.00  0.00     0.195 C 
HETATM   23  O   UNL     1     -42.291  58.509 -58.757  1.00  0.00    -0.387 OA
HETATM   24  C   UNL     1     -42.271  57.877 -57.468  1.00  0.00     0.208 C 
ENDBRANCH  15  17
ENDBRANCH   9  12
BRANCH   7  25
HETATM   25  C   UNL     1     -39.268  50.703 -53.798  1.00  0.00     0.038 A 
HETATM   26  C   UNL     1     -39.771  49.398 -53.223  1.00  0.00     0.011 A 
HETATM   27  C   UNL     1     -40.104  49.765 -54.639  1.00  0.00     0.011 A 
ENDBRANCH   7  25
TORSDOF 3
ENDMDL
MODEL 5
REMARK VINA RESULT:      -8.0      1.815      4.815
REMARK  3 active torsions:
REMARK  status: ('A' for Active; 'I' for Inactive)
REMARK    1  A    between atoms: C_7  and  C_8 
REMARK    2  A    between atoms: C_12  and  C_13 
REMARK    3  A    between atoms: C_16  and  C_17 
ROOT
HETATM    1  C   UNL     1     -40.681  52.915 -53.400  1.00  0.00     0.048 C 
HETATM    2  C   UNL     1     -41.609  53.918 -52.782  1.00  0.00    -0.061 A 
HETATM    3  C   UNL     1     -42.145  54.971 -53.532  1.00  0.00     0.021 A 
HETATM    4  C   UNL     1     -43.045  55.921 -52.971  1.00  0.00     0.008 A 
HETATM    5  C   UNL     1     -43.382  55.783 -51.610  1.00  0.00     0.068 A 
HETATM    6  N   UNL     1     -44.195  56.629 -50.965  1.00  0.00    -0.252 NA
HETATM    7  C   UNL     1     -44.737  57.683 -51.611  1.00  0.00     0.040 A 
HETATM    8  C   UNL     1     -44.467  57.898 -52.954  1.00  0.00     0.044 A 
HETATM    9  C   UNL     1     -43.629  57.020 -53.660  1.00  0.00     0.034 A 
HETATM   10  C   UNL     1     -42.854  54.726 -50.881  1.00  0.00     0.033 A 
HETATM   11  C   UNL     1     -41.984  53.795 -51.450  1.00  0.00     0.009 A 
ENDROOT
BRANCH   9  12
HETATM   12  C   UNL     1     -43.403  57.259 -55.086  1.00  0.00     0.207 A 
HETATM   13  O   UNL     1     -42.294  57.995 -55.421  1.00  0.00    -0.191 OA
HETATM   14  N   UNL     1     -42.275  58.094 -56.816  1.00  0.00    -0.108 NA
HETATM   15  C   UNL     1     -43.354  57.402 -57.180  1.00  0.00     0.189 A 
HETATM   16  N   UNL     1     -44.101  56.892 -56.147  1.00  0.00    -0.202 NA
BRANCH  15  17
HETATM   17  C   UNL     1     -43.779  57.204 -58.598  1.00  0.00     0.282 C 
HETATM   18  N   UNL     1     -45.236  56.731 -58.645  1.00  0.00    -0.060 N 
HETATM   19  H   UNL     1     -45.326  55.962 -57.964  1.00  0.00     0.278 HD
HETATM   20  H   UNL     1     -45.833  57.484 -58.280  1.00  0.00     0.278 HD
HETATM   21  C   UNL     1     -45.682  56.315 -60.012  1.00  0.00     0.259 C 
HETATM   22  C   UNL     1     -44.701  55.291 -60.583  1.00  0.00     0.195 C 
HETATM   23  O   UNL     1     -43.377  55.837 -60.612  1.00  0.00    -0.387 OA
HETATM   24  C   UNL     1     -42.898  56.147 -59.294  1.00  0.00     0.208 C 
ENDBRANCH  15  17
ENDBRANCH   9  12
BRANCH   7  25
HETATM   25  C   UNL     1     -45.622  58.627 -50.834  1.00  0.00     0.038 A 
HETATM   26  C   UNL     1     -45.087  59.957 -50.353  1.00  0.00     0.011 A 
HETATM   27  C   UNL     1     -46.085  59.918 -51.472  1.00  0.00     0.011 A 
ENDBRANCH   7  25
TORSDOF 3
ENDMDL
MODEL 6
REMARK VINA RESULT:      -8.0      3.977      6.725
REMARK  3 active torsions:
REMARK  status: ('A' for Active; 'I' for Inactive)
REMARK    1  A    between atoms: C_7  and  C_8 
REMARK    2  A    between atoms: C_12  and  C_13 
REMARK    3  A    between atoms: C_16  and  C_17 
ROOT
HETATM    1  C   UNL     1     -40.255  53.995 -47.789  1.00  0.00     0.048 C 
HETATM    2  C   UNL     1     -40.486  54.041 -49.269  1.00  0.00    -0.061 A 
HETATM    3  C   UNL     1     -40.791  55.241 -49.921  1.00  0.00     0.021 A 
HETATM    4  C   UNL     1     -40.993  55.310 -51.329  1.00  0.00     0.008 A 
HETATM    5  C   UNL     1     -40.890  54.114 -52.067  1.00  0.00     0.068 A 
HETATM    6  N   UNL     1     -41.085  54.050 -53.390  1.00  0.00    -0.252 NA
HETATM    7  C   UNL     1     -41.403  55.158 -54.091  1.00  0.00     0.040 A 
HETATM    8  C   UNL     1     -41.522  56.383 -53.450  1.00  0.00     0.044 A 
HETATM    9  C   UNL     1     -41.309  56.485 -52.066  1.00  0.00     0.034 A 
HETATM   10  C   UNL     1     -40.573  52.934 -51.410  1.00  0.00     0.033 A 
HETATM   11  C   UNL     1     -40.364  52.885 -50.032  1.00  0.00     0.009 A 
ENDROOT
BRANCH   9  12
HETATM   12  C   UNL     1     -41.404  57.802 -51.437  1.00  0.00     0.207 A 
HETATM   13  O   UNL     1     -40.266  58.288 -50.844  1.00  0.00    -0.191 OA
HETATM   14  N   UNL     1     -40.582  59.545 -50.319  1.00  0.00    -0.108 NA
HETATM   15  C   UNL     1     -41.861  59.698 -50.659  1.00  0.00     0.189 A 
HETATM   16  N   UNL     1     -42.423  58.637 -51.324  1.00  0.00    -0.202 NA
BRANCH  15  17
HETATM   17  C   UNL     1     -42.675  60.905 -50.324  1.00  0.00     0.282 C 
HETATM   18  N   UNL     1     -43.872  60.504 -49.454  1.00  0.00    -0.060 N 
HETATM   19  H   UNL     1     -44.313  59.689 -49.906  1.00  0.00     0.278 HD
HETATM   20  H   UNL     1     -43.515  60.153 -48.556  1.00  0.00     0.278 HD
HETATM   21  C   UNL     1     -44.850  61.616 -49.239  1.00  0.00     0.259 C 
HETATM   22  C   UNL     1     -45.261  62.206 -50.589  1.00  0.00     0.195 C 
HETATM   23  O   UNL     1     -44.106  62.660 -51.303  1.00  0.00    -0.387 OA
HETATM   24  C   UNL     1     -43.205  61.583 -51.604  1.00  0.00     0.208 C 
ENDBRANCH  15  17
ENDBRANCH   9  12
BRANCH   7  25
HETATM   25  C   UNL     1     -41.644  55.029 -55.575  1.00  0.00     0.038 A 
HETATM   26  C   UNL     1     -43.018  54.675 -56.099  1.00  0.00     0.011 A 
HETATM   27  C   UNL     1     -42.484  56.063 -56.292  1.00  0.00     0.011 A 
ENDBRANCH   7  25
TORSDOF 3
ENDMDL
MODEL 7
REMARK VINA RESULT:      -7.7      3.445      6.783
REMARK  3 active torsions:
REMARK  status: ('A' for Active; 'I' for Inactive)
REMARK    1  A    between atoms: C_7  and  C_8 
REMARK    2  A    between atoms: C_12  and  C_13 
REMARK    3  A    between atoms: C_16  and  C_17 
ROOT
HETATM    1  C   UNL     1     -40.222  53.425 -51.262  1.00  0.00     0.048 C 
HETATM    2  C   UNL     1     -40.828  53.843 -52.568  1.00  0.00    -0.061 A 
HETATM    3  C   UNL     1     -41.165  55.178 -52.820  1.00  0.00     0.021 A 
HETATM    4  C   UNL     1     -41.720  55.599 -54.062  1.00  0.00     0.008 A 
HETATM    5  C   UNL     1     -41.941  54.619 -55.049  1.00  0.00     0.068 A 
HETATM    6  N   UNL     1     -42.483  54.890 -56.243  1.00  0.00    -0.252 NA
HETATM    7  C   UNL     1     -42.854  56.148 -56.558  1.00  0.00     0.040 A 
HETATM    8  C   UNL     1     -42.670  57.181 -55.650  1.00  0.00     0.044 A 
HETATM    9  C   UNL     1     -42.093  56.931 -54.395  1.00  0.00     0.034 A 
HETATM   10  C   UNL     1     -41.591  53.301 -54.791  1.00  0.00     0.033 A 
HETATM   11  C   UNL     1     -41.034  52.906 -53.574  1.00  0.00     0.009 A 
ENDROOT
BRANCH   9  12
HETATM   12  C   UNL     1     -41.879  58.056 -53.485  1.00  0.00     0.207 A 
HETATM   13  O   UNL     1     -40.583  58.468 -53.305  1.00  0.00    -0.191 OA
HETATM   14  N   UNL     1     -40.615  59.544 -52.411  1.00  0.00    -0.108 NA
HETATM   15  C   UNL     1     -41.916  59.681 -52.156  1.00  0.00     0.189 A 
HETATM   16  N   UNL     1     -42.735  58.767 -52.771  1.00  0.00    -0.202 NA
BRANCH  15  17
HETATM   17  C   UNL     1     -42.481  60.717 -51.241  1.00  0.00     0.282 C 
HETATM   18  N   UNL     1     -43.463  60.067 -50.259  1.00  0.00    -0.060 N 
HETATM   19  H   UNL     1     -44.090  59.465 -50.814  1.00  0.00     0.278 HD
HETATM   20  H   UNL     1     -42.937  59.421 -49.655  1.00  0.00     0.278 HD
HETATM   21  C   UNL     1     -44.227  61.057 -49.439  1.00  0.00     0.259 C 
HETATM   22  C   UNL     1     -44.891  62.083 -50.358  1.00  0.00     0.195 C 
HETATM   23  O   UNL     1     -43.904  62.731 -51.170  1.00  0.00    -0.387 OA
HETATM   24  C   UNL     1     -43.232  61.804 -52.037  1.00  0.00     0.208 C 
ENDBRANCH  15  17
ENDBRANCH   9  12
BRANCH   7  25
HETATM   25  C   UNL     1     -43.489  56.398 -57.904  1.00  0.00     0.038 A 
HETATM   26  C   UNL     1     -42.649  56.378 -59.162  1.00  0.00     0.011 A 
HETATM   27  C   UNL     1     -43.616  55.263 -58.895  1.00  0.00     0.011 A 
ENDBRANCH   7  25
TORSDOF 3
ENDMDL
MODEL 8
REMARK VINA RESULT:      -7.6      1.517      1.989
REMARK  3 active torsions:
REMARK  status: ('A' for Active; 'I' for Inactive)
REMARK    1  A    between atoms: C_7  and  C_8 
REMARK    2  A    between atoms: C_12  and  C_13 
REMARK    3  A    between atoms: C_16  and  C_17 
ROOT
HETATM    1  C   UNL     1     -45.042  59.032 -52.636  1.00  0.00     0.048 C 
HETATM    2  C   UNL     1     -44.096  57.882 -52.810  1.00  0.00    -0.061 A 
HETATM    3  C   UNL     1     -43.717  57.437 -54.082  1.00  0.00     0.021 A 
HETATM    4  C   UNL     1     -42.803  56.362 -54.269  1.00  0.00     0.008 A 
HETATM    5  C   UNL     1     -42.285  55.732 -53.120  1.00  0.00     0.068 A 
HETATM    6  N   UNL     1     -41.441  54.694 -53.170  1.00  0.00    -0.252 NA
HETATM    7  C   UNL     1     -41.042  54.191 -54.357  1.00  0.00     0.040 A 
HETATM    8  C   UNL     1     -41.495  54.751 -55.543  1.00  0.00     0.044 A 
HETATM    9  C   UNL     1     -42.371  55.848 -55.523  1.00  0.00     0.034 A 
HETATM   10  C   UNL     1     -42.658  56.191 -51.865  1.00  0.00     0.033 A 
HETATM   11  C   UNL     1     -43.545  57.256 -51.698  1.00  0.00     0.009 A 
ENDROOT
BRANCH   9  12
HETATM   12  C   UNL     1     -42.792  56.433 -56.796  1.00  0.00     0.207 A 
HETATM   13  O   UNL     1     -42.085  57.522 -57.239  1.00  0.00    -0.191 OA
HETATM   14  N   UNL     1     -42.649  57.908 -58.460  1.00  0.00    -0.108 NA
HETATM   15  C   UNL     1     -43.619  57.011 -58.638  1.00  0.00     0.189 A 
HETATM   16  N   UNL     1     -43.767  56.098 -57.623  1.00  0.00    -0.202 NA
BRANCH  15  17
HETATM   17  C   UNL     1     -44.529  56.990 -59.821  1.00  0.00     0.282 C 
HETATM   18  N   UNL     1     -45.773  57.842 -59.539  1.00  0.00    -0.060 N 
HETATM   19  H   UNL     1     -46.122  57.565 -58.609  1.00  0.00     0.278 HD
HETATM   20  H   UNL     1     -45.477  58.821 -59.434  1.00  0.00     0.278 HD
HETATM   21  C   UNL     1     -46.831  57.716 -60.589  1.00  0.00     0.259 C 
HETATM   22  C   UNL     1     -47.155  56.238 -60.817  1.00  0.00     0.195 C 
HETATM   23  O   UNL     1     -45.970  55.522 -61.183  1.00  0.00    -0.387 OA
HETATM   24  C   UNL     1     -44.984  55.551 -60.141  1.00  0.00     0.208 C 
ENDBRANCH  15  17
ENDBRANCH   9  12
BRANCH   7  25
HETATM   25  C   UNL     1     -40.114  53.001 -54.361  1.00  0.00     0.038 A 
HETATM   26  C   UNL     1     -40.009  52.108 -53.145  1.00  0.00     0.011 A 
HETATM   27  C   UNL     1     -40.689  51.602 -54.382  1.00  0.00     0.011 A 
ENDBRANCH   7  25
TORSDOF 3
ENDMDL
MODEL 9
REMARK VINA RESULT:      -7.5      4.060      7.101
REMARK  3 active torsions:
REMARK  status: ('A' for Active; 'I' for Inactive)
REMARK    1  A    between atoms: C_7  and  C_8 
REMARK    2  A    between atoms: C_12  and  C_13 
REMARK    3  A    between atoms: C_16  and  C_17 
ROOT
HETATM    1  C   UNL     1     -43.610  56.902 -56.762  1.00  0.00     0.048 C 
HETATM    2  C   UNL     1     -42.997  56.188 -55.595  1.00  0.00    -0.061 A 
HETATM    3  C   UNL     1     -43.230  56.608 -54.280  1.00  0.00     0.021 A 
HETATM    4  C   UNL     1     -42.676  55.930 -53.158  1.00  0.00     0.008 A 
HETATM    5  C   UNL     1     -41.859  54.809 -53.404  1.00  0.00     0.068 A 
HETATM    6  N   UNL     1     -41.261  54.109 -52.432  1.00  0.00    -0.252 NA
HETATM    7  C   UNL     1     -41.418  54.461 -51.139  1.00  0.00     0.040 A 
HETATM    8  C   UNL     1     -42.209  55.548 -50.798  1.00  0.00     0.044 A 
HETATM    9  C   UNL     1     -42.860  56.293 -51.795  1.00  0.00     0.034 A 
HETATM   10  C   UNL     1     -41.647  54.395 -54.712  1.00  0.00     0.033 A 
HETATM   11  C   UNL     1     -42.209  55.062 -55.801  1.00  0.00     0.009 A 
ENDROOT
BRANCH   9  12
HETATM   12  C   UNL     1     -43.718  57.407 -51.389  1.00  0.00     0.207 A 
HETATM   13  O   UNL     1     -45.017  57.101 -51.068  1.00  0.00    -0.191 OA
HETATM   14  N   UNL     1     -45.643  58.299 -50.710  1.00  0.00    -0.108 NA
HETATM   15  C   UNL     1     -44.666  59.197 -50.834  1.00  0.00     0.189 A 
HETATM   16  N   UNL     1     -43.465  58.699 -51.280  1.00  0.00    -0.202 NA
BRANCH  15  17
HETATM   17  C   UNL     1     -44.831  60.655 -50.558  1.00  0.00     0.282 C 
HETATM   18  N   UNL     1     -44.530  60.944 -49.083  1.00  0.00    -0.060 N 
HETATM   19  H   UNL     1     -45.049  60.247 -48.527  1.00  0.00     0.278 HD
HETATM   20  H   UNL     1     -43.537  60.741 -48.909  1.00  0.00     0.278 HD
HETATM   21  C   UNL     1     -44.866  62.343 -48.671  1.00  0.00     0.259 C 
HETATM   22  C   UNL     1     -46.310  62.661 -49.061  1.00  0.00     0.195 C 
HETATM   23  O   UNL     1     -46.495  62.475 -50.469  1.00  0.00    -0.387 OA
HETATM   24  C   UNL     1     -46.273  61.111 -50.862  1.00  0.00     0.208 C 
ENDBRANCH  15  17
ENDBRANCH   9  12
BRANCH   7  25
HETATM   25  C   UNL     1     -40.698  53.659 -50.081  1.00  0.00     0.038 A 
HETATM   26  C   UNL     1     -39.415  54.176 -49.471  1.00  0.00     0.011 A 
HETATM   27  C   UNL     1     -40.671  54.155 -48.653  1.00  0.00     0.011 A 
ENDBRANCH   7  25
TORSDOF 3
ENDMDL
MODEL 10
REMARK VINA RESULT:      -7.5      3.434      6.561
REMARK  3 active torsions:
REMARK  status: ('A' for Active; 'I' for Inactive)
REMARK    1  A    between atoms: C_7  and  C_8 
REMARK    2  A    between atoms: C_12  and  C_13 
REMARK    3  A    between atoms: C_16  and  C_17 
ROOT
HETATM    1  C   UNL     1     -43.593  59.110 -58.328  1.00  0.00     0.048 C 
HETATM    2  C   UNL     1     -43.220  57.853 -57.600  1.00  0.00    -0.061 A 
HETATM    3  C   UNL     1     -42.734  57.889 -56.288  1.00  0.00     0.021 A 
HETATM    4  C   UNL     1     -42.395  56.705 -55.572  1.00  0.00     0.008 A 
HETATM    5  C   UNL     1     -42.550  55.470 -56.232  1.00  0.00     0.068 A 
HETATM    6  N   UNL     1     -42.238  54.295 -55.672  1.00  0.00    -0.252 NA
HETATM    7  C   UNL     1     -41.745  54.243 -54.417  1.00  0.00     0.040 A 
HETATM    8  C   UNL     1     -41.563  55.408 -53.686  1.00  0.00     0.044 A 
HETATM    9  C   UNL     1     -41.893  56.655 -54.242  1.00  0.00     0.034 A 
HETATM   10  C   UNL     1     -43.045  55.449 -57.528  1.00  0.00     0.033 A 
HETATM   11  C   UNL     1     -43.386  56.616 -58.212  1.00  0.00     0.009 A 
ENDROOT
BRANCH   9  12
HETATM   12  C   UNL     1     -41.724  57.855 -53.422  1.00  0.00     0.207 A 
HETATM   13  O   UNL     1     -40.453  58.364 -53.326  1.00  0.00    -0.191 OA
HETATM   14  N   UNL     1     -40.527  59.497 -52.509  1.00  0.00    -0.108 NA
HETATM   15  C   UNL     1     -41.824  59.567 -52.211  1.00  0.00     0.189 A 
HETATM   16  N   UNL     1     -42.600  58.559 -52.726  1.00  0.00    -0.202 NA
BRANCH  15  17
HETATM   17  C   UNL     1     -42.425  60.628 -51.348  1.00  0.00     0.282 C 
HETATM   18  N   UNL     1     -43.450  60.005 -50.393  1.00  0.00    -0.060 N 
HETATM   19  H   UNL     1     -44.055  59.390 -50.959  1.00  0.00     0.278 HD
HETATM   20  H   UNL     1     -42.953  59.375 -49.751  1.00  0.00     0.278 HD
HETATM   21  C   UNL     1     -44.246  61.018 -49.633  1.00  0.00     0.259 C 
HETATM   22  C   UNL     1     -44.867  62.020 -50.607  1.00  0.00     0.195 C 
HETATM   23  O   UNL     1     -43.845  62.645 -51.393  1.00  0.00    -0.387 OA
HETATM   24  C   UNL     1     -43.138  61.694 -52.205  1.00  0.00     0.208 C 
ENDBRANCH  15  17
ENDBRANCH   9  12
BRANCH   7  25
HETATM   25  C   UNL     1     -41.379  52.897 -53.841  1.00  0.00     0.038 A 
HETATM   26  C   UNL     1     -40.058  52.249 -54.188  1.00  0.00     0.011 A 
HETATM   27  C   UNL     1     -40.278  52.797 -52.809  1.00  0.00     0.011 A 
ENDBRANCH   7  25
TORSDOF 3
ENDMDL
