MODEL 1
REMARK VINA RESULT:      -8.3      0.000      0.000
REMARK  3 active torsions:
REMARK  status: ('A' for Active; 'I' for Inactive)
REMARK    1  A    between atoms: C_3  and  C_4 
REMARK       I    between atoms: C_4  and  N_5 
REMARK    2  A    between atoms: N_5  and  C_6 
REMARK    3  A    between atoms: C_13  and  C_14 
REMARK       I    between atoms: C_14  and  N_15 
ROOT
HETATM    1  C   UNL     1     -42.811  56.343 -56.786  1.00  0.00     0.035 A 
HETATM    2  C   UNL     1     -43.625  56.004 -57.877  1.00  0.00     0.046 A 
HETATM    3  C   UNL     1     -43.860  56.951 -58.894  1.00  0.00     0.030 A 
HETATM    4  C   UNL     1     -43.303  58.216 -58.772  1.00  0.00     0.063 A 
HETATM    5  N   UNL     1     -43.710  58.900 -59.883  1.00  0.00    -0.277 N 
HETATM    6  H   UNL     1     -43.496  59.861 -60.125  1.00  0.00     0.189 HD
HETATM    7  N   UNL     1     -44.464  58.180 -60.735  1.00  0.00    -0.168 NA
HETATM    8  C   UNL     1     -44.564  56.973 -60.136  1.00  0.00     0.156 A 
HETATM    9  C   UNL     1     -42.505  58.593 -57.691  1.00  0.00     0.034 A 
HETATM   10  C   UNL     1     -42.262  57.625 -56.704  1.00  0.00     0.032 A 
ENDROOT
BRANCH   1  11
HETATM   11  N   UNL     1     -42.595  55.340 -55.823  1.00  0.00    -0.325 N 
HETATM   12  C   UNL     1     -43.227  55.179 -54.601  1.00  0.00     0.252 C 
HETATM   13  O   UNL     1     -44.088  55.913 -54.122  1.00  0.00    -0.270 OA
HETATM   14  H   UNL     1     -41.868  54.659 -56.027  1.00  0.00     0.169 HD
BRANCH  12  15
HETATM   15  C   UNL     1     -42.666  54.001 -53.797  1.00  0.00     0.229 C 
HETATM   16  C   UNL     1     -41.806  54.428 -52.586  1.00  0.00     0.056 C 
HETATM   17  C   UNL     1     -41.001  55.714 -52.752  1.00  0.00     0.018 C 
HETATM   18  C   UNL     1     -40.902  53.244 -52.549  1.00  0.00    -0.018 A 
HETATM   19  C   UNL     1     -40.986  52.563 -53.755  1.00  0.00     0.076 A 
HETATM   20  C   UNL     1     -40.035  52.820 -51.557  1.00  0.00     0.010 A 
HETATM   21  O   UNL     1     -41.874  53.121 -54.637  1.00  0.00    -0.335 OA
HETATM   22  C   UNL     1     -40.216  51.452 -54.026  1.00  0.00     0.037 A 
HETATM   23  C   UNL     1     -39.343  51.007 -53.032  1.00  0.00     0.003 A 
HETATM   24  C   UNL     1     -39.253  51.687 -51.805  1.00  0.00     0.001 A 
ENDBRANCH  12  15
ENDBRANCH   1  11
BRANCH   8  25
HETATM   25  C   UNL     1     -45.303  55.866 -60.757  1.00  0.00     0.270 C 
HETATM   26  N   UNL     1     -46.590  55.734 -60.314  1.00  0.00    -0.365 N 
HETATM   27  H   UNL     1     -46.936  56.393 -59.627  1.00  0.00     0.159 HD
HETATM   28  H   UNL     1     -47.185  55.021 -60.706  1.00  0.00     0.159 HD
HETATM   29  O   UNL     1     -44.839  55.114 -61.609  1.00  0.00    -0.266 OA
ENDBRANCH   8  25
TORSDOF 3
ENDMDL
MODEL 2
REMARK VINA RESULT:      -8.2      1.993      3.099
REMARK  3 active torsions:
REMARK  status: ('A' for Active; 'I' for Inactive)
REMARK    1  A    between atoms: C_3  and  C_4 
REMARK       I    between atoms: C_4  and  N_5 
REMARK    2  A    between atoms: N_5  and  C_6 
REMARK    3  A    between atoms: C_13  and  C_14 
REMARK       I    between atoms: C_14  and  N_15 
ROOT
HETATM    1  C   UNL     1     -42.847  56.288 -57.595  1.00  0.00     0.035 A 
HETATM    2  C   UNL     1     -42.325  57.584 -57.459  1.00  0.00     0.046 A 
HETATM    3  C   UNL     1     -42.471  58.510 -58.510  1.00  0.00     0.030 A 
HETATM    4  C   UNL     1     -43.105  58.104 -59.676  1.00  0.00     0.063 A 
HETATM    5  N   UNL     1     -43.084  59.195 -60.499  1.00  0.00    -0.277 N 
HETATM    6  H   UNL     1     -43.454  59.261 -61.441  1.00  0.00     0.189 HD
HETATM    7  N   UNL     1     -42.516  60.289 -59.959  1.00  0.00    -0.168 NA
HETATM    8  C   UNL     1     -42.134  59.879 -58.729  1.00  0.00     0.156 A 
HETATM    9  C   UNL     1     -43.617  56.818 -59.853  1.00  0.00     0.034 A 
HETATM   10  C   UNL     1     -43.483  55.920 -58.783  1.00  0.00     0.032 A 
ENDROOT
BRANCH   1  11
HETATM   11  N   UNL     1     -42.690  55.425 -56.495  1.00  0.00    -0.325 N 
HETATM   12  C   UNL     1     -43.274  55.523 -55.243  1.00  0.00     0.252 C 
HETATM   13  O   UNL     1     -44.029  56.412 -54.857  1.00  0.00    -0.270 OA
HETATM   14  H   UNL     1     -42.050  54.645 -56.613  1.00  0.00     0.169 HD
BRANCH  12  15
HETATM   15  C   UNL     1     -42.801  54.426 -54.283  1.00  0.00     0.229 C 
HETATM   16  C   UNL     1     -41.949  54.954 -53.107  1.00  0.00     0.056 C 
HETATM   17  C   UNL     1     -41.069  56.166 -53.403  1.00  0.00     0.018 C 
HETATM   18  C   UNL     1     -41.115  53.738 -52.896  1.00  0.00    -0.018 A 
HETATM   19  C   UNL     1     -41.206  52.918 -54.012  1.00  0.00     0.076 A 
HETATM   20  C   UNL     1     -40.297  53.395 -51.833  1.00  0.00     0.010 A 
HETATM   21  O   UNL     1     -42.039  53.408 -54.983  1.00  0.00    -0.335 OA
HETATM   22  C   UNL     1     -40.493  51.743 -54.119  1.00  0.00     0.037 A 
HETATM   23  C   UNL     1     -39.671  51.380 -53.051  1.00  0.00     0.003 A 
HETATM   24  C   UNL     1     -39.574  52.201 -51.915  1.00  0.00     0.001 A 
ENDBRANCH  12  15
ENDBRANCH   1  11
BRANCH   8  25
HETATM   25  C   UNL     1     -41.478  60.793 -57.784  1.00  0.00     0.270 C 
HETATM   26  N   UNL     1     -42.120  60.913 -56.583  1.00  0.00    -0.365 N 
HETATM   27  H   UNL     1     -42.962  60.371 -56.428  1.00  0.00     0.159 HD
HETATM   28  H   UNL     1     -41.727  61.495 -55.859  1.00  0.00     0.159 HD
HETATM   29  O   UNL     1     -40.438  61.403 -58.017  1.00  0.00    -0.266 OA
ENDBRANCH   8  25
TORSDOF 3
ENDMDL
MODEL 3
REMARK VINA RESULT:      -8.0      4.720      5.797
REMARK  3 active torsions:
REMARK  status: ('A' for Active; 'I' for Inactive)
REMARK    1  A    between atoms: C_3  and  C_4 
REMARK       I    between atoms: C_4  and  N_5 
REMARK    2  A    between atoms: N_5  and  C_6 
REMARK    3  A    between atoms: C_13  and  C_14 
REMARK       I    between atoms: C_14  and  N_15 
ROOT
HETATM    1  C   UNL     1     -41.368  57.512 -51.555  1.00  0.00     0.035 A 
HETATM    2  C   UNL     1     -42.534  57.890 -52.239  1.00  0.00     0.046 A 
HETATM    3  C   UNL     1     -43.128  59.139 -51.970  1.00  0.00     0.030 A 
HETATM    4  C   UNL     1     -42.558  59.957 -51.005  1.00  0.00     0.063 A 
HETATM    5  N   UNL     1     -43.347  61.071 -50.961  1.00  0.00    -0.277 N 
HETATM    6  H   UNL     1     -43.234  61.881 -50.361  1.00  0.00     0.189 HD
HETATM    7  N   UNL     1     -44.370  61.064 -51.836  1.00  0.00    -0.168 NA
HETATM    8  C   UNL     1     -44.245  59.875 -52.467  1.00  0.00     0.156 A 
HETATM    9  C   UNL     1     -41.410  59.604 -50.292  1.00  0.00     0.034 A 
HETATM   10  C   UNL     1     -40.821  58.367 -50.595  1.00  0.00     0.032 A 
ENDROOT
BRANCH   1  11
HETATM   11  N   UNL     1     -40.813  56.264 -51.894  1.00  0.00    -0.325 N 
HETATM   12  C   UNL     1     -41.126  55.020 -51.372  1.00  0.00     0.252 C 
HETATM   13  O   UNL     1     -41.944  54.785 -50.485  1.00  0.00    -0.270 OA
HETATM   14  H   UNL     1     -40.070  56.267 -52.588  1.00  0.00     0.169 HD
BRANCH  12  15
HETATM   15  C   UNL     1     -40.252  53.901 -51.947  1.00  0.00     0.229 C 
HETATM   16  C   UNL     1     -40.628  53.499 -53.391  1.00  0.00     0.056 C 
HETATM   17  C   UNL     1     -42.107  53.601 -53.756  1.00  0.00     0.018 C 
HETATM   18  C   UNL     1     -40.202  52.073 -53.324  1.00  0.00    -0.018 A 
HETATM   19  C   UNL     1     -40.052  51.698 -51.997  1.00  0.00     0.076 A 
HETATM   20  C   UNL     1     -40.006  51.156 -54.343  1.00  0.00     0.010 A 
HETATM   21  O   UNL     1     -40.300  52.715 -51.112  1.00  0.00    -0.335 OA
HETATM   22  C   UNL     1     -39.714  50.413 -51.630  1.00  0.00     0.037 A 
HETATM   23  C   UNL     1     -39.506  49.480 -52.646  1.00  0.00     0.003 A 
HETATM   24  C   UNL     1     -39.651  49.849 -53.995  1.00  0.00     0.001 A 
ENDBRANCH  12  15
ENDBRANCH   1  11
BRANCH   8  25
HETATM   25  C   UNL     1     -45.169  59.471 -53.535  1.00  0.00     0.270 C 
HETATM   26  N   UNL     1     -46.030  60.457 -53.932  1.00  0.00    -0.365 N 
HETATM   27  H   UNL     1     -45.962  61.366 -53.491  1.00  0.00     0.159 HD
HETATM   28  H   UNL     1     -46.682  60.282 -54.681  1.00  0.00     0.159 HD
HETATM   29  O   UNL     1     -45.187  58.359 -54.053  1.00  0.00    -0.266 OA
ENDBRANCH   8  25
TORSDOF 3
ENDMDL
MODEL 4
REMARK VINA RESULT:      -8.0      4.863      8.438
REMARK  3 active torsions:
REMARK  status: ('A' for Active; 'I' for Inactive)
REMARK    1  A    between atoms: C_3  and  C_4 
REMARK       I    between atoms: C_4  and  N_5 
REMARK    2  A    between atoms: N_5  and  C_6 
REMARK    3  A    between atoms: C_13  and  C_14 
REMARK       I    between atoms: C_14  and  N_15 
ROOT
HETATM    1  C   UNL     1     -41.229  55.480 -53.460  1.00  0.00     0.035 A 
HETATM    2  C   UNL     1     -41.068  54.559 -52.413  1.00  0.00     0.046 A 
HETATM    3  C   UNL     1     -40.467  53.311 -52.667  1.00  0.00     0.030 A 
HETATM    4  C   UNL     1     -40.075  53.008 -53.964  1.00  0.00     0.063 A 
HETATM    5  N   UNL     1     -39.547  51.750 -53.899  1.00  0.00    -0.277 N 
HETATM    6  H   UNL     1     -39.166  51.204 -54.664  1.00  0.00     0.189 HD
HETATM    7  N   UNL     1     -39.534  51.214 -52.665  1.00  0.00    -0.168 NA
HETATM    8  C   UNL     1     -40.099  52.170 -51.894  1.00  0.00     0.156 A 
HETATM    9  C   UNL     1     -40.239  53.892 -55.032  1.00  0.00     0.034 A 
HETATM   10  C   UNL     1     -40.816  55.140 -54.750  1.00  0.00     0.032 A 
ENDROOT
BRANCH   1  11
HETATM   11  N   UNL     1     -41.811  56.718 -53.128  1.00  0.00    -0.325 N 
HETATM   12  C   UNL     1     -41.211  57.966 -53.111  1.00  0.00     0.252 C 
HETATM   13  O   UNL     1     -40.034  58.214 -53.365  1.00  0.00    -0.270 OA
HETATM   14  H   UNL     1     -42.784  56.703 -52.837  1.00  0.00     0.169 HD
BRANCH  12  15
HETATM   15  C   UNL     1     -42.156  59.070 -52.625  1.00  0.00     0.229 C 
HETATM   16  C   UNL     1     -41.636  59.834 -51.387  1.00  0.00     0.056 C 
HETATM   17  C   UNL     1     -40.806  59.023 -50.395  1.00  0.00     0.018 C 
HETATM   18  C   UNL     1     -42.956  60.193 -50.798  1.00  0.00    -0.018 A 
HETATM   19  C   UNL     1     -43.944  59.402 -51.366  1.00  0.00     0.076 A 
HETATM   20  C   UNL     1     -43.266  61.105 -49.804  1.00  0.00     0.010 A 
HETATM   21  O   UNL     1     -43.471  58.538 -52.318  1.00  0.00    -0.335 OA
HETATM   22  C   UNL     1     -45.263  59.478 -50.972  1.00  0.00     0.037 A 
HETATM   23  C   UNL     1     -45.592  60.400 -49.977  1.00  0.00     0.003 A 
HETATM   24  C   UNL     1     -44.600  61.208 -49.397  1.00  0.00     0.001 A 
ENDBRANCH  12  15
ENDBRANCH   1  11
BRANCH   8  25
HETATM   25  C   UNL     1     -40.260  51.991 -50.444  1.00  0.00     0.270 C 
HETATM   26  N   UNL     1     -40.314  50.684 -50.044  1.00  0.00    -0.365 N 
HETATM   27  H   UNL     1     -40.225  49.959 -50.746  1.00  0.00     0.159 HD
HETATM   28  H   UNL     1     -40.392  50.462 -49.064  1.00  0.00     0.159 HD
HETATM   29  O   UNL     1     -40.334  52.911 -49.636  1.00  0.00    -0.266 OA
ENDBRANCH   8  25
TORSDOF 3
ENDMDL
MODEL 5
REMARK VINA RESULT:      -7.9     15.586     17.980
REMARK  3 active torsions:
REMARK  status: ('A' for Active; 'I' for Inactive)
REMARK    1  A    between atoms: C_3  and  C_4 
REMARK       I    between atoms: C_4  and  N_5 
REMARK    2  A    between atoms: N_5  and  C_6 
REMARK    3  A    between atoms: C_13  and  C_14 
REMARK       I    between atoms: C_14  and  N_15 
ROOT
HETATM    1  C   UNL     1     -36.914  40.314 -57.219  1.00  0.00     0.035 A 
HETATM    2  C   UNL     1     -37.357  40.290 -55.887  1.00  0.00     0.046 A 
HETATM    3  C   UNL     1     -36.777  41.161 -54.942  1.00  0.00     0.030 A 
HETATM    4  C   UNL     1     -35.753  42.004 -55.350  1.00  0.00     0.063 A 
HETATM    5  N   UNL     1     -35.393  42.704 -54.233  1.00  0.00    -0.277 N 
HETATM    6  H   UNL     1     -34.668  43.408 -54.157  1.00  0.00     0.189 HD
HETATM    7  N   UNL     1     -36.115  42.410 -53.136  1.00  0.00    -0.168 NA
HETATM    8  C   UNL     1     -36.975  41.458 -53.561  1.00  0.00     0.156 A 
HETATM    9  C   UNL     1     -35.275  42.039 -56.661  1.00  0.00     0.034 A 
HETATM   10  C   UNL     1     -35.885  41.182 -57.590  1.00  0.00     0.032 A 
ENDROOT
BRANCH   1  11
HETATM   11  N   UNL     1     -37.557  39.439 -58.114  1.00  0.00    -0.325 N 
HETATM   12  C   UNL     1     -37.053  38.285 -58.690  1.00  0.00     0.252 C 
HETATM   13  O   UNL     1     -35.923  37.826 -58.537  1.00  0.00    -0.270 OA
HETATM   14  H   UNL     1     -38.499  39.689 -58.401  1.00  0.00     0.169 HD
BRANCH  12  15
HETATM   15  C   UNL     1     -38.034  37.637 -59.672  1.00  0.00     0.229 C 
HETATM   16  C   UNL     1     -37.721  37.938 -61.155  1.00  0.00     0.056 C 
HETATM   17  C   UNL     1     -37.108  39.305 -61.450  1.00  0.00     0.018 C 
HETATM   18  C   UNL     1     -39.113  37.863 -61.679  1.00  0.00    -0.018 A 
HETATM   19  C   UNL     1     -40.008  37.948 -60.622  1.00  0.00     0.076 A 
HETATM   20  C   UNL     1     -39.568  37.777 -62.983  1.00  0.00     0.010 A 
HETATM   21  O   UNL     1     -39.400  38.048 -59.398  1.00  0.00    -0.335 OA
HETATM   22  C   UNL     1     -41.373  37.959 -60.814  1.00  0.00     0.037 A 
HETATM   23  C   UNL     1     -41.846  37.864 -62.124  1.00  0.00     0.003 A 
HETATM   24  C   UNL     1     -40.949  37.773 -63.202  1.00  0.00     0.001 A 
ENDBRANCH  12  15
ENDBRANCH   1  11
BRANCH   8  25
HETATM   25  C   UNL     1     -37.973  40.866 -52.660  1.00  0.00     0.270 C 
HETATM   26  N   UNL     1     -39.021  41.693 -52.365  1.00  0.00    -0.365 N 
HETATM   27  H   UNL     1     -39.043  42.615 -52.785  1.00  0.00     0.159 HD
HETATM   28  H   UNL     1     -39.771  41.364 -51.778  1.00  0.00     0.159 HD
HETATM   29  O   UNL     1     -37.907  39.729 -52.203  1.00  0.00    -0.266 OA
ENDBRANCH   8  25
TORSDOF 3
ENDMDL
MODEL 6
REMARK VINA RESULT:      -7.9      2.626      8.145
REMARK  3 active torsions:
REMARK  status: ('A' for Active; 'I' for Inactive)
REMARK    1  A    between atoms: C_3  and  C_4 
REMARK       I    between atoms: C_4  and  N_5 
REMARK    2  A    between atoms: N_5  and  C_6 
REMARK    3  A    between atoms: C_13  and  C_14 
REMARK       I    between atoms: C_14  and  N_15 
ROOT
HETATM    1  C   UNL     1     -41.893  54.815 -55.351  1.00  0.00     0.035 A 
HETATM    2  C   UNL     1     -42.572  54.953 -54.130  1.00  0.00     0.046 A 
HETATM    3  C   UNL     1     -42.037  54.369 -52.964  1.00  0.00     0.030 A 
HETATM    4  C   UNL     1     -40.861  53.638 -53.060  1.00  0.00     0.063 A 
HETATM    5  N   UNL     1     -40.605  53.195 -51.793  1.00  0.00    -0.277 N 
HETATM    6  H   UNL     1     -39.826  52.622 -51.489  1.00  0.00     0.189 HD
HETATM    7  N   UNL     1     -41.499  53.597 -50.872  1.00  0.00    -0.168 NA
HETATM    8  C   UNL     1     -42.390  54.324 -51.582  1.00  0.00     0.156 A 
HETATM    9  C   UNL     1     -40.171  53.464 -54.262  1.00  0.00     0.034 A 
HETATM   10  C   UNL     1     -40.708  54.077 -55.404  1.00  0.00     0.032 A 
ENDROOT
BRANCH   1  11
HETATM   11  N   UNL     1     -42.468  55.448 -56.468  1.00  0.00    -0.325 N 
HETATM   12  C   UNL     1     -42.503  56.802 -56.758  1.00  0.00     0.252 C 
HETATM   13  O   UNL     1     -42.049  57.710 -56.065  1.00  0.00    -0.270 OA
HETATM   14  H   UNL     1     -42.943  54.851 -57.139  1.00  0.00     0.169 HD
BRANCH  12  15
HETATM   15  C   UNL     1     -43.285  57.112 -58.038  1.00  0.00     0.229 C 
HETATM   16  C   UNL     1     -44.468  58.084 -57.825  1.00  0.00     0.056 C 
HETATM   17  C   UNL     1     -45.179  57.993 -56.476  1.00  0.00     0.018 C 
HETATM   18  C   UNL     1     -45.347  57.580 -58.917  1.00  0.00    -0.018 A 
HETATM   19  C   UNL     1     -44.908  56.328 -59.321  1.00  0.00     0.076 A 
HETATM   20  C   UNL     1     -46.475  58.150 -59.482  1.00  0.00     0.010 A 
HETATM   21  O   UNL     1     -43.793  55.898 -58.652  1.00  0.00    -0.335 OA
HETATM   22  C   UNL     1     -45.566  55.595 -60.285  1.00  0.00     0.037 A 
HETATM   23  C   UNL     1     -46.701  56.160 -60.870  1.00  0.00     0.003 A 
HETATM   24  C   UNL     1     -47.152  57.430 -60.471  1.00  0.00     0.001 A 
ENDBRANCH  12  15
ENDBRANCH   1  11
BRANCH   8  25
HETATM   25  C   UNL     1     -43.539  54.974 -50.938  1.00  0.00     0.270 C 
HETATM   26  N   UNL     1     -44.535  54.113 -50.569  1.00  0.00    -0.365 N 
HETATM   27  H   UNL     1     -44.408  53.123 -50.744  1.00  0.00     0.159 HD
HETATM   28  H   UNL     1     -45.351  54.464 -50.092  1.00  0.00     0.159 HD
HETATM   29  O   UNL     1     -43.625  56.180 -50.726  1.00  0.00    -0.266 OA
ENDBRANCH   8  25
TORSDOF 3
ENDMDL
MODEL 7
REMARK VINA RESULT:      -7.9      1.629      2.415
REMARK  3 active torsions:
REMARK  status: ('A' for Active; 'I' for Inactive)
REMARK    1  A    between atoms: C_3  and  C_4 
REMARK       I    between atoms: C_4  and  N_5 
REMARK    2  A    between atoms: N_5  and  C_6 
REMARK    3  A    between atoms: C_13  and  C_14 
REMARK       I    between atoms: C_14  and  N_15 
ROOT
HETATM    1  C   UNL     1     -41.793  56.502 -55.277  1.00  0.00     0.035 A 
HETATM    2  C   UNL     1     -42.405  56.221 -56.509  1.00  0.00     0.046 A 
HETATM    3  C   UNL     1     -43.057  57.252 -57.216  1.00  0.00     0.030 A 
HETATM    4  C   UNL     1     -43.105  58.520 -56.656  1.00  0.00     0.063 A 
HETATM    5  N   UNL     1     -43.799  59.285 -57.551  1.00  0.00    -0.277 N 
HETATM    6  H   UNL     1     -44.033  60.268 -57.466  1.00  0.00     0.189 HD
HETATM    7  N   UNL     1     -44.184  58.631 -58.661  1.00  0.00    -0.168 NA
HETATM    8  C   UNL     1     -43.731  57.373 -58.468  1.00  0.00     0.156 A 
HETATM    9  C   UNL     1     -42.525  58.829 -55.424  1.00  0.00     0.034 A 
HETATM   10  C   UNL     1     -41.859  57.794 -54.751  1.00  0.00     0.032 A 
ENDROOT
BRANCH   1  11
HETATM   11  N   UNL     1     -41.136  55.433 -54.641  1.00  0.00    -0.325 N 
HETATM   12  C   UNL     1     -41.323  54.961 -53.352  1.00  0.00     0.252 C 
HETATM   13  O   UNL     1     -42.095  55.417 -52.512  1.00  0.00    -0.270 OA
HETATM   14  H   UNL     1     -40.413  54.958 -55.174  1.00  0.00     0.169 HD
BRANCH  12  15
HETATM   15  C   UNL     1     -40.365  53.820 -52.996  1.00  0.00     0.229 C 
HETATM   16  C   UNL     1     -40.387  52.651 -54.007  1.00  0.00     0.056 C 
HETATM   17  C   UNL     1     -41.729  52.365 -54.677  1.00  0.00     0.018 C 
HETATM   18  C   UNL     1     -40.028  51.556 -53.062  1.00  0.00    -0.018 A 
HETATM   19  C   UNL     1     -40.218  51.991 -51.759  1.00  0.00     0.076 A 
HETATM   20  C   UNL     1     -39.614  50.261 -53.321  1.00  0.00     0.010 A 
HETATM   21  O   UNL     1     -40.648  53.290 -51.674  1.00  0.00    -0.335 OA
HETATM   22  C   UNL     1     -40.015  51.167 -50.672  1.00  0.00     0.037 A 
HETATM   23  C   UNL     1     -39.589  49.861 -50.917  1.00  0.00     0.003 A 
HETATM   24  C   UNL     1     -39.390  49.411 -52.234  1.00  0.00     0.001 A 
ENDBRANCH  12  15
ENDBRANCH   1  11
BRANCH   8  25
HETATM   25  C   UNL     1     -43.928  56.322 -59.475  1.00  0.00     0.270 C 
HETATM   26  N   UNL     1     -45.144  55.701 -59.407  1.00  0.00    -0.365 N 
HETATM   27  H   UNL     1     -45.806  56.009 -58.704  1.00  0.00     0.159 HD
HETATM   28  H   UNL     1     -45.382  54.988 -60.077  1.00  0.00     0.159 HD
HETATM   29  O   UNL     1     -43.098  56.010 -60.323  1.00  0.00    -0.266 OA
ENDBRANCH   8  25
TORSDOF 3
ENDMDL
MODEL 8
REMARK VINA RESULT:      -7.8      2.971      8.598
REMARK  3 active torsions:
REMARK  status: ('A' for Active; 'I' for Inactive)
REMARK    1  A    between atoms: C_3  and  C_4 
REMARK       I    between atoms: C_4  and  N_5 
REMARK    2  A    between atoms: N_5  and  C_6 
REMARK    3  A    between atoms: C_13  and  C_14 
REMARK       I    between atoms: C_14  and  N_15 
ROOT
HETATM    1  C   UNL     1     -40.967  54.143 -54.405  1.00  0.00     0.035 A 
HETATM    2  C   UNL     1     -41.251  54.474 -53.070  1.00  0.00     0.046 A 
HETATM    3  C   UNL     1     -40.827  53.620 -52.033  1.00  0.00     0.030 A 
HETATM    4  C   UNL     1     -40.164  52.446 -52.363  1.00  0.00     0.063 A 
HETATM    5  N   UNL     1     -39.896  51.834 -51.171  1.00  0.00    -0.277 N 
HETATM    6  H   UNL     1     -39.426  50.947 -51.028  1.00  0.00     0.189 HD
HETATM    7  N   UNL     1     -40.304  52.521 -50.088  1.00  0.00    -0.168 NA
HETATM    8  C   UNL     1     -40.880  53.628 -50.608  1.00  0.00     0.156 A 
HETATM    9  C   UNL     1     -39.884  52.076 -53.680  1.00  0.00     0.034 A 
HETATM   10  C   UNL     1     -40.292  52.956 -54.694  1.00  0.00     0.032 A 
ENDROOT
BRANCH   1  11
HETATM   11  N   UNL     1     -41.394  55.057 -55.386  1.00  0.00    -0.325 N 
HETATM   12  C   UNL     1     -42.542  55.005 -56.159  1.00  0.00     0.252 C 
HETATM   13  O   UNL     1     -43.396  54.122 -56.141  1.00  0.00    -0.270 OA
HETATM   14  H   UNL     1     -40.778  55.841 -55.580  1.00  0.00     0.169 HD
BRANCH  12  15
HETATM   15  C   UNL     1     -42.624  56.151 -57.173  1.00  0.00     0.229 C 
HETATM   16  C   UNL     1     -43.104  57.487 -56.565  1.00  0.00     0.056 C 
HETATM   17  C   UNL     1     -44.110  57.383 -55.420  1.00  0.00     0.018 C 
HETATM   18  C   UNL     1     -43.752  58.047 -57.784  1.00  0.00    -0.018 A 
HETATM   19  C   UNL     1     -43.956  57.030 -58.705  1.00  0.00     0.076 A 
HETATM   20  C   UNL     1     -44.178  59.337 -58.050  1.00  0.00     0.010 A 
HETATM   21  O   UNL     1     -43.497  55.810 -58.282  1.00  0.00    -0.335 OA
HETATM   22  C   UNL     1     -44.589  57.246 -59.910  1.00  0.00     0.037 A 
HETATM   23  C   UNL     1     -45.017  58.544 -60.197  1.00  0.00     0.003 A 
HETATM   24  C   UNL     1     -44.812  59.583 -59.272  1.00  0.00     0.001 A 
ENDBRANCH  12  15
ENDBRANCH   1  11
BRANCH   8  25
HETATM   25  C   UNL     1     -41.448  54.674 -49.747  1.00  0.00     0.270 C 
HETATM   26  N   UNL     1     -40.923  54.708 -48.485  1.00  0.00    -0.365 N 
HETATM   27  H   UNL     1     -40.195  54.045 -48.246  1.00  0.00     0.159 HD
HETATM   28  H   UNL     1     -41.229  55.412 -47.832  1.00  0.00     0.159 HD
HETATM   29  O   UNL     1     -42.312  55.470 -50.101  1.00  0.00    -0.266 OA
ENDBRANCH   8  25
TORSDOF 3
ENDMDL
MODEL 9
REMARK VINA RESULT:      -7.8      2.826      8.249
REMARK  3 active torsions:
REMARK  status: ('A' for Active; 'I' for Inactive)
REMARK    1  A    between atoms: C_3  and  C_4 
REMARK       I    between atoms: C_4  and  N_5 
REMARK    2  A    between atoms: N_5  and  C_6 
REMARK    3  A    between atoms: C_13  and  C_14 
REMARK       I    between atoms: C_14  and  N_15 
ROOT
HETATM    1  C   UNL     1     -41.060  54.502 -53.817  1.00  0.00     0.035 A 
HETATM    2  C   UNL     1     -40.667  53.185 -54.100  1.00  0.00     0.046 A 
HETATM    3  C   UNL     1     -40.268  52.334 -53.049  1.00  0.00     0.030 A 
HETATM    4  C   UNL     1     -40.244  52.835 -51.755  1.00  0.00     0.063 A 
HETATM    5  N   UNL     1     -39.813  51.800 -50.974  1.00  0.00    -0.277 N 
HETATM    6  H   UNL     1     -39.668  51.807 -49.970  1.00  0.00     0.189 HD
HETATM    7  N   UNL     1     -39.581  50.656 -51.644  1.00  0.00    -0.168 NA
HETATM    8  C   UNL     1     -39.859  50.972 -52.928  1.00  0.00     0.156 A 
HETATM    9  C   UNL     1     -40.609  54.145 -51.441  1.00  0.00     0.034 A 
HETATM   10  C   UNL     1     -41.027  54.966 -52.500  1.00  0.00     0.032 A 
ENDROOT
BRANCH   1  11
HETATM   11  N   UNL     1     -41.473  55.286 -54.909  1.00  0.00    -0.325 N 
HETATM   12  C   UNL     1     -42.556  55.080 -55.748  1.00  0.00     0.252 C 
HETATM   13  O   UNL     1     -43.350  54.143 -55.698  1.00  0.00    -0.270 OA
HETATM   14  H   UNL     1     -40.897  56.091 -55.139  1.00  0.00     0.169 HD
BRANCH  12  15
HETATM   15  C   UNL     1     -42.639  56.116 -56.873  1.00  0.00     0.229 C 
HETATM   16  C   UNL     1     -43.238  57.470 -56.430  1.00  0.00     0.056 C 
HETATM   17  C   UNL     1     -44.309  57.408 -55.343  1.00  0.00     0.018 C 
HETATM   18  C   UNL     1     -43.836  57.867 -57.735  1.00  0.00    -0.018 A 
HETATM   19  C   UNL     1     -43.917  56.756 -58.562  1.00  0.00     0.076 A 
HETATM   20  C   UNL     1     -44.319  59.095 -58.153  1.00  0.00     0.010 A 
HETATM   21  O   UNL     1     -43.414  55.615 -57.994  1.00  0.00    -0.335 OA
HETATM   22  C   UNL     1     -44.481  56.815 -59.818  1.00  0.00     0.037 A 
HETATM   23  C   UNL     1     -44.965  58.049 -60.257  1.00  0.00     0.003 A 
HETATM   24  C   UNL     1     -44.884  59.182 -59.429  1.00  0.00     0.001 A 
ENDBRANCH  12  15
ENDBRANCH   1  11
BRANCH   8  25
HETATM   25  C   UNL     1     -39.752  49.979 -54.005  1.00  0.00     0.270 C 
HETATM   26  N   UNL     1     -40.911  49.780 -54.701  1.00  0.00    -0.365 N 
HETATM   27  H   UNL     1     -41.728  50.323 -54.447  1.00  0.00     0.159 HD
HETATM   28  H   UNL     1     -40.927  49.139 -55.479  1.00  0.00     0.159 HD
HETATM   29  O   UNL     1     -38.724  49.371 -54.287  1.00  0.00    -0.266 OA
ENDBRANCH   8  25
TORSDOF 3
ENDMDL
MODEL 10
REMARK VINA RESULT:      -7.8      5.067      6.993
REMARK  3 active torsions:
REMARK  status: ('A' for Active; 'I' for Inactive)
REMARK    1  A    between atoms: C_3  and  C_4 
REMARK       I    between atoms: C_4  and  N_5 
REMARK    2  A    between atoms: N_5  and  C_6 
REMARK    3  A    between atoms: C_13  and  C_14 
REMARK       I    between atoms: C_14  and  N_15 
ROOT
HETATM    1  C   UNL     1     -44.500  57.949 -52.189  1.00  0.00     0.035 A 
HETATM    2  C   UNL     1     -44.671  58.565 -50.939  1.00  0.00     0.046 A 
HETATM    3  C   UNL     1     -45.309  59.819 -50.859  1.00  0.00     0.030 A 
HETATM    4  C   UNL     1     -45.724  60.433 -52.032  1.00  0.00     0.063 A 
HETATM    5  N   UNL     1     -46.285  61.617 -51.642  1.00  0.00    -0.277 N 
HETATM    6  H   UNL     1     -46.689  62.331 -52.239  1.00  0.00     0.189 HD
HETATM    7  N   UNL     1     -46.295  61.817 -50.312  1.00  0.00    -0.168 NA
HETATM    8  C   UNL     1     -45.696  60.711 -49.816  1.00  0.00     0.156 A 
HETATM    9  C   UNL     1     -45.551  59.859 -53.293  1.00  0.00     0.034 A 
HETATM   10  C   UNL     1     -44.939  58.598 -53.345  1.00  0.00     0.032 A 
ENDROOT
BRANCH   1  11
HETATM   11  N   UNL     1     -43.882  56.685 -52.190  1.00  0.00    -0.325 N 
HETATM   12  C   UNL     1     -42.599  56.362 -52.600  1.00  0.00     0.252 C 
HETATM   13  O   UNL     1     -41.765  57.134 -53.066  1.00  0.00    -0.270 OA
HETATM   14  H   UNL     1     -44.447  55.899 -51.880  1.00  0.00     0.169 HD
BRANCH  12  15
HETATM   15  C   UNL     1     -42.313  54.859 -52.517  1.00  0.00     0.229 C 
HETATM   16  C   UNL     1     -41.682  54.419 -51.177  1.00  0.00     0.056 C 
HETATM   17  C   UNL     1     -40.754  55.429 -50.506  1.00  0.00     0.018 C 
HETATM   18  C   UNL     1     -40.906  53.254 -51.688  1.00  0.00    -0.018 A 
HETATM   19  C   UNL     1     -40.803  53.340 -53.069  1.00  0.00     0.076 A 
HETATM   20  C   UNL     1     -40.295  52.222 -50.997  1.00  0.00     0.010 A 
HETATM   21  O   UNL     1     -41.445  54.428 -53.598  1.00  0.00    -0.335 OA
HETATM   22  C   UNL     1     -40.090  52.422 -53.811  1.00  0.00     0.037 A 
HETATM   23  C   UNL     1     -39.475  51.371 -53.128  1.00  0.00     0.003 A 
HETATM   24  C   UNL     1     -39.577  51.272 -51.730  1.00  0.00     0.001 A 
ENDBRANCH  12  15
ENDBRANCH   1  11
BRANCH   8  25
HETATM   25  C   UNL     1     -45.520  60.516 -48.370  1.00  0.00     0.270 C 
HETATM   26  N   UNL     1     -44.409  61.122 -47.854  1.00  0.00    -0.365 N 
HETATM   27  H   UNL     1     -43.815  61.657 -48.478  1.00  0.00     0.159 HD
HETATM   28  H   UNL     1     -44.221  61.070 -46.865  1.00  0.00     0.159 HD
HETATM   29  O   UNL     1     -46.290  59.879 -47.658  1.00  0.00    -0.266 OA
ENDBRANCH   8  25
TORSDOF 3
ENDMDL
