MODEL 1
REMARK VINA RESULT:      -7.9      0.000      0.000
REMARK  5 active torsions:
REMARK  status: ('A' for Active; 'I' for Inactive)
REMARK    1  A    between atoms: O_2  and  C_3 
REMARK    2  A    between atoms: C_4  and  N_5 
REMARK       I    between atoms: N_5  and  C_6 
REMARK    3  A    between atoms: C_6  and  C_7 
REMARK    4  A    between atoms: C_8  and  S_9 
REMARK    5  A    between atoms: S_9  and  C_10 
ROOT
HETATM    1  C   UNL     1     -41.234  56.482 -53.991  1.00  0.00     0.068 A 
HETATM    2  C   UNL     1     -42.453  56.814 -54.573  1.00  0.00     0.113 A 
HETATM    3  N   UNL     1     -43.039  58.024 -54.361  1.00  0.00    -0.253 NA
HETATM    4  C   UNL     1     -42.389  58.909 -53.572  1.00  0.00     0.118 A 
HETATM    5  C   UNL     1     -41.169  58.655 -52.968  1.00  0.00     0.020 A 
HETATM    6  C   UNL     1     -40.579  57.415 -53.182  1.00  0.00     0.021 A 
ENDROOT
BRANCH   1   7
HETATM    7  C   UNL     1     -40.599  55.172 -54.189  1.00  0.00     0.259 C 
HETATM    8  N   UNL     1     -40.914  54.258 -53.210  1.00  0.00    -0.320 N 
HETATM    9  H   UNL     1     -41.544  54.544 -52.464  1.00  0.00     0.169 HD
HETATM   10  O   UNL     1     -39.825  55.038 -55.127  1.00  0.00    -0.267 OA
BRANCH   8  11
HETATM   11  C   UNL     1     -40.466  52.925 -53.101  1.00  0.00     0.071 A 
HETATM   12  C   UNL     1     -39.913  52.536 -51.865  1.00  0.00     0.095 A 
HETATM   13  C   UNL     1     -39.484  51.226 -51.644  1.00  0.00     0.042 A 
HETATM   14  C   UNL     1     -39.570  50.297 -52.679  1.00  0.00     0.045 A 
HETATM   15  C   UNL     1     -40.090  50.688 -53.909  1.00  0.00     0.118 A 
HETATM   16  C   UNL     1     -40.540  51.989 -54.131  1.00  0.00     0.074 A 
HETATM   17  F   UNL     1     -40.168  49.787 -54.898  1.00  0.00    -0.206 F 
BRANCH  12  18
HETATM   18  O   UNL     1     -39.848  53.469 -50.857  1.00  0.00    -0.354 OA
HETATM   19  C   UNL     1     -40.474  52.973 -49.671  1.00  0.00     0.210 C 
ENDBRANCH  12  18
ENDBRANCH   8  11
ENDBRANCH   1   7
BRANCH   2  20
HETATM   20  S   UNL     1     -43.351  55.710 -55.648  1.00  0.00    -0.070 SA
BRANCH  20  21
HETATM   21  C   UNL     1     -42.910  56.373 -57.242  1.00  0.00     0.007 A 
HETATM   22  C   UNL     1     -42.344  57.646 -57.364  1.00  0.00     0.019 A 
HETATM   23  C   UNL     1     -41.987  58.144 -58.618  1.00  0.00     0.001 A 
HETATM   24  C   UNL     1     -42.189  57.369 -59.759  1.00  0.00     0.000 A 
HETATM   25  C   UNL     1     -42.746  56.095 -59.646  1.00  0.00     0.001 A 
HETATM   26  C   UNL     1     -43.100  55.596 -58.390  1.00  0.00     0.019 A 
ENDBRANCH  20  21
ENDBRANCH   2  20
TORSDOF 5
ENDMDL
MODEL 2
REMARK VINA RESULT:      -7.9      2.324      6.546
REMARK  5 active torsions:
REMARK  status: ('A' for Active; 'I' for Inactive)
REMARK    1  A    between atoms: O_2  and  C_3 
REMARK    2  A    between atoms: C_4  and  N_5 
REMARK       I    between atoms: N_5  and  C_6 
REMARK    3  A    between atoms: C_6  and  C_7 
REMARK    4  A    between atoms: C_8  and  S_9 
REMARK    5  A    between atoms: S_9  and  C_10 
ROOT
HETATM    1  C   UNL     1     -41.348  56.936 -53.300  1.00  0.00     0.068 A 
HETATM    2  C   UNL     1     -42.031  56.163 -52.365  1.00  0.00     0.113 A 
HETATM    3  N   UNL     1     -42.051  56.493 -51.045  1.00  0.00    -0.253 NA
HETATM    4  C   UNL     1     -41.394  57.613 -50.666  1.00  0.00     0.118 A 
HETATM    5  C   UNL     1     -40.703  58.436 -51.538  1.00  0.00     0.020 A 
HETATM    6  C   UNL     1     -40.680  58.091 -52.884  1.00  0.00     0.021 A 
ENDROOT
BRANCH   1   7
HETATM    7  C   UNL     1     -41.295  56.582 -54.725  1.00  0.00     0.259 C 
HETATM    8  N   UNL     1     -42.270  57.197 -55.477  1.00  0.00    -0.320 N 
HETATM    9  H   UNL     1     -42.916  57.829 -55.010  1.00  0.00     0.169 HD
HETATM   10  O   UNL     1     -40.470  55.757 -55.089  1.00  0.00    -0.267 OA
BRANCH   8  11
HETATM   11  C   UNL     1     -42.501  57.064 -56.862  1.00  0.00     0.071 A 
HETATM   12  C   UNL     1     -42.166  58.165 -57.674  1.00  0.00     0.095 A 
HETATM   13  C   UNL     1     -42.314  58.113 -59.061  1.00  0.00     0.042 A 
HETATM   14  C   UNL     1     -42.839  56.963 -59.648  1.00  0.00     0.045 A 
HETATM   15  C   UNL     1     -43.196  55.886 -58.843  1.00  0.00     0.118 A 
HETATM   16  C   UNL     1     -43.031  55.922 -57.459  1.00  0.00     0.074 A 
HETATM   17  F   UNL     1     -43.700  54.785 -59.417  1.00  0.00    -0.206 F 
BRANCH  12  18
HETATM   18  O   UNL     1     -41.641  59.284 -57.071  1.00  0.00    -0.354 OA
HETATM   19  C   UNL     1     -41.643  60.390 -57.977  1.00  0.00     0.210 C 
ENDBRANCH  12  18
ENDBRANCH   8  11
ENDBRANCH   1   7
BRANCH   2  20
HETATM   20  S   UNL     1     -42.943  54.693 -52.798  1.00  0.00    -0.070 SA
BRANCH  20  21
HETATM   21  C   UNL     1     -41.622  53.500 -52.884  1.00  0.00     0.007 A 
HETATM   22  C   UNL     1     -40.819  53.231 -51.772  1.00  0.00     0.019 A 
HETATM   23  C   UNL     1     -39.799  52.280 -51.850  1.00  0.00     0.001 A 
HETATM   24  C   UNL     1     -39.581  51.589 -53.040  1.00  0.00     0.000 A 
HETATM   25  C   UNL     1     -40.383  51.846 -54.152  1.00  0.00     0.001 A 
HETATM   26  C   UNL     1     -41.404  52.796 -54.072  1.00  0.00     0.019 A 
ENDBRANCH  20  21
ENDBRANCH   2  20
TORSDOF 5
ENDMDL
MODEL 3
REMARK VINA RESULT:      -7.8      1.711      4.107
REMARK  5 active torsions:
REMARK  status: ('A' for Active; 'I' for Inactive)
REMARK    1  A    between atoms: O_2  and  C_3 
REMARK    2  A    between atoms: C_4  and  N_5 
REMARK       I    between atoms: N_5  and  C_6 
REMARK    3  A    between atoms: C_6  and  C_7 
REMARK    4  A    between atoms: C_8  and  S_9 
REMARK    5  A    between atoms: S_9  and  C_10 
ROOT
HETATM    1  C   UNL     1     -43.092  55.878 -55.536  1.00  0.00     0.068 A 
HETATM    2  C   UNL     1     -43.640  57.036 -54.994  1.00  0.00     0.113 A 
HETATM    3  N   UNL     1     -43.934  58.116 -55.769  1.00  0.00    -0.253 NA
HETATM    4  C   UNL     1     -43.691  58.024 -57.095  1.00  0.00     0.118 A 
HETATM    5  C   UNL     1     -43.158  56.902 -57.708  1.00  0.00     0.020 A 
HETATM    6  C   UNL     1     -42.853  55.806 -56.911  1.00  0.00     0.021 A 
ENDROOT
BRANCH   1   7
HETATM    7  C   UNL     1     -42.746  54.712 -54.712  1.00  0.00     0.259 C 
HETATM    8  N   UNL     1     -41.391  54.556 -54.527  1.00  0.00    -0.320 N 
HETATM    9  H   UNL     1     -40.763  55.236 -54.949  1.00  0.00     0.169 HD
HETATM   10  O   UNL     1     -43.648  53.976 -54.337  1.00  0.00    -0.267 OA
BRANCH   8  11
HETATM   11  C   UNL     1     -40.732  53.541 -53.803  1.00  0.00     0.071 A 
HETATM   12  C   UNL     1     -40.584  53.738 -52.417  1.00  0.00     0.095 A 
HETATM   13  C   UNL     1     -39.987  52.770 -51.607  1.00  0.00     0.042 A 
HETATM   14  C   UNL     1     -39.495  51.603 -52.189  1.00  0.00     0.045 A 
HETATM   15  C   UNL     1     -39.616  51.421 -53.564  1.00  0.00     0.118 A 
HETATM   16  C   UNL     1     -40.230  52.373 -54.375  1.00  0.00     0.074 A 
HETATM   17  F   UNL     1     -39.139  50.296 -54.114  1.00  0.00    -0.206 F 
BRANCH  12  18
HETATM   18  O   UNL     1     -41.086  54.893 -51.865  1.00  0.00    -0.354 OA
HETATM   19  C   UNL     1     -42.075  54.590 -50.878  1.00  0.00     0.210 C 
ENDBRANCH  12  18
ENDBRANCH   8  11
ENDBRANCH   1   7
BRANCH   2  20
HETATM   20  S   UNL     1     -44.016  57.216 -53.260  1.00  0.00    -0.070 SA
BRANCH  20  21
HETATM   21  C   UNL     1     -42.483  57.902 -52.662  1.00  0.00     0.007 A 
HETATM   22  C   UNL     1     -41.407  58.128 -53.525  1.00  0.00     0.019 A 
HETATM   23  C   UNL     1     -40.219  58.682 -53.044  1.00  0.00     0.001 A 
HETATM   24  C   UNL     1     -40.104  59.021 -51.697  1.00  0.00     0.000 A 
HETATM   25  C   UNL     1     -41.176  58.806 -50.831  1.00  0.00     0.001 A 
HETATM   26  C   UNL     1     -42.364  58.254 -51.313  1.00  0.00     0.019 A 
ENDBRANCH  20  21
ENDBRANCH   2  20
TORSDOF 5
ENDMDL
MODEL 4
REMARK VINA RESULT:      -7.5      2.045      2.638
REMARK  5 active torsions:
REMARK  status: ('A' for Active; 'I' for Inactive)
REMARK    1  A    between atoms: O_2  and  C_3 
REMARK    2  A    between atoms: C_4  and  N_5 
REMARK       I    between atoms: N_5  and  C_6 
REMARK    3  A    between atoms: C_6  and  C_7 
REMARK    4  A    between atoms: C_8  and  S_9 
REMARK    5  A    between atoms: S_9  and  C_10 
ROOT
HETATM    1  C   UNL     1     -43.012  57.291 -51.994  1.00  0.00     0.068 A 
HETATM    2  C   UNL     1     -43.019  58.201 -53.046  1.00  0.00     0.113 A 
HETATM    3  N   UNL     1     -44.075  59.031 -53.264  1.00  0.00    -0.253 NA
HETATM    4  C   UNL     1     -45.121  58.957 -52.410  1.00  0.00     0.118 A 
HETATM    5  C   UNL     1     -45.181  58.085 -51.336  1.00  0.00     0.020 A 
HETATM    6  C   UNL     1     -44.104  57.234 -51.123  1.00  0.00     0.021 A 
ENDROOT
BRANCH   1   7
HETATM    7  C   UNL     1     -41.892  56.370 -51.758  1.00  0.00     0.259 C 
HETATM    8  N   UNL     1     -42.179  55.064 -52.085  1.00  0.00    -0.320 N 
HETATM    9  H   UNL     1     -43.101  54.850 -52.458  1.00  0.00     0.169 HD
HETATM   10  O   UNL     1     -40.872  56.813 -51.250  1.00  0.00    -0.267 OA
BRANCH   8  11
HETATM   11  C   UNL     1     -41.333  53.941 -51.970  1.00  0.00     0.071 A 
HETATM   12  C   UNL     1     -41.111  53.439 -50.673  1.00  0.00     0.095 A 
HETATM   13  C   UNL     1     -40.327  52.303 -50.461  1.00  0.00     0.042 A 
HETATM   14  C   UNL     1     -39.722  51.680 -51.550  1.00  0.00     0.045 A 
HETATM   15  C   UNL     1     -39.919  52.193 -52.829  1.00  0.00     0.118 A 
HETATM   16  C   UNL     1     -40.718  53.313 -53.051  1.00  0.00     0.074 A 
HETATM   17  F   UNL     1     -39.332  51.585 -53.870  1.00  0.00    -0.206 F 
BRANCH  12  18
HETATM   18  O   UNL     1     -41.727  54.067 -49.616  1.00  0.00    -0.354 OA
HETATM   19  C   UNL     1     -40.767  54.434 -48.622  1.00  0.00     0.210 C 
ENDBRANCH  12  18
ENDBRANCH   8  11
ENDBRANCH   1   7
BRANCH   2  20
HETATM   20  S   UNL     1     -41.662  58.376 -54.190  1.00  0.00    -0.070 SA
BRANCH  20  21
HETATM   21  C   UNL     1     -42.239  57.366 -55.541  1.00  0.00     0.007 A 
HETATM   22  C   UNL     1     -42.626  57.939 -56.757  1.00  0.00     0.019 A 
HETATM   23  C   UNL     1     -43.058  57.132 -57.811  1.00  0.00     0.001 A 
HETATM   24  C   UNL     1     -43.101  55.748 -57.657  1.00  0.00     0.000 A 
HETATM   25  C   UNL     1     -42.709  55.169 -56.450  1.00  0.00     0.001 A 
HETATM   26  C   UNL     1     -42.274  55.976 -55.397  1.00  0.00     0.019 A 
ENDBRANCH  20  21
ENDBRANCH   2  20
TORSDOF 5
ENDMDL
MODEL 5
REMARK VINA RESULT:      -7.5      2.898      6.735
REMARK  5 active torsions:
REMARK  status: ('A' for Active; 'I' for Inactive)
REMARK    1  A    between atoms: O_2  and  C_3 
REMARK    2  A    between atoms: C_4  and  N_5 
REMARK       I    between atoms: N_5  and  C_6 
REMARK    3  A    between atoms: C_6  and  C_7 
REMARK    4  A    between atoms: C_8  and  S_9 
REMARK    5  A    between atoms: S_9  and  C_10 
ROOT
HETATM    1  C   UNL     1     -41.852  53.870 -54.270  1.00  0.00     0.068 A 
HETATM    2  C   UNL     1     -41.871  54.376 -52.974  1.00  0.00     0.113 A 
HETATM    3  N   UNL     1     -41.014  53.922 -52.019  1.00  0.00    -0.253 NA
HETATM    4  C   UNL     1     -40.125  52.967 -52.373  1.00  0.00     0.118 A 
HETATM    5  C   UNL     1     -40.039  52.424 -53.643  1.00  0.00     0.020 A 
HETATM    6  C   UNL     1     -40.921  52.885 -54.613  1.00  0.00     0.021 A 
ENDROOT
BRANCH   1   7
HETATM    7  C   UNL     1     -42.785  54.330 -55.308  1.00  0.00     0.259 C 
HETATM    8  N   UNL     1     -42.347  55.450 -55.979  1.00  0.00    -0.320 N 
HETATM    9  H   UNL     1     -41.446  55.847 -55.722  1.00  0.00     0.169 HD
HETATM   10  O   UNL     1     -43.851  53.746 -55.432  1.00  0.00    -0.267 OA
BRANCH   8  11
HETATM   11  C   UNL     1     -43.005  56.144 -57.015  1.00  0.00     0.071 A 
HETATM   12  C   UNL     1     -43.728  57.297 -56.654  1.00  0.00     0.095 A 
HETATM   13  C   UNL     1     -44.374  58.078 -57.615  1.00  0.00     0.042 A 
HETATM   14  C   UNL     1     -44.333  57.686 -58.951  1.00  0.00     0.045 A 
HETATM   15  C   UNL     1     -43.642  56.531 -59.305  1.00  0.00     0.118 A 
HETATM   16  C   UNL     1     -42.977  55.758 -58.354  1.00  0.00     0.074 A 
HETATM   17  F   UNL     1     -43.609  56.162 -60.593  1.00  0.00    -0.206 F 
BRANCH  12  18
HETATM   18  O   UNL     1     -43.745  57.668 -55.330  1.00  0.00    -0.354 OA
HETATM   19  C   UNL     1     -45.089  57.795 -54.861  1.00  0.00     0.210 C 
ENDBRANCH  12  18
ENDBRANCH   8  11
ENDBRANCH   1   7
BRANCH   2  20
HETATM   20  S   UNL     1     -42.993  55.657 -52.446  1.00  0.00    -0.070 SA
BRANCH  20  21
HETATM   21  C   UNL     1     -41.849  56.987 -52.132  1.00  0.00     0.007 A 
HETATM   22  C   UNL     1     -41.601  57.434 -50.830  1.00  0.00     0.019 A 
HETATM   23  C   UNL     1     -40.688  58.465 -50.600  1.00  0.00     0.001 A 
HETATM   24  C   UNL     1     -40.014  59.051 -51.669  1.00  0.00     0.000 A 
HETATM   25  C   UNL     1     -40.250  58.606 -52.970  1.00  0.00     0.001 A 
HETATM   26  C   UNL     1     -41.161  57.573 -53.199  1.00  0.00     0.019 A 
ENDBRANCH  20  21
ENDBRANCH   2  20
TORSDOF 5
ENDMDL
MODEL 6
REMARK VINA RESULT:      -7.2      2.799      6.638
REMARK  5 active torsions:
REMARK  status: ('A' for Active; 'I' for Inactive)
REMARK    1  A    between atoms: O_2  and  C_3 
REMARK    2  A    between atoms: C_4  and  N_5 
REMARK       I    between atoms: N_5  and  C_6 
REMARK    3  A    between atoms: C_6  and  C_7 
REMARK    4  A    between atoms: C_8  and  S_9 
REMARK    5  A    between atoms: S_9  and  C_10 
ROOT
HETATM    1  C   UNL     1     -43.427  57.118 -53.799  1.00  0.00     0.068 A 
HETATM    2  C   UNL     1     -42.304  57.425 -53.038  1.00  0.00     0.113 A 
HETATM    3  N   UNL     1     -42.410  57.979 -51.799  1.00  0.00    -0.253 NA
HETATM    4  C   UNL     1     -43.652  58.210 -51.318  1.00  0.00     0.118 A 
HETATM    5  C   UNL     1     -44.816  57.922 -52.011  1.00  0.00     0.020 A 
HETATM    6  C   UNL     1     -44.701  57.364 -53.278  1.00  0.00     0.021 A 
ENDROOT
BRANCH   1   7
HETATM    7  C   UNL     1     -43.330  56.543 -55.147  1.00  0.00     0.259 C 
HETATM    8  N   UNL     1     -43.015  57.469 -56.115  1.00  0.00    -0.320 N 
HETATM    9  H   UNL     1     -42.870  58.435 -55.833  1.00  0.00     0.169 HD
HETATM   10  O   UNL     1     -43.594  55.358 -55.294  1.00  0.00    -0.267 OA
BRANCH   8  11
HETATM   11  C   UNL     1     -42.859  57.248 -57.500  1.00  0.00     0.071 A 
HETATM   12  C   UNL     1     -42.169  58.234 -58.230  1.00  0.00     0.095 A 
HETATM   13  C   UNL     1     -41.923  58.083 -59.597  1.00  0.00     0.042 A 
HETATM   14  C   UNL     1     -42.405  56.954 -60.256  1.00  0.00     0.045 A 
HETATM   15  C   UNL     1     -43.112  55.993 -59.539  1.00  0.00     0.118 A 
HETATM   16  C   UNL     1     -43.342  56.126 -58.170  1.00  0.00     0.074 A 
HETATM   17  F   UNL     1     -43.571  54.910 -60.182  1.00  0.00    -0.206 F 
BRANCH  12  18
HETATM   18  O   UNL     1     -41.696  59.334 -57.555  1.00  0.00    -0.354 OA
HETATM   19  C   UNL     1     -41.715  60.488 -58.399  1.00  0.00     0.210 C 
ENDBRANCH  12  18
ENDBRANCH   8  11
ENDBRANCH   1   7
BRANCH   2  20
HETATM   20  S   UNL     1     -40.637  57.118 -53.595  1.00  0.00    -0.070 SA
BRANCH  20  21
HETATM   21  C   UNL     1     -40.630  55.337 -53.645  1.00  0.00     0.007 A 
HETATM   22  C   UNL     1     -40.221  54.647 -54.790  1.00  0.00     0.019 A 
HETATM   23  C   UNL     1     -40.205  53.252 -54.807  1.00  0.00     0.001 A 
HETATM   24  C   UNL     1     -40.592  52.537 -53.676  1.00  0.00     0.000 A 
HETATM   25  C   UNL     1     -40.994  53.216 -52.526  1.00  0.00     0.001 A 
HETATM   26  C   UNL     1     -41.008  54.613 -52.509  1.00  0.00     0.019 A 
ENDBRANCH  20  21
ENDBRANCH   2  20
TORSDOF 5
ENDMDL
MODEL 7
REMARK VINA RESULT:      -7.1      2.469      5.012
REMARK  5 active torsions:
REMARK  status: ('A' for Active; 'I' for Inactive)
REMARK    1  A    between atoms: O_2  and  C_3 
REMARK    2  A    between atoms: C_4  and  N_5 
REMARK       I    between atoms: N_5  and  C_6 
REMARK    3  A    between atoms: C_6  and  C_7 
REMARK    4  A    between atoms: C_8  and  S_9 
REMARK    5  A    between atoms: S_9  and  C_10 
ROOT
HETATM    1  C   UNL     1     -42.842  56.343 -54.506  1.00  0.00     0.068 A 
HETATM    2  C   UNL     1     -43.521  57.498 -54.131  1.00  0.00     0.113 A 
HETATM    3  N   UNL     1     -43.619  58.570 -54.963  1.00  0.00    -0.253 NA
HETATM    4  C   UNL     1     -43.045  58.474 -56.184  1.00  0.00     0.118 A 
HETATM    5  C   UNL     1     -42.363  57.355 -56.631  1.00  0.00     0.020 A 
HETATM    6  C   UNL     1     -42.260  56.266 -55.775  1.00  0.00     0.021 A 
ENDROOT
BRANCH   1   7
HETATM    7  C   UNL     1     -42.706  55.185 -53.612  1.00  0.00     0.259 C 
HETATM    8  N   UNL     1     -41.484  55.121 -52.983  1.00  0.00    -0.320 N 
HETATM    9  H   UNL     1     -40.803  55.854 -53.170  1.00  0.00     0.169 HD
HETATM   10  O   UNL     1     -43.624  54.379 -53.561  1.00  0.00    -0.267 OA
BRANCH   8  11
HETATM   11  C   UNL     1     -41.031  54.139 -52.078  1.00  0.00     0.071 A 
HETATM   12  C   UNL     1     -40.391  53.011 -52.626  1.00  0.00     0.095 A 
HETATM   13  C   UNL     1     -39.867  52.007 -51.809  1.00  0.00     0.042 A 
HETATM   14  C   UNL     1     -40.017  52.106 -50.427  1.00  0.00     0.045 A 
HETATM   15  C   UNL     1     -40.675  53.206 -49.887  1.00  0.00     0.118 A 
HETATM   16  C   UNL     1     -41.181  54.224 -50.695  1.00  0.00     0.074 A 
HETATM   17  F   UNL     1     -40.814  53.292 -48.556  1.00  0.00    -0.206 F 
BRANCH  12  18
HETATM   18  O   UNL     1     -40.248  52.942 -53.992  1.00  0.00    -0.354 OA
HETATM   19  C   UNL     1     -40.376  51.591 -54.443  1.00  0.00     0.210 C 
ENDBRANCH  12  18
ENDBRANCH   8  11
ENDBRANCH   1   7
BRANCH   2  20
HETATM   20  S   UNL     1     -44.328  57.683 -52.552  1.00  0.00    -0.070 SA
BRANCH  20  21
HETATM   21  C   UNL     1     -43.070  58.556 -51.640  1.00  0.00     0.007 A 
HETATM   22  C   UNL     1     -41.935  57.895 -51.161  1.00  0.00     0.019 A 
HETATM   23  C   UNL     1     -40.950  58.597 -50.465  1.00  0.00     0.001 A 
HETATM   24  C   UNL     1     -41.092  59.966 -50.248  1.00  0.00     0.000 A 
HETATM   25  C   UNL     1     -42.217  60.635 -50.729  1.00  0.00     0.001 A 
HETATM   26  C   UNL     1     -43.201  59.932 -51.428  1.00  0.00     0.019 A 
ENDBRANCH  20  21
ENDBRANCH   2  20
TORSDOF 5
ENDMDL
MODEL 8
REMARK VINA RESULT:      -7.0      2.290      3.155
REMARK  5 active torsions:
REMARK  status: ('A' for Active; 'I' for Inactive)
REMARK    1  A    between atoms: O_2  and  C_3 
REMARK    2  A    between atoms: C_4  and  N_5 
REMARK       I    between atoms: N_5  and  C_6 
REMARK    3  A    between atoms: C_6  and  C_7 
REMARK    4  A    between atoms: C_8  and  S_9 
REMARK    5  A    between atoms: S_9  and  C_10 
ROOT
HETATM    1  C   UNL     1     -42.995  57.040 -51.819  1.00  0.00     0.068 A 
HETATM    2  C   UNL     1     -42.905  58.057 -52.763  1.00  0.00     0.113 A 
HETATM    3  N   UNL     1     -43.919  58.944 -52.955  1.00  0.00    -0.253 NA
HETATM    4  C   UNL     1     -45.022  58.816 -52.183  1.00  0.00     0.118 A 
HETATM    5  C   UNL     1     -45.179  57.837 -51.217  1.00  0.00     0.020 A 
HETATM    6  C   UNL     1     -44.144  56.930 -51.030  1.00  0.00     0.021 A 
ENDROOT
BRANCH   1   7
HETATM    7  C   UNL     1     -41.920  56.059 -51.614  1.00  0.00     0.259 C 
HETATM    8  N   UNL     1     -42.191  54.828 -52.167  1.00  0.00    -0.320 N 
HETATM    9  H   UNL     1     -43.071  54.702 -52.662  1.00  0.00     0.169 HD
HETATM   10  O   UNL     1     -40.953  56.387 -50.941  1.00  0.00    -0.267 OA
BRANCH   8  11
HETATM   11  C   UNL     1     -41.379  53.675 -52.141  1.00  0.00     0.071 A 
HETATM   12  C   UNL     1     -40.866  53.226 -53.372  1.00  0.00     0.095 A 
HETATM   13  C   UNL     1     -40.015  52.121 -53.443  1.00  0.00     0.042 A 
HETATM   14  C   UNL     1     -39.701  51.427 -52.276  1.00  0.00     0.045 A 
HETATM   15  C   UNL     1     -40.231  51.854 -51.062  1.00  0.00     0.118 A 
HETATM   16  C   UNL     1     -41.063  52.969 -50.981  1.00  0.00     0.074 A 
HETATM   17  F   UNL     1     -39.923  51.180 -49.946  1.00  0.00    -0.206 F 
BRANCH  12  18
HETATM   18  O   UNL     1     -41.183  53.933 -54.508  1.00  0.00    -0.354 OA
HETATM   19  C   UNL     1     -39.998  54.399 -55.158  1.00  0.00     0.210 C 
ENDBRANCH  12  18
ENDBRANCH   8  11
ENDBRANCH   1   7
BRANCH   2  20
HETATM   20  S   UNL     1     -41.470  58.305 -53.793  1.00  0.00    -0.070 SA
BRANCH  20  21
HETATM   21  C   UNL     1     -42.185  58.084 -55.411  1.00  0.00     0.007 A 
HETATM   22  C   UNL     1     -42.212  59.131 -56.337  1.00  0.00     0.019 A 
HETATM   23  C   UNL     1     -42.760  58.937 -57.607  1.00  0.00     0.001 A 
HETATM   24  C   UNL     1     -43.278  57.692 -57.959  1.00  0.00     0.000 A 
HETATM   25  C   UNL     1     -43.248  56.641 -57.043  1.00  0.00     0.001 A 
HETATM   26  C   UNL     1     -42.697  56.835 -55.774  1.00  0.00     0.019 A 
ENDBRANCH  20  21
ENDBRANCH   2  20
TORSDOF 5
ENDMDL
MODEL 9
REMARK VINA RESULT:      -6.9      3.312      6.672
REMARK  5 active torsions:
REMARK  status: ('A' for Active; 'I' for Inactive)
REMARK    1  A    between atoms: O_2  and  C_3 
REMARK    2  A    between atoms: C_4  and  N_5 
REMARK       I    between atoms: N_5  and  C_6 
REMARK    3  A    between atoms: C_6  and  C_7 
REMARK    4  A    between atoms: C_8  and  S_9 
REMARK    5  A    between atoms: S_9  and  C_10 
ROOT
HETATM    1  C   UNL     1     -43.111  58.370 -54.521  1.00  0.00     0.068 A 
HETATM    2  C   UNL     1     -42.913  57.634 -53.358  1.00  0.00     0.113 A 
HETATM    3  N   UNL     1     -42.205  58.134 -52.309  1.00  0.00    -0.253 NA
HETATM    4  C   UNL     1     -41.708  59.387 -52.425  1.00  0.00     0.118 A 
HETATM    5  C   UNL     1     -41.874  60.183 -53.546  1.00  0.00     0.020 A 
HETATM    6  C   UNL     1     -42.591  59.664 -54.616  1.00  0.00     0.021 A 
ENDROOT
BRANCH   1   7
HETATM    7  C   UNL     1     -43.851  57.836 -55.673  1.00  0.00     0.259 C 
HETATM    8  N   UNL     1     -43.040  57.471 -56.723  1.00  0.00    -0.320 N 
HETATM    9  H   UNL     1     -42.034  57.584 -56.620  1.00  0.00     0.169 HD
HETATM   10  O   UNL     1     -45.073  57.829 -55.626  1.00  0.00    -0.267 OA
BRANCH   8  11
HETATM   11  C   UNL     1     -43.431  56.938 -57.969  1.00  0.00     0.071 A 
HETATM   12  C   UNL     1     -43.621  57.852 -59.023  1.00  0.00     0.095 A 
HETATM   13  C   UNL     1     -43.964  57.418 -60.305  1.00  0.00     0.042 A 
HETATM   14  C   UNL     1     -44.158  56.057 -60.535  1.00  0.00     0.045 A 
HETATM   15  C   UNL     1     -43.998  55.157 -59.486  1.00  0.00     0.118 A 
HETATM   16  C   UNL     1     -43.635  55.580 -58.208  1.00  0.00     0.074 A 
HETATM   17  F   UNL     1     -44.187  53.850 -59.717  1.00  0.00    -0.206 F 
BRANCH  12  18
HETATM   18  O   UNL     1     -43.415  59.188 -58.773  1.00  0.00    -0.354 OA
HETATM   19  C   UNL     1     -42.337  59.688 -59.569  1.00  0.00     0.210 C 
ENDBRANCH  12  18
ENDBRANCH   8  11
ENDBRANCH   1   7
BRANCH   2  20
HETATM   20  S   UNL     1     -43.565  55.990 -53.123  1.00  0.00    -0.070 SA
BRANCH  20  21
HETATM   21  C   UNL     1     -42.228  55.010 -53.777  1.00  0.00     0.007 A 
HETATM   22  C   UNL     1     -42.273  53.613 -53.744  1.00  0.00     0.019 A 
HETATM   23  C   UNL     1     -41.226  52.859 -54.277  1.00  0.00     0.001 A 
HETATM   24  C   UNL     1     -40.129  53.499 -54.851  1.00  0.00     0.000 A 
HETATM   25  C   UNL     1     -40.079  54.892 -54.895  1.00  0.00     0.001 A 
HETATM   26  C   UNL     1     -41.129  55.645 -54.364  1.00  0.00     0.019 A 
ENDBRANCH  20  21
ENDBRANCH   2  20
TORSDOF 5
ENDMDL
MODEL 10
REMARK VINA RESULT:      -6.8      3.437      4.582
REMARK  5 active torsions:
REMARK  status: ('A' for Active; 'I' for Inactive)
REMARK    1  A    between atoms: O_2  and  C_3 
REMARK    2  A    between atoms: C_4  and  N_5 
REMARK       I    between atoms: N_5  and  C_6 
REMARK    3  A    between atoms: C_6  and  C_7 
REMARK    4  A    between atoms: C_8  and  S_9 
REMARK    5  A    between atoms: S_9  and  C_10 
ROOT
HETATM    1  C   UNL     1     -41.880  59.703 -51.275  1.00  0.00     0.068 A 
HETATM    2  C   UNL     1     -42.124  60.127 -52.577  1.00  0.00     0.113 A 
HETATM    3  N   UNL     1     -42.829  61.262 -52.837  1.00  0.00    -0.253 NA
HETATM    4  C   UNL     1     -43.276  61.981 -51.783  1.00  0.00     0.118 A 
HETATM    5  C   UNL     1     -43.064  61.628 -50.461  1.00  0.00     0.020 A 
HETATM    6  C   UNL     1     -42.350  60.465 -50.202  1.00  0.00     0.021 A 
ENDROOT
BRANCH   1   7
HETATM    7  C   UNL     1     -41.142  58.469 -50.975  1.00  0.00     0.259 C 
HETATM    8  N   UNL     1     -41.954  57.365 -50.841  1.00  0.00    -0.320 N 
HETATM    9  H   UNL     1     -42.957  57.484 -50.964  1.00  0.00     0.169 HD
HETATM   10  O   UNL     1     -39.932  58.540 -50.810  1.00  0.00    -0.267 OA
BRANCH   8  11
HETATM   11  C   UNL     1     -41.566  56.042 -50.545  1.00  0.00     0.071 A 
HETATM   12  C   UNL     1     -41.477  55.145 -51.627  1.00  0.00     0.095 A 
HETATM   13  C   UNL     1     -41.057  53.826 -51.442  1.00  0.00     0.042 A 
HETATM   14  C   UNL     1     -40.757  53.381 -50.156  1.00  0.00     0.045 A 
HETATM   15  C   UNL     1     -40.872  54.259 -49.083  1.00  0.00     0.118 A 
HETATM   16  C   UNL     1     -41.270  55.583 -49.263  1.00  0.00     0.074 A 
HETATM   17  F   UNL     1     -40.582  53.821 -47.850  1.00  0.00    -0.206 F 
BRANCH  12  18
HETATM   18  O   UNL     1     -41.770  55.612 -52.887  1.00  0.00    -0.354 OA
HETATM   19  C   UNL     1     -40.762  55.210 -53.818  1.00  0.00     0.210 C 
ENDBRANCH  12  18
ENDBRANCH   8  11
ENDBRANCH   1   7
BRANCH   2  20
HETATM   20  S   UNL     1     -41.537  59.248 -54.013  1.00  0.00    -0.070 SA
BRANCH  20  21
HETATM   21  C   UNL     1     -43.082  58.861 -54.815  1.00  0.00     0.007 A 
HETATM   22  C   UNL     1     -43.413  59.421 -56.053  1.00  0.00     0.019 A 
HETATM   23  C   UNL     1     -44.619  59.094 -56.675  1.00  0.00     0.001 A 
HETATM   24  C   UNL     1     -45.498  58.201 -56.067  1.00  0.00     0.000 A 
HETATM   25  C   UNL     1     -45.172  57.632 -54.836  1.00  0.00     0.001 A 
HETATM   26  C   UNL     1     -43.964  57.957 -54.214  1.00  0.00     0.019 A 
ENDBRANCH  20  21
ENDBRANCH   2  20
TORSDOF 5
ENDMDL
