MODEL 1
REMARK VINA RESULT:      -8.5      0.000      0.000
REMARK  9 active torsions:
REMARK  status: ('A' for Active; 'I' for Inactive)
REMARK    1  A    between atoms: C_7  and  O_8 
REMARK    2  A    between atoms: O_8  and  C_9 
REMARK    3  A    between atoms: C_9  and  C_10 
REMARK    4  A    between atoms: C_10  and  O_11 
REMARK    5  A    between atoms: C_10  and  C_12 
REMARK    6  A    between atoms: C_12  and  N_13 
REMARK    7  A    between atoms: N_18  and  C_19 
REMARK    8  A    between atoms: C_19  and  C_20 
REMARK    9  A    between atoms: C_20  and  N_21 
ROOT
HETATM    1  N   UNL     1     -41.958  56.146 -50.870  1.00  0.00    -0.179 N 
HETATM    2  C   UNL     1     -41.559  57.463 -50.996  1.00  0.00     0.681 A 
HETATM    3  N   UNL     1     -41.091  58.215 -50.001  1.00  0.00    -0.234 N 
HETATM    4  H   UNL     1     -40.881  59.195 -50.060  1.00  0.00     0.174 HD
HETATM    5  H   UNL     1     -41.111  57.815 -49.055  1.00  0.00     0.174 HD
HETATM    6  N   UNL     1     -41.707  57.965 -52.290  1.00  0.00    -0.180 N 
HETATM    7  C   UNL     1     -42.328  56.904 -53.016  1.00  0.00     0.079 A 
HETATM    8  C   UNL     1     -42.474  55.802 -52.160  1.00  0.00     0.079 A 
HETATM    9  C   UNL     1     -42.767  56.875 -54.323  1.00  0.00     0.032 A 
HETATM   10  C   UNL     1     -43.372  55.694 -54.765  1.00  0.00     0.002 A 
HETATM   11  C   UNL     1     -43.519  54.586 -53.908  1.00  0.00     0.002 A 
HETATM   12  C   UNL     1     -43.066  54.632 -52.584  1.00  0.00     0.032 A 
ENDROOT
BRANCH   1  13
HETATM   13  C   UNL     1     -41.948  55.203 -49.720  1.00  0.00     0.181 C 
BRANCH  13  14
HETATM   14  C   UNL     1     -40.633  55.103 -48.935  1.00  0.00     0.161 C 
BRANCH  14  15
HETATM   15  C   UNL     1     -39.607  54.215 -49.659  1.00  0.00     0.209 C 
BRANCH  15  16
HETATM   16  O   UNL     1     -40.225  52.929 -49.786  1.00  0.00    -0.349 OA
BRANCH  16  17
HETATM   17  C   UNL     1     -40.106  52.295 -50.991  1.00  0.00     0.069 A 
HETATM   18  C   UNL     1     -39.777  50.942 -50.906  1.00  0.00     0.038 A 
HETATM   19  C   UNL     1     -39.624  50.177 -52.064  1.00  0.00     0.027 A 
HETATM   20  C   UNL     1     -39.793  50.765 -53.317  1.00  0.00     0.040 A 
HETATM   21  C   UNL     1     -40.118  52.126 -53.425  1.00  0.00    -0.038 A 
HETATM   22 CL   UNL     1     -39.582  49.769 -54.711  1.00  0.00    -0.084 Cl
HETATM   23  C   UNL     1     -40.284  52.792 -54.763  1.00  0.00     0.050 C 
HETATM   24  C   UNL     1     -40.267  52.885 -52.248  1.00  0.00     0.045 A 
ENDBRANCH  16  17
ENDBRANCH  15  16
ENDBRANCH  14  15
BRANCH  14  25
HETATM   25  O   UNL     1     -40.894  54.544 -47.631  1.00  0.00    -0.392 OA
HETATM   26  H   UNL     1     -41.326  55.270 -47.120  1.00  0.00     0.210 HD
ENDBRANCH  14  25
ENDBRANCH  13  14
ENDBRANCH   1  13
BRANCH   6  27
HETATM   27  C   UNL     1     -41.453  59.324 -52.783  1.00  0.00     0.175 C 
BRANCH  27  28
HETATM   28  C   UNL     1     -42.723  60.202 -52.792  1.00  0.00     0.256 C 
BRANCH  28  29
HETATM   29  N   UNL     1     -43.660  59.900 -51.638  1.00  0.00    -0.066 N 
HETATM   30  H   UNL     1     -43.231  59.206 -51.008  1.00  0.00     0.280 HD
HETATM   31  C   UNL     1     -43.895  61.159 -50.776  1.00  0.00     0.261 C 
HETATM   32  C   UNL     1     -44.832  60.822 -49.612  1.00  0.00     0.195 C 
HETATM   33  O   UNL     1     -46.075  60.309 -50.100  1.00  0.00    -0.388 OA
HETATM   34  C   UNL     1     -45.904  59.100 -50.840  1.00  0.00     0.195 C 
HETATM   35  C   UNL     1     -45.022  59.338 -52.073  1.00  0.00     0.261 C 
ENDBRANCH  28  29
ENDBRANCH  27  28
ENDBRANCH   6  27
TORSDOF 9
ENDMDL
MODEL 2
REMARK VINA RESULT:      -8.2      3.387      5.385
REMARK  9 active torsions:
REMARK  status: ('A' for Active; 'I' for Inactive)
REMARK    1  A    between atoms: C_7  and  O_8 
REMARK    2  A    between atoms: O_8  and  C_9 
REMARK    3  A    between atoms: C_9  and  C_10 
REMARK    4  A    between atoms: C_10  and  O_11 
REMARK    5  A    between atoms: C_10  and  C_12 
REMARK    6  A    between atoms: C_12  and  N_13 
REMARK    7  A    between atoms: N_18  and  C_19 
REMARK    8  A    between atoms: C_19  and  C_20 
REMARK    9  A    between atoms: C_20  and  N_21 
ROOT
HETATM    1  N   UNL     1     -44.098  57.350 -52.366  1.00  0.00    -0.179 N 
HETATM    2  C   UNL     1     -44.374  57.154 -53.706  1.00  0.00     0.681 A 
HETATM    3  N   UNL     1     -44.721  55.988 -54.250  1.00  0.00    -0.234 N 
HETATM    4  H   UNL     1     -44.837  55.815 -55.231  1.00  0.00     0.174 HD
HETATM    5  H   UNL     1     -44.696  55.158 -53.645  1.00  0.00     0.174 HD
HETATM    6  N   UNL     1     -44.239  58.312 -54.474  1.00  0.00    -0.180 N 
HETATM    7  C   UNL     1     -43.757  59.294 -53.557  1.00  0.00     0.079 A 
HETATM    8  C   UNL     1     -43.679  58.716 -52.281  1.00  0.00     0.079 A 
HETATM    9  C   UNL     1     -43.384  60.602 -53.788  1.00  0.00     0.032 A 
HETATM   10  C   UNL     1     -42.917  61.334 -52.692  1.00  0.00     0.002 A 
HETATM   11  C   UNL     1     -42.838  60.755 -51.410  1.00  0.00     0.002 A 
HETATM   12  C   UNL     1     -43.222  59.427 -51.193  1.00  0.00     0.032 A 
ENDROOT
BRANCH   1  13
HETATM   13  C   UNL     1     -44.146  56.439 -51.192  1.00  0.00     0.181 C 
BRANCH  13  14
HETATM   14  C   UNL     1     -43.206  55.227 -51.232  1.00  0.00     0.161 C 
BRANCH  14  15
HETATM   15  C   UNL     1     -41.903  55.546 -51.985  1.00  0.00     0.209 C 
BRANCH  15  16
HETATM   16  O   UNL     1     -40.881  54.781 -51.336  1.00  0.00    -0.349 OA
BRANCH  16  17
HETATM   17  C   UNL     1     -40.508  53.606 -51.929  1.00  0.00     0.069 A 
HETATM   18  C   UNL     1     -40.553  53.619 -53.324  1.00  0.00     0.038 A 
HETATM   19  C   UNL     1     -40.199  52.484 -54.054  1.00  0.00     0.027 A 
HETATM   20  C   UNL     1     -39.802  51.323 -53.390  1.00  0.00     0.040 A 
HETATM   21  C   UNL     1     -39.757  51.286 -51.988  1.00  0.00    -0.038 A 
HETATM   22 CL   UNL     1     -39.384  49.949 -54.347  1.00  0.00    -0.084 Cl
HETATM   23  C   UNL     1     -39.355  50.042 -51.245  1.00  0.00     0.050 C 
HETATM   24  C   UNL     1     -40.119  52.440 -51.266  1.00  0.00     0.045 A 
ENDBRANCH  16  17
ENDBRANCH  15  16
ENDBRANCH  14  15
BRANCH  14  25
HETATM   25  O   UNL     1     -43.868  54.128 -51.893  1.00  0.00    -0.392 OA
HETATM   26  H   UNL     1     -43.355  53.978 -52.723  1.00  0.00     0.210 HD
ENDBRANCH  14  25
ENDBRANCH  13  14
ENDBRANCH   1  13
BRANCH   6  27
HETATM   27  C   UNL     1     -44.383  58.473 -55.925  1.00  0.00     0.175 C 
BRANCH  27  28
HETATM   28  C   UNL     1     -43.031  58.419 -56.669  1.00  0.00     0.256 C 
BRANCH  28  29
HETATM   29  N   UNL     1     -43.141  57.801 -58.050  1.00  0.00    -0.066 N 
HETATM   30  H   UNL     1     -44.001  58.126 -58.515  1.00  0.00     0.280 HD
HETATM   31  C   UNL     1     -41.977  58.262 -58.954  1.00  0.00     0.261 C 
HETATM   32  C   UNL     1     -42.120  57.635 -60.344  1.00  0.00     0.195 C 
HETATM   33  O   UNL     1     -42.146  56.208 -60.250  1.00  0.00    -0.388 OA
HETATM   34  C   UNL     1     -43.257  55.740 -59.483  1.00  0.00     0.195 C 
HETATM   35  C   UNL     1     -43.181  56.266 -58.043  1.00  0.00     0.261 C 
ENDBRANCH  28  29
ENDBRANCH  27  28
ENDBRANCH   6  27
TORSDOF 9
ENDMDL
MODEL 3
REMARK VINA RESULT:      -8.2      2.753      4.350
REMARK  9 active torsions:
REMARK  status: ('A' for Active; 'I' for Inactive)
REMARK    1  A    between atoms: C_7  and  O_8 
REMARK    2  A    between atoms: O_8  and  C_9 
REMARK    3  A    between atoms: C_9  and  C_10 
REMARK    4  A    between atoms: C_10  and  O_11 
REMARK    5  A    between atoms: C_10  and  C_12 
REMARK    6  A    between atoms: C_12  and  N_13 
REMARK    7  A    between atoms: N_18  and  C_19 
REMARK    8  A    between atoms: C_19  and  C_20 
REMARK    9  A    between atoms: C_20  and  N_21 
ROOT
HETATM    1  N   UNL     1     -43.664  55.757 -54.417  1.00  0.00    -0.179 N 
HETATM    2  C   UNL     1     -44.086  57.071 -54.494  1.00  0.00     0.681 A 
HETATM    3  N   UNL     1     -44.154  57.785 -55.617  1.00  0.00    -0.234 N 
HETATM    4  H   UNL     1     -44.373  58.762 -55.673  1.00  0.00     0.174 HD
HETATM    5  H   UNL     1     -43.782  57.356 -56.473  1.00  0.00     0.174 HD
HETATM    6  N   UNL     1     -44.431  57.615 -53.255  1.00  0.00    -0.180 N 
HETATM    7  C   UNL     1     -44.120  56.587 -52.315  1.00  0.00     0.079 A 
HETATM    8  C   UNL     1     -43.663  55.461 -53.016  1.00  0.00     0.079 A 
HETATM    9  C   UNL     1     -44.197  56.605 -50.938  1.00  0.00     0.032 A 
HETATM   10  C   UNL     1     -43.796  55.448 -50.262  1.00  0.00     0.002 A 
HETATM   11  C   UNL     1     -43.338  54.317 -50.965  1.00  0.00     0.002 A 
HETATM   12  C   UNL     1     -43.267  54.315 -52.363  1.00  0.00     0.032 A 
ENDROOT
BRANCH   1  13
HETATM   13  C   UNL     1     -43.243  54.780 -55.455  1.00  0.00     0.181 C 
BRANCH  13  14
HETATM   14  C   UNL     1     -41.858  55.002 -56.077  1.00  0.00     0.161 C 
BRANCH  14  15
HETATM   15  C   UNL     1     -40.732  54.719 -55.069  1.00  0.00     0.209 C 
BRANCH  15  16
HETATM   16  O   UNL     1     -40.391  53.339 -55.242  1.00  0.00    -0.349 OA
BRANCH  16  17
HETATM   17  C   UNL     1     -40.178  52.601 -54.111  1.00  0.00     0.069 A 
HETATM   18  C   UNL     1     -39.911  51.251 -54.339  1.00  0.00     0.038 A 
HETATM   19  C   UNL     1     -39.676  50.386 -53.269  1.00  0.00     0.027 A 
HETATM   20  C   UNL     1     -39.713  50.867 -51.960  1.00  0.00     0.040 A 
HETATM   21  C   UNL     1     -39.986  52.221 -51.709  1.00  0.00    -0.038 A 
HETATM   22 CL   UNL     1     -39.423  49.747 -50.680  1.00  0.00    -0.084 Cl
HETATM   23  C   UNL     1     -40.054  52.763 -50.307  1.00  0.00     0.050 C 
HETATM   24  C   UNL     1     -40.223  53.081 -52.799  1.00  0.00     0.045 A 
ENDBRANCH  16  17
ENDBRANCH  15  16
ENDBRANCH  14  15
BRANCH  14  25
HETATM   25  O   UNL     1     -41.748  56.369 -56.527  1.00  0.00    -0.392 OA
HETATM   26  H   UNL     1     -41.138  56.337 -57.304  1.00  0.00     0.210 HD
ENDBRANCH  14  25
ENDBRANCH  13  14
ENDBRANCH   1  13
BRANCH   6  27
HETATM   27  C   UNL     1     -44.854  58.984 -52.940  1.00  0.00     0.175 C 
BRANCH  27  28
HETATM   28  C   UNL     1     -43.677  59.983 -52.918  1.00  0.00     0.256 C 
BRANCH  28  29
HETATM   29  N   UNL     1     -42.388  59.366 -52.409  1.00  0.00    -0.066 N 
HETATM   30  H   UNL     1     -42.534  58.369 -52.194  1.00  0.00     0.280 HD
HETATM   31  C   UNL     1     -41.293  59.403 -53.498  1.00  0.00     0.261 C 
HETATM   32  C   UNL     1     -40.009  58.763 -52.962  1.00  0.00     0.195 C 
HETATM   33  O   UNL     1     -39.565  59.438 -51.782  1.00  0.00    -0.388 OA
HETATM   34  C   UNL     1     -40.523  59.359 -50.726  1.00  0.00     0.195 C 
HETATM   35  C   UNL     1     -41.840  60.029 -51.137  1.00  0.00     0.261 C 
ENDBRANCH  28  29
ENDBRANCH  27  28
ENDBRANCH   6  27
TORSDOF 9
ENDMDL
MODEL 4
REMARK VINA RESULT:      -8.1      2.546      4.044
REMARK  9 active torsions:
REMARK  status: ('A' for Active; 'I' for Inactive)
REMARK    1  A    between atoms: C_7  and  O_8 
REMARK    2  A    between atoms: O_8  and  C_9 
REMARK    3  A    between atoms: C_9  and  C_10 
REMARK    4  A    between atoms: C_10  and  O_11 
REMARK    5  A    between atoms: C_10  and  C_12 
REMARK    6  A    between atoms: C_12  and  N_13 
REMARK    7  A    between atoms: N_18  and  C_19 
REMARK    8  A    between atoms: C_19  and  C_20 
REMARK    9  A    between atoms: C_20  and  N_21 
ROOT
HETATM    1  N   UNL     1     -42.219  55.567 -50.866  1.00  0.00    -0.179 N 
HETATM    2  C   UNL     1     -42.861  55.114 -52.003  1.00  0.00     0.681 A 
HETATM    3  N   UNL     1     -43.526  53.962 -52.095  1.00  0.00    -0.234 N 
HETATM    4  H   UNL     1     -43.920  53.583 -52.936  1.00  0.00     0.174 HD
HETATM    5  H   UNL     1     -43.484  53.326 -51.289  1.00  0.00     0.174 HD
HETATM    6  N   UNL     1     -42.739  55.980 -53.091  1.00  0.00    -0.180 N 
HETATM    7  C   UNL     1     -41.879  57.020 -52.623  1.00  0.00     0.079 A 
HETATM    8  C   UNL     1     -41.571  56.775 -51.277  1.00  0.00     0.079 A 
HETATM    9  C   UNL     1     -41.367  58.105 -53.302  1.00  0.00     0.032 A 
HETATM   10  C   UNL     1     -40.517  58.958 -52.590  1.00  0.00     0.002 A 
HETATM   11  C   UNL     1     -40.206  58.713 -51.238  1.00  0.00     0.002 A 
HETATM   12  C   UNL     1     -40.737  57.608 -50.564  1.00  0.00     0.032 A 
ENDROOT
BRANCH   1  13
HETATM   13  C   UNL     1     -42.112  55.013 -49.490  1.00  0.00     0.181 C 
BRANCH  13  14
HETATM   14  C   UNL     1     -40.715  55.031 -48.857  1.00  0.00     0.161 C 
BRANCH  14  15
HETATM   15  C   UNL     1     -39.712  54.197 -49.673  1.00  0.00     0.209 C 
BRANCH  15  16
HETATM   16  O   UNL     1     -40.303  52.900 -49.808  1.00  0.00    -0.349 OA
BRANCH  16  17
HETATM   17  C   UNL     1     -40.146  52.264 -51.008  1.00  0.00     0.069 A 
HETATM   18  C   UNL     1     -39.834  50.908 -50.911  1.00  0.00     0.038 A 
HETATM   19  C   UNL     1     -39.646  50.141 -52.062  1.00  0.00     0.027 A 
HETATM   20  C   UNL     1     -39.762  50.730 -53.321  1.00  0.00     0.040 A 
HETATM   21  C   UNL     1     -40.069  52.094 -53.440  1.00  0.00    -0.038 A 
HETATM   22 CL   UNL     1     -39.510  49.732 -54.705  1.00  0.00    -0.084 Cl
HETATM   23  C   UNL     1     -40.179  52.761 -54.784  1.00  0.00     0.050 C 
HETATM   24  C   UNL     1     -40.255  52.855 -52.270  1.00  0.00     0.045 A 
ENDBRANCH  16  17
ENDBRANCH  15  16
ENDBRANCH  14  15
BRANCH  14  25
HETATM   25  O   UNL     1     -40.787  54.494 -47.519  1.00  0.00    -0.392 OA
HETATM   26  H   UNL     1     -39.954  54.787 -47.078  1.00  0.00     0.210 HD
ENDBRANCH  14  25
ENDBRANCH  13  14
ENDBRANCH   1  13
BRANCH   6  27
HETATM   27  C   UNL     1     -43.225  55.805 -54.464  1.00  0.00     0.175 C 
BRANCH  27  28
HETATM   28  C   UNL     1     -44.277  56.861 -54.865  1.00  0.00     0.256 C 
BRANCH  28  29
HETATM   29  N   UNL     1     -44.241  57.200 -56.343  1.00  0.00    -0.066 N 
HETATM   30  H   UNL     1     -45.163  57.027 -56.767  1.00  0.00     0.280 HD
HETATM   31  C   UNL     1     -43.957  58.703 -56.556  1.00  0.00     0.261 C 
HETATM   32  C   UNL     1     -43.941  59.019 -58.055  1.00  0.00     0.195 C 
HETATM   33  O   UNL     1     -42.958  58.225 -58.724  1.00  0.00    -0.388 OA
HETATM   34  C   UNL     1     -43.231  56.827 -58.613  1.00  0.00     0.195 C 
HETATM   35  C   UNL     1     -43.213  56.387 -57.143  1.00  0.00     0.261 C 
ENDBRANCH  28  29
ENDBRANCH  27  28
ENDBRANCH   6  27
TORSDOF 9
ENDMDL
MODEL 5
REMARK VINA RESULT:      -8.1      3.733      8.167
REMARK  9 active torsions:
REMARK  status: ('A' for Active; 'I' for Inactive)
REMARK    1  A    between atoms: C_7  and  O_8 
REMARK    2  A    between atoms: O_8  and  C_9 
REMARK    3  A    between atoms: C_9  and  C_10 
REMARK    4  A    between atoms: C_10  and  O_11 
REMARK    5  A    between atoms: C_10  and  C_12 
REMARK    6  A    between atoms: C_12  and  N_13 
REMARK    7  A    between atoms: N_18  and  C_19 
REMARK    8  A    between atoms: C_19  and  C_20 
REMARK    9  A    between atoms: C_20  and  N_21 
ROOT
HETATM    1  N   UNL     1     -43.187  56.069 -54.821  1.00  0.00    -0.179 N 
HETATM    2  C   UNL     1     -42.495  54.919 -54.492  1.00  0.00     0.681 A 
HETATM    3  N   UNL     1     -41.929  54.093 -55.371  1.00  0.00    -0.234 N 
HETATM    4  H   UNL     1     -41.501  53.213 -55.151  1.00  0.00     0.174 HD
HETATM    5  H   UNL     1     -42.095  54.278 -56.368  1.00  0.00     0.174 HD
HETATM    6  N   UNL     1     -42.449  54.674 -53.118  1.00  0.00    -0.180 N 
HETATM    7  C   UNL     1     -43.249  55.707 -52.545  1.00  0.00     0.079 A 
HETATM    8  C   UNL     1     -43.690  56.555 -53.572  1.00  0.00     0.079 A 
HETATM    9  C   UNL     1     -43.605  55.912 -51.228  1.00  0.00     0.032 A 
HETATM   10  C   UNL     1     -44.434  57.006 -50.955  1.00  0.00     0.002 A 
HETATM   11  C   UNL     1     -44.877  57.858 -51.985  1.00  0.00     0.002 A 
HETATM   12  C   UNL     1     -44.505  57.637 -53.316  1.00  0.00     0.032 A 
ENDROOT
BRANCH   1  13
HETATM   13  C   UNL     1     -43.458  56.736 -56.122  1.00  0.00     0.181 C 
BRANCH  13  14
HETATM   14  C   UNL     1     -42.335  57.622 -56.678  1.00  0.00     0.161 C 
BRANCH  14  15
HETATM   15  C   UNL     1     -42.661  59.116 -56.519  1.00  0.00     0.209 C 
BRANCH  15  16
HETATM   16  O   UNL     1     -41.571  59.677 -55.779  1.00  0.00    -0.349 OA
BRANCH  16  17
HETATM   17  C   UNL     1     -41.728  59.794 -54.426  1.00  0.00     0.069 A 
HETATM   18  C   UNL     1     -42.637  60.776 -54.030  1.00  0.00     0.038 A 
HETATM   19  C   UNL     1     -42.890  61.000 -52.675  1.00  0.00     0.027 A 
HETATM   20  C   UNL     1     -42.229  60.245 -51.707  1.00  0.00     0.040 A 
HETATM   21  C   UNL     1     -41.307  59.257 -52.084  1.00  0.00    -0.038 A 
HETATM   22 CL   UNL     1     -42.579  60.575 -50.049  1.00  0.00    -0.084 Cl
HETATM   23  C   UNL     1     -40.562  58.443 -51.061  1.00  0.00     0.050 C 
HETATM   24  C   UNL     1     -41.061  59.044 -53.455  1.00  0.00     0.045 A 
ENDBRANCH  16  17
ENDBRANCH  15  16
ENDBRANCH  14  15
BRANCH  14  25
HETATM   25  O   UNL     1     -42.146  57.334 -58.080  1.00  0.00    -0.392 OA
HETATM   26  H   UNL     1     -43.039  57.078 -58.414  1.00  0.00     0.210 HD
ENDBRANCH  14  25
ENDBRANCH  13  14
ENDBRANCH   1  13
BRANCH   6  27
HETATM   27  C   UNL     1     -41.867  53.529 -52.409  1.00  0.00     0.175 C 
BRANCH  27  28
HETATM   28  C   UNL     1     -40.323  53.564 -52.385  1.00  0.00     0.256 C 
BRANCH  28  29
HETATM   29  N   UNL     1     -39.698  52.193 -52.564  1.00  0.00    -0.066 N 
HETATM   30  H   UNL     1     -38.674  52.278 -52.630  1.00  0.00     0.280 HD
HETATM   31  C   UNL     1     -39.966  51.301 -51.333  1.00  0.00     0.261 C 
HETATM   32  C   UNL     1     -39.313  49.930 -51.535  1.00  0.00     0.195 C 
HETATM   33  O   UNL     1     -39.810  49.307 -52.722  1.00  0.00    -0.388 OA
HETATM   34  C   UNL     1     -39.513  50.069 -53.893  1.00  0.00     0.195 C 
HETATM   35  C   UNL     1     -40.174  51.452 -53.822  1.00  0.00     0.261 C 
ENDBRANCH  28  29
ENDBRANCH  27  28
ENDBRANCH   6  27
TORSDOF 9
ENDMDL
MODEL 6
REMARK VINA RESULT:      -8.1      3.509      5.522
REMARK  9 active torsions:
REMARK  status: ('A' for Active; 'I' for Inactive)
REMARK    1  A    between atoms: C_7  and  O_8 
REMARK    2  A    between atoms: O_8  and  C_9 
REMARK    3  A    between atoms: C_9  and  C_10 
REMARK    4  A    between atoms: C_10  and  O_11 
REMARK    5  A    between atoms: C_10  and  C_12 
REMARK    6  A    between atoms: C_12  and  N_13 
REMARK    7  A    between atoms: N_18  and  C_19 
REMARK    8  A    between atoms: C_19  and  C_20 
REMARK    9  A    between atoms: C_20  and  N_21 
ROOT
HETATM    1  N   UNL     1     -44.228  57.344 -52.552  1.00  0.00    -0.179 N 
HETATM    2  C   UNL     1     -44.576  56.981 -53.839  1.00  0.00     0.681 A 
HETATM    3  N   UNL     1     -44.385  55.773 -54.368  1.00  0.00    -0.234 N 
HETATM    4  H   UNL     1     -44.552  55.523 -55.325  1.00  0.00     0.174 HD
HETATM    5  H   UNL     1     -43.862  55.089 -53.807  1.00  0.00     0.174 HD
HETATM    6  N   UNL     1     -45.147  58.023 -54.573  1.00  0.00    -0.180 N 
HETATM    7  C   UNL     1     -45.074  59.153 -53.704  1.00  0.00     0.079 A 
HETATM    8  C   UNL     1     -44.526  58.743 -52.479  1.00  0.00     0.079 A 
HETATM    9  C   UNL     1     -45.432  60.464 -53.939  1.00  0.00     0.032 A 
HETATM   10  C   UNL     1     -45.221  61.377 -52.900  1.00  0.00     0.002 A 
HETATM   11  C   UNL     1     -44.671  60.967 -51.671  1.00  0.00     0.002 A 
HETATM   12  C   UNL     1     -44.315  59.632 -51.449  1.00  0.00     0.032 A 
ENDROOT
BRANCH   1  13
HETATM   13  C   UNL     1     -43.640  56.578 -51.421  1.00  0.00     0.181 C 
BRANCH  13  14
HETATM   14  C   UNL     1     -42.124  56.714 -51.223  1.00  0.00     0.161 C 
BRANCH  14  15
HETATM   15  C   UNL     1     -41.345  55.766 -52.151  1.00  0.00     0.209 C 
BRANCH  15  16
HETATM   16  O   UNL     1     -40.832  54.729 -51.307  1.00  0.00    -0.349 OA
BRANCH  16  17
HETATM   17  C   UNL     1     -40.478  53.553 -51.908  1.00  0.00     0.069 A 
HETATM   18  C   UNL     1     -40.560  53.563 -53.300  1.00  0.00     0.038 A 
HETATM   19  C   UNL     1     -40.227  52.426 -54.038  1.00  0.00     0.027 A 
HETATM   20  C   UNL     1     -39.815  51.265 -53.383  1.00  0.00     0.040 A 
HETATM   21  C   UNL     1     -39.731  51.232 -51.982  1.00  0.00    -0.038 A 
HETATM   22 CL   UNL     1     -39.425  49.890 -54.348  1.00  0.00    -0.084 Cl
HETATM   23  C   UNL     1     -39.310  49.988 -51.248  1.00  0.00     0.050 C 
HETATM   24  C   UNL     1     -40.072  52.388 -51.253  1.00  0.00     0.045 A 
ENDBRANCH  16  17
ENDBRANCH  15  16
ENDBRANCH  14  15
BRANCH  14  25
HETATM   25  O   UNL     1     -41.789  56.404 -49.854  1.00  0.00    -0.392 OA
HETATM   26  H   UNL     1     -40.981  56.938 -49.659  1.00  0.00     0.210 HD
ENDBRANCH  14  25
ENDBRANCH  13  14
ENDBRANCH   1  13
BRANCH   6  27
HETATM   27  C   UNL     1     -45.575  58.030 -55.976  1.00  0.00     0.175 C 
BRANCH  27  28
HETATM   28  C   UNL     1     -44.389  58.103 -56.961  1.00  0.00     0.256 C 
BRANCH  28  29
HETATM   29  N   UNL     1     -44.430  57.015 -58.018  1.00  0.00    -0.066 N 
HETATM   30  H   UNL     1     -44.759  56.131 -57.602  1.00  0.00     0.280 HD
HETATM   31  C   UNL     1     -45.449  57.361 -59.124  1.00  0.00     0.261 C 
HETATM   32  C   UNL     1     -45.480  56.240 -60.168  1.00  0.00     0.195 C 
HETATM   33  O   UNL     1     -44.180  56.041 -60.730  1.00  0.00    -0.388 OA
HETATM   34  C   UNL     1     -43.225  55.645 -59.745  1.00  0.00     0.195 C 
HETATM   35  C   UNL     1     -43.070  56.730 -58.672  1.00  0.00     0.261 C 
ENDBRANCH  28  29
ENDBRANCH  27  28
ENDBRANCH   6  27
TORSDOF 9
ENDMDL
MODEL 7
REMARK VINA RESULT:      -8.0      6.088      7.804
REMARK  9 active torsions:
REMARK  status: ('A' for Active; 'I' for Inactive)
REMARK    1  A    between atoms: C_7  and  O_8 
REMARK    2  A    between atoms: O_8  and  C_9 
REMARK    3  A    between atoms: C_9  and  C_10 
REMARK    4  A    between atoms: C_10  and  O_11 
REMARK    5  A    between atoms: C_10  and  C_12 
REMARK    6  A    between atoms: C_12  and  N_13 
REMARK    7  A    between atoms: N_18  and  C_19 
REMARK    8  A    between atoms: C_19  and  C_20 
REMARK    9  A    between atoms: C_20  and  N_21 
ROOT
HETATM    1  N   UNL     1     -43.001  55.987 -57.860  1.00  0.00    -0.179 N 
HETATM    2  C   UNL     1     -43.869  55.306 -58.692  1.00  0.00     0.681 A 
HETATM    3  N   UNL     1     -44.218  54.028 -58.548  1.00  0.00    -0.234 N 
HETATM    4  H   UNL     1     -44.776  53.500 -59.194  1.00  0.00     0.174 HD
HETATM    5  H   UNL     1     -43.739  53.487 -57.818  1.00  0.00     0.174 HD
HETATM    6  N   UNL     1     -44.356  56.086 -59.743  1.00  0.00    -0.180 N 
HETATM    7  C   UNL     1     -43.672  57.332 -59.608  1.00  0.00     0.079 A 
HETATM    8  C   UNL     1     -42.858  57.276 -58.467  1.00  0.00     0.079 A 
HETATM    9  C   UNL     1     -43.716  58.449 -60.417  1.00  0.00     0.032 A 
HETATM   10  C   UNL     1     -42.908  59.531 -60.052  1.00  0.00     0.002 A 
HETATM   11  C   UNL     1     -42.091  59.476 -58.907  1.00  0.00     0.002 A 
HETATM   12  C   UNL     1     -42.060  58.336 -58.096  1.00  0.00     0.032 A 
ENDROOT
BRANCH   1  13
HETATM   13  C   UNL     1     -42.283  55.587 -56.621  1.00  0.00     0.181 C 
BRANCH  13  14
HETATM   14  C   UNL     1     -43.150  55.366 -55.374  1.00  0.00     0.161 C 
BRANCH  14  15
HETATM   15  C   UNL     1     -42.313  55.422 -54.085  1.00  0.00     0.209 C 
BRANCH  15  16
HETATM   16  O   UNL     1     -41.026  54.896 -54.433  1.00  0.00    -0.349 OA
BRANCH  16  17
HETATM   17  C   UNL     1     -40.635  53.742 -53.813  1.00  0.00     0.069 A 
HETATM   18  C   UNL     1     -40.481  53.847 -52.431  1.00  0.00     0.038 A 
HETATM   19  C   UNL     1     -40.084  52.742 -51.677  1.00  0.00     0.027 A 
HETATM   20  C   UNL     1     -39.832  51.522 -52.305  1.00  0.00     0.040 A 
HETATM   21  C   UNL     1     -39.974  51.397 -53.695  1.00  0.00    -0.038 A 
HETATM   22 CL   UNL     1     -39.336  50.195 -51.320  1.00  0.00    -0.084 Cl
HETATM   23  C   UNL     1     -39.687  50.100 -54.402  1.00  0.00     0.050 C 
HETATM   24  C   UNL     1     -40.374  52.522 -54.442  1.00  0.00     0.045 A 
ENDBRANCH  16  17
ENDBRANCH  15  16
ENDBRANCH  14  15
BRANCH  14  25
HETATM   25  O   UNL     1     -43.791  54.075 -55.458  1.00  0.00    -0.392 OA
HETATM   26  H   UNL     1     -43.281  53.578 -56.142  1.00  0.00     0.210 HD
ENDBRANCH  14  25
ENDBRANCH  13  14
ENDBRANCH   1  13
BRANCH   6  27
HETATM   27  C   UNL     1     -45.235  55.692 -60.849  1.00  0.00     0.175 C 
BRANCH  27  28
HETATM   28  C   UNL     1     -46.711  56.074 -60.605  1.00  0.00     0.256 C 
BRANCH  28  29
HETATM   29  N   UNL     1     -47.201  57.164 -61.539  1.00  0.00    -0.066 N 
HETATM   30  H   UNL     1     -46.520  57.312 -62.297  1.00  0.00     0.280 HD
HETATM   31  C   UNL     1     -48.515  56.744 -62.232  1.00  0.00     0.261 C 
HETATM   32  C   UNL     1     -48.979  57.856 -63.178  1.00  0.00     0.195 C 
HETATM   33  O   UNL     1     -49.161  59.081 -62.463  1.00  0.00    -0.388 OA
HETATM   34  C   UNL     1     -47.946  59.541 -61.870  1.00  0.00     0.195 C 
HETATM   35  C   UNL     1     -47.418  58.521 -60.852  1.00  0.00     0.261 C 
ENDBRANCH  28  29
ENDBRANCH  27  28
ENDBRANCH   6  27
TORSDOF 9
ENDMDL
MODEL 8
REMARK VINA RESULT:      -8.0      2.442      3.849
REMARK  9 active torsions:
REMARK  status: ('A' for Active; 'I' for Inactive)
REMARK    1  A    between atoms: C_7  and  O_8 
REMARK    2  A    between atoms: O_8  and  C_9 
REMARK    3  A    between atoms: C_9  and  C_10 
REMARK    4  A    between atoms: C_10  and  O_11 
REMARK    5  A    between atoms: C_10  and  C_12 
REMARK    6  A    between atoms: C_12  and  N_13 
REMARK    7  A    between atoms: N_18  and  C_19 
REMARK    8  A    between atoms: C_19  and  C_20 
REMARK    9  A    between atoms: C_20  and  N_21 
ROOT
HETATM    1  N   UNL     1     -43.508  56.082 -53.438  1.00  0.00    -0.179 N 
HETATM    2  C   UNL     1     -44.171  57.172 -53.967  1.00  0.00     0.681 A 
HETATM    3  N   UNL     1     -44.990  57.130 -55.018  1.00  0.00    -0.234 N 
HETATM    4  H   UNL     1     -45.406  57.927 -55.464  1.00  0.00     0.174 HD
HETATM    5  H   UNL     1     -45.064  56.239 -55.524  1.00  0.00     0.174 HD
HETATM    6  N   UNL     1     -43.891  58.368 -53.302  1.00  0.00    -0.180 N 
HETATM    7  C   UNL     1     -42.908  58.013 -52.330  1.00  0.00     0.079 A 
HETATM    8  C   UNL     1     -42.681  56.630 -52.406  1.00  0.00     0.079 A 
HETATM    9  C   UNL     1     -42.224  58.815 -51.440  1.00  0.00     0.032 A 
HETATM   10  C   UNL     1     -41.285  58.191 -50.612  1.00  0.00     0.002 A 
HETATM   11  C   UNL     1     -41.056  56.804 -50.688  1.00  0.00     0.002 A 
HETATM   12  C   UNL     1     -41.759  56.004 -51.595  1.00  0.00     0.032 A 
ENDROOT
BRANCH   1  13
HETATM   13  C   UNL     1     -43.525  54.636 -53.785  1.00  0.00     0.181 C 
BRANCH  13  14
HETATM   14  C   UNL     1     -42.781  54.235 -55.065  1.00  0.00     0.161 C 
BRANCH  14  15
HETATM   15  C   UNL     1     -41.313  54.695 -55.035  1.00  0.00     0.209 C 
BRANCH  15  16
HETATM   16  O   UNL     1     -40.530  53.511 -55.225  1.00  0.00    -0.349 OA
BRANCH  16  17
HETATM   17  C   UNL     1     -40.277  52.746 -54.120  1.00  0.00     0.069 A 
HETATM   18  C   UNL     1     -39.976  51.411 -54.394  1.00  0.00     0.038 A 
HETATM   19  C   UNL     1     -39.699  50.521 -53.355  1.00  0.00     0.027 A 
HETATM   20  C   UNL     1     -39.727  50.961 -52.032  1.00  0.00     0.040 A 
HETATM   21  C   UNL     1     -40.033  52.298 -51.735  1.00  0.00    -0.038 A 
HETATM   22 CL   UNL     1     -39.383  49.812 -50.792  1.00  0.00    -0.084 Cl
HETATM   23  C   UNL     1     -40.092  52.796 -50.316  1.00  0.00     0.050 C 
HETATM   24  C   UNL     1     -40.312  53.184 -52.794  1.00  0.00     0.045 A 
ENDBRANCH  16  17
ENDBRANCH  15  16
ENDBRANCH  14  15
BRANCH  14  25
HETATM   25  O   UNL     1     -43.432  54.832 -56.206  1.00  0.00    -0.392 OA
HETATM   26  H   UNL     1     -42.961  54.467 -56.993  1.00  0.00     0.210 HD
ENDBRANCH  14  25
ENDBRANCH  13  14
ENDBRANCH   1  13
BRANCH   6  27
HETATM   27  C   UNL     1     -44.353  59.724 -53.617  1.00  0.00     0.175 C 
BRANCH  27  28
HETATM   28  C   UNL     1     -45.703  60.065 -52.950  1.00  0.00     0.256 C 
BRANCH  28  29
HETATM   29  N   UNL     1     -45.542  60.791 -51.628  1.00  0.00    -0.066 N 
HETATM   30  H   UNL     1     -44.644  61.296 -51.609  1.00  0.00     0.280 HD
HETATM   31  C   UNL     1     -46.633  61.871 -51.456  1.00  0.00     0.261 C 
HETATM   32  C   UNL     1     -46.438  62.596 -50.121  1.00  0.00     0.195 C 
HETATM   33  O   UNL     1     -46.478  61.667 -49.035  1.00  0.00    -0.388 OA
HETATM   34  C   UNL     1     -45.434  60.696 -49.119  1.00  0.00     0.195 C 
HETATM   35  C   UNL     1     -45.568  59.866 -50.402  1.00  0.00     0.261 C 
ENDBRANCH  28  29
ENDBRANCH  27  28
ENDBRANCH   6  27
TORSDOF 9
ENDMDL
MODEL 9
REMARK VINA RESULT:      -7.6      2.876      4.412
REMARK  9 active torsions:
REMARK  status: ('A' for Active; 'I' for Inactive)
REMARK    1  A    between atoms: C_7  and  O_8 
REMARK    2  A    between atoms: O_8  and  C_9 
REMARK    3  A    between atoms: C_9  and  C_10 
REMARK    4  A    between atoms: C_10  and  O_11 
REMARK    5  A    between atoms: C_10  and  C_12 
REMARK    6  A    between atoms: C_12  and  N_13 
REMARK    7  A    between atoms: N_18  and  C_19 
REMARK    8  A    between atoms: C_19  and  C_20 
REMARK    9  A    between atoms: C_20  and  N_21 
ROOT
HETATM    1  N   UNL     1     -43.907  56.437 -54.536  1.00  0.00    -0.179 N 
HETATM    2  C   UNL     1     -43.970  56.864 -53.223  1.00  0.00     0.681 A 
HETATM    3  N   UNL     1     -43.684  56.112 -52.162  1.00  0.00    -0.234 N 
HETATM    4  H   UNL     1     -43.811  56.383 -51.204  1.00  0.00     0.174 HD
HETATM    5  H   UNL     1     -43.487  55.117 -52.327  1.00  0.00     0.174 HD
HETATM    6  N   UNL     1     -44.390  58.190 -53.092  1.00  0.00    -0.180 N 
HETATM    7  C   UNL     1     -44.695  58.600 -54.425  1.00  0.00     0.079 A 
HETATM    8  C   UNL     1     -44.397  57.544 -55.299  1.00  0.00     0.079 A 
HETATM    9  C   UNL     1     -45.218  59.794 -54.877  1.00  0.00     0.032 A 
HETATM   10  C   UNL     1     -45.443  59.911 -56.252  1.00  0.00     0.002 A 
HETATM   11  C   UNL     1     -45.144  58.851 -57.131  1.00  0.00     0.002 A 
HETATM   12  C   UNL     1     -44.613  57.647 -56.656  1.00  0.00     0.032 A 
ENDROOT
BRANCH   1  13
HETATM   13  C   UNL     1     -43.487  55.149 -55.148  1.00  0.00     0.181 C 
BRANCH  13  14
HETATM   14  C   UNL     1     -42.049  55.086 -55.682  1.00  0.00     0.161 C 
BRANCH  14  15
HETATM   15  C   UNL     1     -41.018  55.244 -54.551  1.00  0.00     0.209 C 
BRANCH  15  16
HETATM   16  O   UNL     1     -41.579  54.575 -53.416  1.00  0.00    -0.349 OA
BRANCH  16  17
HETATM   17  C   UNL     1     -40.968  53.423 -53.005  1.00  0.00     0.069 A 
HETATM   18  C   UNL     1     -40.737  53.346 -51.631  1.00  0.00     0.038 A 
HETATM   19  C   UNL     1     -40.119  52.223 -51.079  1.00  0.00     0.027 A 
HETATM   20  C   UNL     1     -39.721  51.170 -51.903  1.00  0.00     0.040 A 
HETATM   21  C   UNL     1     -39.939  51.230 -53.288  1.00  0.00    -0.038 A 
HETATM   22 CL   UNL     1     -38.955  49.812 -51.163  1.00  0.00    -0.084 Cl
HETATM   23  C   UNL     1     -39.502  50.119 -54.203  1.00  0.00     0.050 C 
HETATM   24  C   UNL     1     -40.563  52.371 -53.829  1.00  0.00     0.045 A 
ENDBRANCH  16  17
ENDBRANCH  15  16
ENDBRANCH  14  15
BRANCH  14  25
HETATM   25  O   UNL     1     -41.848  56.142 -56.646  1.00  0.00    -0.392 OA
HETATM   26  H   UNL     1     -42.731  56.278 -57.067  1.00  0.00     0.210 HD
ENDBRANCH  14  25
ENDBRANCH  13  14
ENDBRANCH   1  13
BRANCH   6  27
HETATM   27  C   UNL     1     -44.637  58.958 -51.867  1.00  0.00     0.175 C 
BRANCH  27  28
HETATM   28  C   UNL     1     -43.514  59.972 -51.561  1.00  0.00     0.256 C 
BRANCH  28  29
HETATM   29  N   UNL     1     -42.135  59.340 -51.547  1.00  0.00    -0.066 N 
HETATM   30  H   UNL     1     -42.213  58.325 -51.394  1.00  0.00     0.280 HD
HETATM   31  C   UNL     1     -41.441  59.505 -52.917  1.00  0.00     0.261 C 
HETATM   32  C   UNL     1     -40.058  58.847 -52.878  1.00  0.00     0.195 C 
HETATM   33  O   UNL     1     -39.258  59.419 -51.840  1.00  0.00    -0.388 OA
HETATM   34  C   UNL     1     -39.833  59.219 -50.548  1.00  0.00     0.195 C 
HETATM   35  C   UNL     1     -41.208  59.894 -50.455  1.00  0.00     0.261 C 
ENDBRANCH  28  29
ENDBRANCH  27  28
ENDBRANCH   6  27
TORSDOF 9
ENDMDL
MODEL 10
REMARK VINA RESULT:      -7.5      4.291      5.868
REMARK  9 active torsions:
REMARK  status: ('A' for Active; 'I' for Inactive)
REMARK    1  A    between atoms: C_7  and  O_8 
REMARK    2  A    between atoms: O_8  and  C_9 
REMARK    3  A    between atoms: C_9  and  C_10 
REMARK    4  A    between atoms: C_10  and  O_11 
REMARK    5  A    between atoms: C_10  and  C_12 
REMARK    6  A    between atoms: C_12  and  N_13 
REMARK    7  A    between atoms: N_18  and  C_19 
REMARK    8  A    between atoms: C_19  and  C_20 
REMARK    9  A    between atoms: C_20  and  N_21 
ROOT
HETATM    1  N   UNL     1     -43.345  56.693 -54.850  1.00  0.00    -0.179 N 
HETATM    2  C   UNL     1     -42.741  56.441 -56.066  1.00  0.00     0.681 A 
HETATM    3  N   UNL     1     -41.919  55.421 -56.312  1.00  0.00    -0.234 N 
HETATM    4  H   UNL     1     -41.407  55.278 -57.164  1.00  0.00     0.174 HD
HETATM    5  H   UNL     1     -41.646  54.832 -55.517  1.00  0.00     0.174 HD
HETATM    6  N   UNL     1     -43.058  57.382 -57.048  1.00  0.00    -0.180 N 
HETATM    7  C   UNL     1     -43.858  58.350 -56.368  1.00  0.00     0.079 A 
HETATM    8  C   UNL     1     -44.038  57.931 -55.041  1.00  0.00     0.079 A 
HETATM    9  C   UNL     1     -44.389  59.533 -56.837  1.00  0.00     0.032 A 
HETATM   10  C   UNL     1     -45.119  60.307 -55.928  1.00  0.00     0.002 A 
HETATM   11  C   UNL     1     -45.301  59.887 -54.596  1.00  0.00     0.002 A 
HETATM   12  C   UNL     1     -44.756  58.683 -54.138  1.00  0.00     0.032 A 
ENDROOT
BRANCH   1  13
HETATM   13  C   UNL     1     -43.332  55.960 -53.556  1.00  0.00     0.181 C 
BRANCH  13  14
HETATM   14  C   UNL     1     -42.495  56.581 -52.430  1.00  0.00     0.161 C 
BRANCH  14  15
HETATM   15  C   UNL     1     -41.103  55.933 -52.336  1.00  0.00     0.209 C 
BRANCH  15  16
HETATM   16  O   UNL     1     -41.089  54.895 -53.322  1.00  0.00    -0.349 OA
BRANCH  16  17
HETATM   17  C   UNL     1     -40.647  53.663 -52.927  1.00  0.00     0.069 A 
HETATM   18  C   UNL     1     -40.474  53.522 -51.550  1.00  0.00     0.038 A 
HETATM   19  C   UNL     1     -40.026  52.314 -51.013  1.00  0.00     0.027 A 
HETATM   20  C   UNL     1     -39.741  51.239 -51.854  1.00  0.00     0.040 A 
HETATM   21  C   UNL     1     -39.902  51.362 -53.243  1.00  0.00    -0.038 A 
HETATM   22 CL   UNL     1     -39.183  49.775 -51.132  1.00  0.00    -0.084 Cl
HETATM   23  C   UNL     1     -39.581  50.227 -54.176  1.00  0.00     0.050 C 
HETATM   24  C   UNL     1     -40.354  52.588 -53.769  1.00  0.00     0.045 A 
ENDBRANCH  16  17
ENDBRANCH  15  16
ENDBRANCH  14  15
BRANCH  14  25
HETATM   25  O   UNL     1     -43.177  56.406 -51.171  1.00  0.00    -0.392 OA
HETATM   26  H   UNL     1     -43.957  57.010 -51.213  1.00  0.00     0.210 HD
ENDBRANCH  14  25
ENDBRANCH  13  14
ENDBRANCH   1  13
BRANCH   6  27
HETATM   27  C   UNL     1     -42.559  57.478 -58.424  1.00  0.00     0.175 C 
BRANCH  27  28
HETATM   28  C   UNL     1     -43.316  56.551 -59.400  1.00  0.00     0.256 C 
BRANCH  28  29
HETATM   29  N   UNL     1     -44.795  56.877 -59.497  1.00  0.00    -0.066 N 
HETATM   30  H   UNL     1     -45.199  56.964 -58.553  1.00  0.00     0.280 HD
HETATM   31  C   UNL     1     -45.013  58.247 -60.174  1.00  0.00     0.261 C 
HETATM   32  C   UNL     1     -46.512  58.556 -60.246  1.00  0.00     0.195 C 
HETATM   33  O   UNL     1     -47.202  57.528 -60.961  1.00  0.00    -0.388 OA
HETATM   34  C   UNL     1     -47.085  56.257 -60.321  1.00  0.00     0.195 C 
HETATM   35  C   UNL     1     -45.617  55.819 -60.248  1.00  0.00     0.261 C 
ENDBRANCH  28  29
ENDBRANCH  27  28
ENDBRANCH   6  27
TORSDOF 9
ENDMDL
