MODEL 1
REMARK VINA RESULT:      -7.7      0.000      0.000
REMARK  9 active torsions:
REMARK  status: ('A' for Active; 'I' for Inactive)
REMARK    1  A    between atoms: C_2  and  C_3 
REMARK    2  A    between atoms: C_3  and  N_4 
REMARK    3  A    between atoms: C_7  and  C_8 
REMARK       I    between atoms: C_8  and  N_9 
REMARK    4  A    between atoms: N_9  and  C_10 
REMARK    5  A    between atoms: C_10  and  C_11 
REMARK    6  A    between atoms: C_13  and  O_14 
REMARK    7  A    between atoms: O_14  and  C_15 
REMARK    8  A    between atoms: C_15  and  C_16 
REMARK       I    between atoms: C_16  and  N_17 
REMARK    9  A    between atoms: C_23  and  C_24 
ROOT
HETATM    1  C   UNL     1     -41.356  57.154 -53.439  1.00  0.00     0.255 C 
HETATM    2  N   UNL     1     -42.442  57.648 -54.113  1.00  0.00    -0.353 N 
HETATM    3  O   UNL     1     -40.744  57.917 -52.694  1.00  0.00    -0.268 OA
HETATM    4  H   UNL     1     -42.621  58.622 -53.907  1.00  0.00     0.163 HD
ENDROOT
BRANCH   2   5
HETATM    5  C   UNL     1     -43.340  56.993 -55.043  1.00  0.00     0.161 C 
BRANCH   5   6
HETATM    6  C   UNL     1     -42.956  57.229 -56.486  1.00  0.00    -0.038 A 
HETATM    7  C   UNL     1     -43.107  56.243 -57.476  1.00  0.00     0.045 A 
HETATM    8  C   UNL     1     -42.769  56.489 -58.812  1.00  0.00     0.070 A 
HETATM    9  C   UNL     1     -42.281  57.743 -59.173  1.00  0.00     0.037 A 
HETATM   10  C   UNL     1     -42.138  58.740 -58.205  1.00  0.00     0.003 A 
HETATM   11  C   UNL     1     -42.476  58.487 -56.874  1.00  0.00     0.009 A 
BRANCH   8  12
HETATM   12  O   UNL     1     -42.965  55.427 -59.650  1.00  0.00    -0.342 OA
BRANCH  12  13
HETATM   13  C   UNL     1     -44.285  54.892 -59.718  1.00  0.00     0.278 C 
BRANCH  13  14
HETATM   14  C   UNL     1     -44.999  55.355 -60.988  1.00  0.00     0.239 C 
HETATM   15  N   UNL     1     -45.710  56.514 -60.886  1.00  0.00    -0.368 N 
HETATM   16  H   UNL     1     -45.672  57.068 -60.039  1.00  0.00     0.159 HD
HETATM   17  H   UNL     1     -46.171  56.881 -61.708  1.00  0.00     0.159 HD
HETATM   18  O   UNL     1     -44.961  54.726 -62.042  1.00  0.00    -0.271 OA
ENDBRANCH  13  14
ENDBRANCH  12  13
ENDBRANCH   8  12
ENDBRANCH   5   6
ENDBRANCH   2   5
BRANCH   1  19
HETATM   19  C   UNL     1     -40.960  55.779 -53.658  1.00  0.00     0.075 A 
HETATM   20  C   UNL     1     -40.243  55.289 -54.775  1.00  0.00     0.158 A 
HETATM   21  N   UNL     1     -40.036  53.976 -54.733  1.00  0.00    -0.183 NA
HETATM   22  N   UNL     1     -40.563  53.606 -53.549  1.00  0.00    -0.268 N 
HETATM   23  C   UNL     1     -41.138  54.655 -52.857  1.00  0.00     0.052 A 
BRANCH  22  24
HETATM   24  C   UNL     1     -40.476  52.206 -53.133  1.00  0.00     0.106 C 
HETATM   25  C   UNL     1     -39.432  51.959 -52.036  1.00  0.00     0.034 C 
BRANCH  24  26
HETATM   26  C   UNL     1     -40.299  51.253 -54.332  1.00  0.00     0.022 C 
HETATM   27  C   UNL     1     -39.708  49.890 -53.995  1.00  0.00     0.007 C 
ENDBRANCH  24  26
ENDBRANCH  22  24
BRANCH  23  28
HETATM   28  C   UNL     1     -41.841  54.498 -51.506  1.00  0.00     0.038 A 
HETATM   29  C   UNL     1     -42.949  55.439 -51.099  1.00  0.00     0.011 A 
HETATM   30  C   UNL     1     -43.273  54.022 -51.437  1.00  0.00     0.011 A 
ENDBRANCH  23  28
ENDBRANCH   1  19
TORSDOF 9
ENDMDL
MODEL 2
REMARK VINA RESULT:      -7.5      3.485      6.893
REMARK  9 active torsions:
REMARK  status: ('A' for Active; 'I' for Inactive)
REMARK    1  A    between atoms: C_2  and  C_3 
REMARK    2  A    between atoms: C_3  and  N_4 
REMARK    3  A    between atoms: C_7  and  C_8 
REMARK       I    between atoms: C_8  and  N_9 
REMARK    4  A    between atoms: N_9  and  C_10 
REMARK    5  A    between atoms: C_10  and  C_11 
REMARK    6  A    between atoms: C_13  and  O_14 
REMARK    7  A    between atoms: O_14  and  C_15 
REMARK    8  A    between atoms: C_15  and  C_16 
REMARK       I    between atoms: C_16  and  N_17 
REMARK    9  A    between atoms: C_23  and  C_24 
ROOT
HETATM    1  C   UNL     1     -43.954  57.771 -51.408  1.00  0.00     0.255 C 
HETATM    2  N   UNL     1     -44.021  56.730 -50.519  1.00  0.00    -0.353 N 
HETATM    3  O   UNL     1     -44.043  58.914 -50.966  1.00  0.00    -0.268 OA
HETATM    4  H   UNL     1     -44.137  57.039 -49.563  1.00  0.00     0.163 HD
ENDROOT
BRANCH   2   5
HETATM    5  C   UNL     1     -43.947  55.301 -50.748  1.00  0.00     0.161 C 
BRANCH   5   6
HETATM    6  C   UNL     1     -42.530  54.775 -50.700  1.00  0.00    -0.038 A 
HETATM    7  C   UNL     1     -42.014  53.911 -51.679  1.00  0.00     0.045 A 
HETATM    8  C   UNL     1     -40.692  53.455 -51.629  1.00  0.00     0.070 A 
HETATM    9  C   UNL     1     -39.863  53.876 -50.592  1.00  0.00     0.037 A 
HETATM   10  C   UNL     1     -40.355  54.748 -49.618  1.00  0.00     0.003 A 
HETATM   11  C   UNL     1     -41.675  55.198 -49.673  1.00  0.00     0.009 A 
BRANCH   8  12
HETATM   12  O   UNL     1     -40.344  52.613 -52.649  1.00  0.00    -0.342 OA
BRANCH  12  13
HETATM   13  C   UNL     1     -39.478  51.528 -52.327  1.00  0.00     0.278 C 
BRANCH  13  14
HETATM   14  C   UNL     1     -39.754  50.322 -53.224  1.00  0.00     0.239 C 
HETATM   15  N   UNL     1     -40.314  50.594 -54.438  1.00  0.00    -0.368 N 
HETATM   16  H   UNL     1     -40.439  51.551 -54.743  1.00  0.00     0.159 HD
HETATM   17  H   UNL     1     -40.483  49.833 -55.082  1.00  0.00     0.159 HD
HETATM   18  O   UNL     1     -39.510  49.167 -52.884  1.00  0.00    -0.271 OA
ENDBRANCH  13  14
ENDBRANCH  12  13
ENDBRANCH   8  12
ENDBRANCH   5   6
ENDBRANCH   2   5
BRANCH   1  19
HETATM   19  C   UNL     1     -43.819  57.479 -52.820  1.00  0.00     0.075 A 
HETATM   20  C   UNL     1     -44.875  57.405 -53.758  1.00  0.00     0.158 A 
HETATM   21  N   UNL     1     -44.468  57.094 -54.985  1.00  0.00    -0.183 NA
HETATM   22  N   UNL     1     -43.127  57.026 -54.871  1.00  0.00    -0.268 N 
HETATM   23  C   UNL     1     -42.678  57.248 -53.583  1.00  0.00     0.052 A 
BRANCH  22  24
HETATM   24  C   UNL     1     -42.320  56.743 -56.059  1.00  0.00     0.106 C 
HETATM   25  C   UNL     1     -42.542  57.744 -57.201  1.00  0.00     0.034 C 
BRANCH  24  26
HETATM   26  C   UNL     1     -42.470  55.281 -56.528  1.00  0.00     0.022 C 
HETATM   27  C   UNL     1     -42.389  54.235 -55.425  1.00  0.00     0.007 C 
ENDBRANCH  24  26
ENDBRANCH  22  24
BRANCH  23  28
HETATM   28  C   UNL     1     -41.204  57.188 -53.175  1.00  0.00     0.038 A 
HETATM   29  C   UNL     1     -40.322  58.408 -53.288  1.00  0.00     0.011 A 
HETATM   30  C   UNL     1     -40.720  57.910 -51.939  1.00  0.00     0.011 A 
ENDBRANCH  23  28
ENDBRANCH   1  19
TORSDOF 9
ENDMDL
MODEL 3
REMARK VINA RESULT:      -7.3      2.486      3.885
REMARK  9 active torsions:
REMARK  status: ('A' for Active; 'I' for Inactive)
REMARK    1  A    between atoms: C_2  and  C_3 
REMARK    2  A    between atoms: C_3  and  N_4 
REMARK    3  A    between atoms: C_7  and  C_8 
REMARK       I    between atoms: C_8  and  N_9 
REMARK    4  A    between atoms: N_9  and  C_10 
REMARK    5  A    between atoms: C_10  and  C_11 
REMARK    6  A    between atoms: C_13  and  O_14 
REMARK    7  A    between atoms: O_14  and  C_15 
REMARK    8  A    between atoms: C_15  and  C_16 
REMARK       I    between atoms: C_16  and  N_17 
REMARK    9  A    between atoms: C_23  and  C_24 
ROOT
HETATM    1  C   UNL     1     -43.673  55.285 -50.855  1.00  0.00     0.255 C 
HETATM    2  N   UNL     1     -43.489  56.611 -50.565  1.00  0.00    -0.353 N 
HETATM    3  O   UNL     1     -44.390  54.625 -50.105  1.00  0.00    -0.268 OA
HETATM    4  H   UNL     1     -43.988  56.904 -49.735  1.00  0.00     0.163 HD
ENDROOT
BRANCH   2   5
HETATM    5  C   UNL     1     -42.711  57.619 -51.258  1.00  0.00     0.161 C 
BRANCH   5   6
HETATM    6  C   UNL     1     -43.473  58.266 -52.392  1.00  0.00    -0.038 A 
HETATM    7  C   UNL     1     -43.100  58.106 -53.737  1.00  0.00     0.045 A 
HETATM    8  C   UNL     1     -43.834  58.693 -54.774  1.00  0.00     0.070 A 
HETATM    9  C   UNL     1     -44.967  59.444 -54.469  1.00  0.00     0.037 A 
HETATM   10  C   UNL     1     -45.361  59.601 -53.139  1.00  0.00     0.003 A 
HETATM   11  C   UNL     1     -44.624  59.014 -52.109  1.00  0.00     0.009 A 
BRANCH   8  12
HETATM   12  O   UNL     1     -43.338  58.452 -56.025  1.00  0.00    -0.342 OA
BRANCH  12  13
HETATM   13  C   UNL     1     -42.557  57.272 -56.196  1.00  0.00     0.278 C 
BRANCH  13  14
HETATM   14  C   UNL     1     -43.161  56.365 -57.268  1.00  0.00     0.239 C 
HETATM   15  N   UNL     1     -43.285  55.047 -56.938  1.00  0.00    -0.368 N 
HETATM   16  H   UNL     1     -43.073  54.730 -56.000  1.00  0.00     0.159 HD
HETATM   17  H   UNL     1     -43.712  54.414 -57.600  1.00  0.00     0.159 HD
HETATM   18  O   UNL     1     -43.505  56.776 -58.372  1.00  0.00    -0.271 OA
ENDBRANCH  13  14
ENDBRANCH  12  13
ENDBRANCH   8  12
ENDBRANCH   5   6
ENDBRANCH   2   5
BRANCH   1  19
HETATM   19  C   UNL     1     -42.994  54.716 -52.001  1.00  0.00     0.075 A 
HETATM   20  C   UNL     1     -43.529  54.588 -53.304  1.00  0.00     0.158 A 
HETATM   21  N   UNL     1     -42.695  54.005 -54.160  1.00  0.00    -0.183 NA
HETATM   22  N   UNL     1     -41.577  53.805 -53.434  1.00  0.00    -0.268 N 
HETATM   23  C   UNL     1     -41.701  54.215 -52.120  1.00  0.00     0.052 A 
BRANCH  22  24
HETATM   24  C   UNL     1     -40.404  53.210 -54.074  1.00  0.00     0.106 C 
HETATM   25  C   UNL     1     -39.955  53.955 -55.339  1.00  0.00     0.034 C 
BRANCH  24  26
HETATM   26  C   UNL     1     -40.580  51.698 -54.320  1.00  0.00     0.022 C 
HETATM   27  C   UNL     1     -39.547  50.807 -53.643  1.00  0.00     0.007 C 
ENDBRANCH  24  26
ENDBRANCH  22  24
BRANCH  23  28
HETATM   28  C   UNL     1     -40.593  54.064 -51.075  1.00  0.00     0.038 A 
HETATM   29  C   UNL     1     -40.929  53.796 -49.628  1.00  0.00     0.011 A 
HETATM   30  C   UNL     1     -40.305  52.719 -50.450  1.00  0.00     0.011 A 
ENDBRANCH  23  28
ENDBRANCH   1  19
TORSDOF 9
ENDMDL
MODEL 4
REMARK VINA RESULT:      -7.2      3.547      7.603
REMARK  9 active torsions:
REMARK  status: ('A' for Active; 'I' for Inactive)
REMARK    1  A    between atoms: C_2  and  C_3 
REMARK    2  A    between atoms: C_3  and  N_4 
REMARK    3  A    between atoms: C_7  and  C_8 
REMARK       I    between atoms: C_8  and  N_9 
REMARK    4  A    between atoms: N_9  and  C_10 
REMARK    5  A    between atoms: C_10  and  C_11 
REMARK    6  A    between atoms: C_13  and  O_14 
REMARK    7  A    between atoms: O_14  and  C_15 
REMARK    8  A    between atoms: C_15  and  C_16 
REMARK       I    between atoms: C_16  and  N_17 
REMARK    9  A    between atoms: C_23  and  C_24 
ROOT
HETATM    1  C   UNL     1     -42.826  55.564 -54.523  1.00  0.00     0.255 C 
HETATM    2  N   UNL     1     -42.093  54.533 -55.050  1.00  0.00    -0.353 N 
HETATM    3  O   UNL     1     -44.042  55.559 -54.707  1.00  0.00    -0.268 OA
HETATM    4  H   UNL     1     -42.662  53.861 -55.546  1.00  0.00     0.163 HD
ENDROOT
BRANCH   2   5
HETATM    5  C   UNL     1     -40.667  54.279 -54.995  1.00  0.00     0.161 C 
BRANCH   5   6
HETATM    6  C   UNL     1     -40.327  53.039 -54.200  1.00  0.00    -0.038 A 
HETATM    7  C   UNL     1     -40.029  53.082 -52.828  1.00  0.00     0.045 A 
HETATM    8  C   UNL     1     -39.740  51.919 -52.104  1.00  0.00     0.070 A 
HETATM    9  C   UNL     1     -39.759  50.688 -52.755  1.00  0.00     0.037 A 
HETATM   10  C   UNL     1     -40.068  50.624 -54.116  1.00  0.00     0.003 A 
HETATM   11  C   UNL     1     -40.354  51.788 -54.831  1.00  0.00     0.009 A 
BRANCH   8  12
HETATM   12  O   UNL     1     -39.463  52.129 -50.782  1.00  0.00    -0.342 OA
BRANCH  12  13
HETATM   13  C   UNL     1     -40.573  52.341 -49.913  1.00  0.00     0.278 C 
BRANCH  13  14
HETATM   14  C   UNL     1     -40.432  53.662 -49.157  1.00  0.00     0.239 C 
HETATM   15  N   UNL     1     -39.329  54.408 -49.454  1.00  0.00    -0.368 N 
HETATM   16  H   UNL     1     -38.707  54.130 -50.203  1.00  0.00     0.159 HD
HETATM   17  H   UNL     1     -39.210  55.306 -49.006  1.00  0.00     0.159 HD
HETATM   18  O   UNL     1     -41.244  54.039 -48.316  1.00  0.00    -0.271 OA
ENDBRANCH  13  14
ENDBRANCH  12  13
ENDBRANCH   8  12
ENDBRANCH   5   6
ENDBRANCH   2   5
BRANCH   1  19
HETATM   19  C   UNL     1     -42.140  56.621 -53.810  1.00  0.00     0.075 A 
HETATM   20  C   UNL     1     -41.567  57.778 -54.388  1.00  0.00     0.158 A 
HETATM   21  N   UNL     1     -40.975  58.571 -53.501  1.00  0.00    -0.183 NA
HETATM   22  N   UNL     1     -41.213  57.968 -52.320  1.00  0.00    -0.268 N 
HETATM   23  C   UNL     1     -41.912  56.782 -52.446  1.00  0.00     0.052 A 
BRANCH  22  24
HETATM   24  C   UNL     1     -40.738  58.595 -51.086  1.00  0.00     0.106 C 
HETATM   25  C   UNL     1     -41.656  59.714 -50.578  1.00  0.00     0.034 C 
BRANCH  24  26
HETATM   26  C   UNL     1     -39.268  59.050 -51.195  1.00  0.00     0.022 C 
HETATM   27  C   UNL     1     -38.789  59.965 -50.076  1.00  0.00     0.007 C 
ENDBRANCH  24  26
ENDBRANCH  22  24
BRANCH  23  28
HETATM   28  C   UNL     1     -42.277  55.882 -51.263  1.00  0.00     0.038 A 
HETATM   29  C   UNL     1     -43.697  55.811 -50.758  1.00  0.00     0.011 A 
HETATM   30  C   UNL     1     -43.112  54.640 -51.474  1.00  0.00     0.011 A 
ENDBRANCH  23  28
ENDBRANCH   1  19
TORSDOF 9
ENDMDL
MODEL 5
REMARK VINA RESULT:      -7.0      1.976      2.940
REMARK  9 active torsions:
REMARK  status: ('A' for Active; 'I' for Inactive)
REMARK    1  A    between atoms: C_2  and  C_3 
REMARK    2  A    between atoms: C_3  and  N_4 
REMARK    3  A    between atoms: C_7  and  C_8 
REMARK       I    between atoms: C_8  and  N_9 
REMARK    4  A    between atoms: N_9  and  C_10 
REMARK    5  A    between atoms: C_10  and  C_11 
REMARK    6  A    between atoms: C_13  and  O_14 
REMARK    7  A    between atoms: O_14  and  C_15 
REMARK    8  A    between atoms: C_15  and  C_16 
REMARK       I    between atoms: C_16  and  N_17 
REMARK    9  A    between atoms: C_23  and  C_24 
ROOT
HETATM    1  C   UNL     1     -40.915  58.660 -53.486  1.00  0.00     0.255 C 
HETATM    2  N   UNL     1     -41.628  59.184 -54.533  1.00  0.00    -0.353 N 
HETATM    3  O   UNL     1     -39.806  59.134 -53.250  1.00  0.00    -0.268 OA
HETATM    4  H   UNL     1     -41.138  59.932 -55.005  1.00  0.00     0.163 HD
ENDROOT
BRANCH   2   5
HETATM    5  C   UNL     1     -42.940  58.831 -55.038  1.00  0.00     0.161 C 
BRANCH   5   6
HETATM    6  C   UNL     1     -42.923  58.478 -56.508  1.00  0.00    -0.038 A 
HETATM    7  C   UNL     1     -43.890  57.645 -57.093  1.00  0.00     0.045 A 
HETATM    8  C   UNL     1     -43.871  57.351 -58.462  1.00  0.00     0.070 A 
HETATM    9  C   UNL     1     -42.878  57.905 -59.266  1.00  0.00     0.037 A 
HETATM   10  C   UNL     1     -41.916  58.748 -58.703  1.00  0.00     0.003 A 
HETATM   11  C   UNL     1     -41.941  59.036 -57.337  1.00  0.00     0.009 A 
BRANCH   8  12
HETATM   12  O   UNL     1     -44.874  56.518 -58.876  1.00  0.00    -0.342 OA
BRANCH  12  13
HETATM   13  C   UNL     1     -45.120  56.449 -60.278  1.00  0.00     0.278 C 
BRANCH  13  14
HETATM   14  C   UNL     1     -45.064  55.004 -60.773  1.00  0.00     0.239 C 
HETATM   15  N   UNL     1     -45.150  54.038 -59.814  1.00  0.00    -0.368 N 
HETATM   16  H   UNL     1     -45.338  54.286 -58.850  1.00  0.00     0.159 HD
HETATM   17  H   UNL     1     -45.153  53.067 -60.094  1.00  0.00     0.159 HD
HETATM   18  O   UNL     1     -44.931  54.709 -61.958  1.00  0.00    -0.271 OA
ENDBRANCH  13  14
ENDBRANCH  12  13
ENDBRANCH   8  12
ENDBRANCH   5   6
ENDBRANCH   2   5
BRANCH   1  19
HETATM   19  C   UNL     1     -41.479  57.558 -52.735  1.00  0.00     0.075 A 
HETATM   20  C   UNL     1     -42.272  57.668 -51.568  1.00  0.00     0.158 A 
HETATM   21  N   UNL     1     -42.636  56.491 -51.067  1.00  0.00    -0.183 NA
HETATM   22  N   UNL     1     -42.136  55.599 -51.945  1.00  0.00    -0.268 N 
HETATM   23  C   UNL     1     -41.424  56.188 -52.973  1.00  0.00     0.052 A 
BRANCH  22  24
HETATM   24  C   UNL     1     -42.384  54.172 -51.737  1.00  0.00     0.106 C 
HETATM   25  C   UNL     1     -43.747  53.877 -51.094  1.00  0.00     0.034 C 
BRANCH  24  26
HETATM   26  C   UNL     1     -41.225  53.484 -50.988  1.00  0.00     0.022 C 
HETATM   27  C   UNL     1     -40.776  54.181 -49.710  1.00  0.00     0.007 C 
ENDBRANCH  24  26
ENDBRANCH  22  24
BRANCH  23  28
HETATM   28  C   UNL     1     -40.720  55.399 -54.080  1.00  0.00     0.038 A 
HETATM   29  C   UNL     1     -41.299  54.102 -54.590  1.00  0.00     0.011 A 
HETATM   30  C   UNL     1     -41.323  55.312 -55.463  1.00  0.00     0.011 A 
ENDBRANCH  23  28
ENDBRANCH   1  19
TORSDOF 9
ENDMDL
MODEL 6
REMARK VINA RESULT:      -7.0      3.639      7.507
REMARK  9 active torsions:
REMARK  status: ('A' for Active; 'I' for Inactive)
REMARK    1  A    between atoms: C_2  and  C_3 
REMARK    2  A    between atoms: C_3  and  N_4 
REMARK    3  A    between atoms: C_7  and  C_8 
REMARK       I    between atoms: C_8  and  N_9 
REMARK    4  A    between atoms: N_9  and  C_10 
REMARK    5  A    between atoms: C_10  and  C_11 
REMARK    6  A    between atoms: C_13  and  O_14 
REMARK    7  A    between atoms: O_14  and  C_15 
REMARK    8  A    between atoms: C_15  and  C_16 
REMARK       I    between atoms: C_16  and  N_17 
REMARK    9  A    between atoms: C_23  and  C_24 
ROOT
HETATM    1  C   UNL     1     -44.009  57.127 -51.488  1.00  0.00     0.255 C 
HETATM    2  N   UNL     1     -42.871  56.841 -50.780  1.00  0.00    -0.353 N 
HETATM    3  O   UNL     1     -45.060  57.256 -50.864  1.00  0.00    -0.268 OA
HETATM    4  H   UNL     1     -43.037  56.769 -49.785  1.00  0.00     0.163 HD
ENDROOT
BRANCH   2   5
HETATM    5  C   UNL     1     -41.512  56.638 -51.240  1.00  0.00     0.161 C 
BRANCH   5   6
HETATM    6  C   UNL     1     -41.049  55.208 -51.075  1.00  0.00    -0.038 A 
HETATM    7  C   UNL     1     -40.991  54.307 -52.151  1.00  0.00     0.045 A 
HETATM    8  C   UNL     1     -40.536  52.994 -51.982  1.00  0.00     0.070 A 
HETATM    9  C   UNL     1     -40.118  52.573 -50.722  1.00  0.00     0.037 A 
HETATM   10  C   UNL     1     -40.155  53.460 -49.644  1.00  0.00     0.003 A 
HETATM   11  C   UNL     1     -40.611  54.768 -49.819  1.00  0.00     0.009 A 
BRANCH   8  12
HETATM   12  O   UNL     1     -40.549  52.239 -53.122  1.00  0.00    -0.342 OA
BRANCH  12  13
HETATM   13  C   UNL     1     -39.358  51.522 -53.438  1.00  0.00     0.278 C 
BRANCH  13  14
HETATM   14  C   UNL     1     -39.638  50.024 -53.558  1.00  0.00     0.239 C 
HETATM   15  N   UNL     1     -39.613  49.314 -52.393  1.00  0.00    -0.368 N 
HETATM   16  H   UNL     1     -39.511  49.789 -51.504  1.00  0.00     0.159 HD
HETATM   17  H   UNL     1     -39.827  48.326 -52.416  1.00  0.00     0.159 HD
HETATM   18  O   UNL     1     -39.857  49.470 -54.632  1.00  0.00    -0.271 OA
ENDBRANCH  13  14
ENDBRANCH  12  13
ENDBRANCH   8  12
ENDBRANCH   5   6
ENDBRANCH   2   5
BRANCH   1  19
HETATM   19  C   UNL     1     -43.930  57.231 -52.931  1.00  0.00     0.075 A 
HETATM   20  C   UNL     1     -43.946  56.149 -53.843  1.00  0.00     0.158 A 
HETATM   21  N   UNL     1     -43.833  56.530 -55.112  1.00  0.00    -0.183 NA
HETATM   22  N   UNL     1     -43.808  57.876 -55.042  1.00  0.00    -0.268 N 
HETATM   23  C   UNL     1     -43.862  58.355 -53.747  1.00  0.00     0.052 A 
BRANCH  22  24
HETATM   24  C   UNL     1     -43.735  58.656 -56.279  1.00  0.00     0.106 C 
HETATM   25  C   UNL     1     -44.683  58.152 -57.375  1.00  0.00     0.034 C 
BRANCH  24  26
HETATM   26  C   UNL     1     -42.286  58.807 -56.785  1.00  0.00     0.022 C 
HETATM   27  C   UNL     1     -42.072  58.456 -58.251  1.00  0.00     0.007 C 
ENDBRANCH  24  26
ENDBRANCH  22  24
BRANCH  23  28
HETATM   28  C   UNL     1     -43.809  59.843 -53.389  1.00  0.00     0.038 A 
HETATM   29  C   UNL     1     -43.118  60.309 -52.131  1.00  0.00     0.011 A 
HETATM   30  C   UNL     1     -42.504  60.603 -53.459  1.00  0.00     0.011 A 
ENDBRANCH  23  28
ENDBRANCH   1  19
TORSDOF 9
ENDMDL
MODEL 7
REMARK VINA RESULT:      -7.0      4.387      8.189
REMARK  9 active torsions:
REMARK  status: ('A' for Active; 'I' for Inactive)
REMARK    1  A    between atoms: C_2  and  C_3 
REMARK    2  A    between atoms: C_3  and  N_4 
REMARK    3  A    between atoms: C_7  and  C_8 
REMARK       I    between atoms: C_8  and  N_9 
REMARK    4  A    between atoms: N_9  and  C_10 
REMARK    5  A    between atoms: C_10  and  C_11 
REMARK    6  A    between atoms: C_13  and  O_14 
REMARK    7  A    between atoms: O_14  and  C_15 
REMARK    8  A    between atoms: C_15  and  C_16 
REMARK       I    between atoms: C_16  and  N_17 
REMARK    9  A    between atoms: C_23  and  C_24 
ROOT
HETATM    1  C   UNL     1     -44.306  57.066 -51.855  1.00  0.00     0.255 C 
HETATM    2  N   UNL     1     -43.863  55.832 -52.254  1.00  0.00    -0.353 N 
HETATM    3  O   UNL     1     -44.821  57.162 -50.742  1.00  0.00    -0.268 OA
HETATM    4  H   UNL     1     -44.016  55.116 -51.555  1.00  0.00     0.163 HD
ENDROOT
BRANCH   2   5
HETATM    5  C   UNL     1     -43.227  55.424 -53.490  1.00  0.00     0.161 C 
BRANCH   5   6
HETATM    6  C   UNL     1     -42.105  54.435 -53.269  1.00  0.00    -0.038 A 
HETATM    7  C   UNL     1     -41.388  54.367 -52.063  1.00  0.00     0.045 A 
HETATM    8  C   UNL     1     -40.369  53.427 -51.870  1.00  0.00     0.070 A 
HETATM    9  C   UNL     1     -40.066  52.529 -52.891  1.00  0.00     0.037 A 
HETATM   10  C   UNL     1     -40.779  52.572 -54.091  1.00  0.00     0.003 A 
HETATM   11  C   UNL     1     -41.793  53.513 -54.277  1.00  0.00     0.009 A 
BRANCH   8  12
HETATM   12  O   UNL     1     -39.761  53.495 -50.647  1.00  0.00    -0.342 OA
BRANCH  12  13
HETATM   13  C   UNL     1     -40.536  53.105 -49.516  1.00  0.00     0.278 C 
BRANCH  13  14
HETATM   14  C   UNL     1     -40.550  54.207 -48.457  1.00  0.00     0.239 C 
HETATM   15  N   UNL     1     -39.993  53.889 -47.253  1.00  0.00    -0.368 N 
HETATM   16  H   UNL     1     -39.517  53.005 -47.125  1.00  0.00     0.159 HD
HETATM   17  H   UNL     1     -39.947  54.596 -46.532  1.00  0.00     0.159 HD
HETATM   18  O   UNL     1     -41.045  55.314 -48.653  1.00  0.00    -0.271 OA
ENDBRANCH  13  14
ENDBRANCH  12  13
ENDBRANCH   8  12
ENDBRANCH   5   6
ENDBRANCH   2   5
BRANCH   1  19
HETATM   19  C   UNL     1     -44.181  58.185 -52.766  1.00  0.00     0.075 A 
HETATM   20  C   UNL     1     -45.172  58.634 -53.670  1.00  0.00     0.158 A 
HETATM   21  N   UNL     1     -44.780  59.669 -54.408  1.00  0.00    -0.183 NA
HETATM   22  N   UNL     1     -43.547  59.946 -53.943  1.00  0.00    -0.268 N 
HETATM   23  C   UNL     1     -43.131  59.079 -52.950  1.00  0.00     0.052 A 
BRANCH  22  24
HETATM   24  C   UNL     1     -42.808  61.079 -54.502  1.00  0.00     0.106 C 
HETATM   25  C   UNL     1     -43.304  62.441 -53.995  1.00  0.00     0.034 C 
BRANCH  24  26
HETATM   26  C   UNL     1     -42.734  61.022 -56.041  1.00  0.00     0.022 C 
HETATM   27  C   UNL     1     -42.053  59.784 -56.611  1.00  0.00     0.007 C 
ENDBRANCH  24  26
ENDBRANCH  22  24
BRANCH  23  28
HETATM   28  C   UNL     1     -41.756  59.150 -52.281  1.00  0.00     0.038 A 
HETATM   29  C   UNL     1     -41.169  57.940 -51.597  1.00  0.00     0.011 A 
HETATM   30  C   UNL     1     -40.574  58.422 -52.877  1.00  0.00     0.011 A 
ENDBRANCH  23  28
ENDBRANCH   1  19
TORSDOF 9
ENDMDL
MODEL 8
REMARK VINA RESULT:      -6.9      2.133      3.624
REMARK  9 active torsions:
REMARK  status: ('A' for Active; 'I' for Inactive)
REMARK    1  A    between atoms: C_2  and  C_3 
REMARK    2  A    between atoms: C_3  and  N_4 
REMARK    3  A    between atoms: C_7  and  C_8 
REMARK       I    between atoms: C_8  and  N_9 
REMARK    4  A    between atoms: N_9  and  C_10 
REMARK    5  A    between atoms: C_10  and  C_11 
REMARK    6  A    between atoms: C_13  and  O_14 
REMARK    7  A    between atoms: O_14  and  C_15 
REMARK    8  A    between atoms: C_15  and  C_16 
REMARK       I    between atoms: C_16  and  N_17 
REMARK    9  A    between atoms: C_23  and  C_24 
ROOT
HETATM    1  C   UNL     1     -43.210  54.462 -55.195  1.00  0.00     0.255 C 
HETATM    2  N   UNL     1     -43.002  55.198 -56.332  1.00  0.00    -0.353 N 
HETATM    3  O   UNL     1     -43.662  53.325 -55.319  1.00  0.00    -0.268 OA
HETATM    4  H   UNL     1     -43.253  54.698 -57.174  1.00  0.00     0.163 HD
ENDROOT
BRANCH   2   5
HETATM    5  C   UNL     1     -42.490  56.544 -56.491  1.00  0.00     0.161 C 
BRANCH   5   6
HETATM    6  C   UNL     1     -42.625  57.056 -57.907  1.00  0.00    -0.038 A 
HETATM    7  C   UNL     1     -43.300  56.336 -58.906  1.00  0.00     0.045 A 
HETATM    8  C   UNL     1     -43.436  56.839 -60.206  1.00  0.00     0.070 A 
HETATM    9  C   UNL     1     -42.901  58.087 -60.514  1.00  0.00     0.037 A 
HETATM   10  C   UNL     1     -42.240  58.824 -59.529  1.00  0.00     0.003 A 
HETATM   11  C   UNL     1     -42.107  58.316 -58.235  1.00  0.00     0.009 A 
BRANCH   8  12
HETATM   12  O   UNL     1     -44.110  56.015 -61.064  1.00  0.00    -0.342 OA
BRANCH  12  13
HETATM   13  C   UNL     1     -45.148  55.211 -60.509  1.00  0.00     0.278 C 
BRANCH  13  14
HETATM   14  C   UNL     1     -46.497  55.925 -60.591  1.00  0.00     0.239 C 
HETATM   15  N   UNL     1     -46.995  56.402 -59.414  1.00  0.00    -0.368 N 
HETATM   16  H   UNL     1     -46.442  56.360 -58.567  1.00  0.00     0.159 HD
HETATM   17  H   UNL     1     -47.868  56.913 -59.422  1.00  0.00     0.159 HD
HETATM   18  O   UNL     1     -47.119  56.057 -61.642  1.00  0.00    -0.271 OA
ENDBRANCH  13  14
ENDBRANCH  12  13
ENDBRANCH   8  12
ENDBRANCH   5   6
ENDBRANCH   2   5
BRANCH   1  19
HETATM   19  C   UNL     1     -42.924  55.062 -53.908  1.00  0.00     0.075 A 
HETATM   20  C   UNL     1     -43.772  55.943 -53.196  1.00  0.00     0.158 A 
HETATM   21  N   UNL     1     -43.247  56.364 -52.049  1.00  0.00    -0.183 NA
HETATM   22  N   UNL     1     -42.073  55.707 -51.972  1.00  0.00    -0.268 N 
HETATM   23  C   UNL     1     -41.824  54.906 -53.070  1.00  0.00     0.052 A 
BRANCH  22  24
HETATM   24  C   UNL     1     -41.224  55.892 -50.794  1.00  0.00     0.106 C 
HETATM   25  C   UNL     1     -41.582  54.957 -49.631  1.00  0.00     0.034 C 
BRANCH  24  26
HETATM   26  C   UNL     1     -41.155  57.369 -50.355  1.00  0.00     0.022 C 
HETATM   27  C   UNL     1     -40.381  58.287 -51.292  1.00  0.00     0.007 C 
ENDBRANCH  24  26
ENDBRANCH  22  24
BRANCH  23  28
HETATM   28  C   UNL     1     -40.546  54.084 -53.250  1.00  0.00     0.038 A 
HETATM   29  C   UNL     1     -40.284  52.868 -52.396  1.00  0.00     0.011 A 
HETATM   30  C   UNL     1     -40.603  52.696 -53.844  1.00  0.00     0.011 A 
ENDBRANCH  23  28
ENDBRANCH   1  19
TORSDOF 9
ENDMDL
MODEL 9
REMARK VINA RESULT:      -6.9      3.080      7.735
REMARK  9 active torsions:
REMARK  status: ('A' for Active; 'I' for Inactive)
REMARK    1  A    between atoms: C_2  and  C_3 
REMARK    2  A    between atoms: C_3  and  N_4 
REMARK    3  A    between atoms: C_7  and  C_8 
REMARK       I    between atoms: C_8  and  N_9 
REMARK    4  A    between atoms: N_9  and  C_10 
REMARK    5  A    between atoms: C_10  and  C_11 
REMARK    6  A    between atoms: C_13  and  O_14 
REMARK    7  A    between atoms: O_14  and  C_15 
REMARK    8  A    between atoms: C_15  and  C_16 
REMARK       I    between atoms: C_16  and  N_17 
REMARK    9  A    between atoms: C_23  and  C_24 
ROOT
HETATM    1  C   UNL     1     -42.951  56.858 -55.910  1.00  0.00     0.255 C 
HETATM    2  N   UNL     1     -42.825  55.497 -55.817  1.00  0.00    -0.353 N 
HETATM    3  O   UNL     1     -42.487  57.413 -56.904  1.00  0.00    -0.268 OA
HETATM    4  H   UNL     1     -42.347  55.092 -56.611  1.00  0.00     0.163 HD
ENDROOT
BRANCH   2   5
HETATM    5  C   UNL     1     -43.267  54.588 -54.778  1.00  0.00     0.161 C 
BRANCH   5   6
HETATM    6  C   UNL     1     -42.118  53.876 -54.100  1.00  0.00    -0.038 A 
HETATM    7  C   UNL     1     -41.908  53.938 -52.712  1.00  0.00     0.045 A 
HETATM    8  C   UNL     1     -40.853  53.251 -52.101  1.00  0.00     0.070 A 
HETATM    9  C   UNL     1     -39.997  52.477 -52.882  1.00  0.00     0.037 A 
HETATM   10  C   UNL     1     -40.200  52.392 -54.261  1.00  0.00     0.003 A 
HETATM   11  C   UNL     1     -41.254  53.081 -54.865  1.00  0.00     0.009 A 
BRANCH   8  12
HETATM   12  O   UNL     1     -40.778  53.419 -50.746  1.00  0.00    -0.342 OA
BRANCH  12  13
HETATM   13  C   UNL     1     -41.874  54.074 -50.113  1.00  0.00     0.278 C 
BRANCH  13  14
HETATM   14  C   UNL     1     -41.383  55.149 -49.143  1.00  0.00     0.239 C 
HETATM   15  N   UNL     1     -41.459  56.437 -49.588  1.00  0.00    -0.368 N 
HETATM   16  H   UNL     1     -41.908  56.650 -50.470  1.00  0.00     0.159 HD
HETATM   17  H   UNL     1     -41.180  57.186 -48.970  1.00  0.00     0.159 HD
HETATM   18  O   UNL     1     -40.928  54.889 -48.033  1.00  0.00    -0.271 OA
ENDBRANCH  13  14
ENDBRANCH  12  13
ENDBRANCH   8  12
ENDBRANCH   5   6
ENDBRANCH   2   5
BRANCH   1  19
HETATM   19  C   UNL     1     -43.587  57.580 -54.829  1.00  0.00     0.075 A 
HETATM   20  C   UNL     1     -44.896  58.118 -54.846  1.00  0.00     0.158 A 
HETATM   21  N   UNL     1     -45.217  58.755 -53.724  1.00  0.00    -0.183 NA
HETATM   22  N   UNL     1     -44.138  58.582 -52.936  1.00  0.00    -0.268 N 
HETATM   23  C   UNL     1     -43.120  57.880 -53.553  1.00  0.00     0.052 A 
BRANCH  22  24
HETATM   24  C   UNL     1     -44.150  59.122 -51.576  1.00  0.00     0.106 C 
HETATM   25  C   UNL     1     -45.518  59.015 -50.889  1.00  0.00     0.034 C 
BRANCH  24  26
HETATM   26  C   UNL     1     -43.578  60.553 -51.513  1.00  0.00     0.022 C 
HETATM   27  C   UNL     1     -42.606  60.813 -50.370  1.00  0.00     0.007 C 
ENDBRANCH  24  26
ENDBRANCH  22  24
BRANCH  23  28
HETATM   28  C   UNL     1     -41.772  57.582 -52.892  1.00  0.00     0.038 A 
HETATM   29  C   UNL     1     -40.543  57.325 -53.729  1.00  0.00     0.011 A 
HETATM   30  C   UNL     1     -40.649  58.592 -52.948  1.00  0.00     0.011 A 
ENDBRANCH  23  28
ENDBRANCH   1  19
TORSDOF 9
ENDMDL
MODEL 10
REMARK VINA RESULT:      -6.9      1.920      2.506
REMARK  9 active torsions:
REMARK  status: ('A' for Active; 'I' for Inactive)
REMARK    1  A    between atoms: C_2  and  C_3 
REMARK    2  A    between atoms: C_3  and  N_4 
REMARK    3  A    between atoms: C_7  and  C_8 
REMARK       I    between atoms: C_8  and  N_9 
REMARK    4  A    between atoms: N_9  and  C_10 
REMARK    5  A    between atoms: C_10  and  C_11 
REMARK    6  A    between atoms: C_13  and  O_14 
REMARK    7  A    between atoms: O_14  and  C_15 
REMARK    8  A    between atoms: C_15  and  C_16 
REMARK       I    between atoms: C_16  and  N_17 
REMARK    9  A    between atoms: C_23  and  C_24 
ROOT
HETATM    1  C   UNL     1     -41.301  58.615 -54.010  1.00  0.00     0.255 C 
HETATM    2  N   UNL     1     -42.061  58.941 -55.103  1.00  0.00    -0.353 N 
HETATM    3  O   UNL     1     -40.621  59.500 -53.495  1.00  0.00    -0.268 OA
HETATM    4  H   UNL     1     -41.971  59.913 -55.366  1.00  0.00     0.163 HD
ENDROOT
BRANCH   2   5
HETATM    5  C   UNL     1     -42.945  58.118 -55.903  1.00  0.00     0.161 C 
BRANCH   5   6
HETATM    6  C   UNL     1     -42.642  58.204 -57.382  1.00  0.00    -0.038 A 
HETATM    7  C   UNL     1     -42.828  57.118 -58.253  1.00  0.00     0.045 A 
HETATM    8  C   UNL     1     -42.564  57.225 -59.623  1.00  0.00     0.070 A 
HETATM    9  C   UNL     1     -42.118  58.440 -60.140  1.00  0.00     0.037 A 
HETATM   10  C   UNL     1     -41.942  59.535 -59.291  1.00  0.00     0.003 A 
HETATM   11  C   UNL     1     -42.206  59.420 -57.925  1.00  0.00     0.009 A 
BRANCH   8  12
HETATM   12  O   UNL     1     -42.786  56.078 -60.334  1.00  0.00    -0.342 OA
BRANCH  12  13
HETATM   13  C   UNL     1     -43.729  55.155 -59.795  1.00  0.00     0.278 C 
BRANCH  13  14
HETATM   14  C   UNL     1     -45.003  55.120 -60.638  1.00  0.00     0.239 C 
HETATM   15  N   UNL     1     -46.161  55.426 -59.986  1.00  0.00    -0.368 N 
HETATM   16  H   UNL     1     -46.141  55.749 -59.026  1.00  0.00     0.159 HD
HETATM   17  H   UNL     1     -47.027  55.452 -60.508  1.00  0.00     0.159 HD
HETATM   18  O   UNL     1     -45.008  54.820 -61.828  1.00  0.00    -0.271 OA
ENDBRANCH  13  14
ENDBRANCH  12  13
ENDBRANCH   8  12
ENDBRANCH   5   6
ENDBRANCH   2   5
BRANCH   1  19
HETATM   19  C   UNL     1     -41.306  57.247 -53.535  1.00  0.00     0.075 A 
HETATM   20  C   UNL     1     -40.673  56.148 -54.162  1.00  0.00     0.158 A 
HETATM   21  N   UNL     1     -40.861  54.997 -53.523  1.00  0.00    -0.183 NA
HETATM   22  N   UNL     1     -41.568  55.349 -52.431  1.00  0.00    -0.268 N 
HETATM   23  C   UNL     1     -41.868  56.697 -52.387  1.00  0.00     0.052 A 
BRANCH  22  24
HETATM   24  C   UNL     1     -41.927  54.324 -51.449  1.00  0.00     0.106 C 
HETATM   25  C   UNL     1     -43.428  54.004 -51.422  1.00  0.00     0.034 C 
BRANCH  24  26
HETATM   26  C   UNL     1     -41.374  54.645 -50.046  1.00  0.00     0.022 C 
HETATM   27  C   UNL     1     -40.138  53.855 -49.641  1.00  0.00     0.007 C 
ENDBRANCH  24  26
ENDBRANCH  22  24
BRANCH  23  28
HETATM   28  C   UNL     1     -42.695  57.348 -51.275  1.00  0.00     0.038 A 
HETATM   29  C   UNL     1     -43.352  58.690 -51.488  1.00  0.00     0.011 A 
HETATM   30  C   UNL     1     -44.196  57.463 -51.402  1.00  0.00     0.011 A 
ENDBRANCH  23  28
ENDBRANCH   1  19
TORSDOF 9
ENDMDL
