MODEL 1
REMARK VINA RESULT:      -8.3      0.000      0.000
REMARK  8 active torsions:
REMARK  status: ('A' for Active; 'I' for Inactive)
REMARK    1  A    between atoms: C_4  and  O_5 
REMARK    2  A    between atoms: O_5  and  C_6 
REMARK    3  A    between atoms: C_6  and  C_7 
REMARK       I    between atoms: C_7  and  N_8 
REMARK    4  A    between atoms: N_8  and  N_9 
REMARK       I    between atoms: N_9  and  C_10 
REMARK    5  A    between atoms: C_10  and  C_11 
REMARK    6  A    between atoms: C_11  and  C_12 
REMARK    7  A    between atoms: C_12  and  N_13 
REMARK    8  A    between atoms: C_12  and  C_17 
REMARK       I    between atoms: N_13  and  C_14 
REMARK       I    between atoms: C_14  and  N_15 
ROOT
HETATM    1  N   UNL     1     -44.709  56.016 -54.181  1.00  0.00    -0.267 N 
HETATM    2  C   UNL     1     -43.776  54.997 -54.276  1.00  0.00     0.238 C 
HETATM    3  O   UNL     1     -43.343  54.569 -55.343  1.00  0.00    -0.272 OA
HETATM    4  H   UNL     1     -44.846  56.485 -53.287  1.00  0.00     0.190 HD
ENDROOT
BRANCH   2   5
HETATM    5  C   UNL     1     -43.326  54.475 -52.931  1.00  0.00     0.134 C 
BRANCH   5   6
HETATM    6  C   UNL     1     -41.824  54.696 -52.679  1.00  0.00     0.130 C 
BRANCH   6   7
HETATM    7  N   UNL     1     -41.291  55.854 -53.400  1.00  0.00    -0.334 N 
HETATM    8  C   UNL     1     -41.109  57.052 -52.778  1.00  0.00     0.314 C 
HETATM    9  N   UNL     1     -40.718  58.022 -53.636  1.00  0.00    -0.352 N 
HETATM   10  O   UNL     1     -41.327  57.279 -51.600  1.00  0.00    -0.248 OA
HETATM   11  H   UNL     1     -40.158  57.745 -54.431  1.00  0.00     0.160 HD
HETATM   12  H   UNL     1     -40.445  58.889 -53.190  1.00  0.00     0.160 HD
HETATM   13  H   UNL     1     -41.465  55.921 -54.401  1.00  0.00     0.165 HD
ENDBRANCH   6   7
BRANCH   6  14
HETATM   14  C   UNL     1     -40.997  53.430 -52.879  1.00  0.00    -0.013 A 
HETATM   15  C   UNL     1     -40.148  52.944 -51.862  1.00  0.00     0.042 A 
HETATM   16 CL   UNL     1     -39.996  53.729 -50.327  1.00  0.00    -0.084 Cl
HETATM   17  C   UNL     1     -39.382  51.788 -52.051  1.00  0.00     0.024 A 
HETATM   18  C   UNL     1     -39.446  51.091 -53.254  1.00  0.00     0.002 A 
HETATM   19  C   UNL     1     -40.287  51.542 -54.264  1.00  0.00     0.001 A 
HETATM   20  C   UNL     1     -41.059  52.693 -54.078  1.00  0.00     0.011 A 
ENDBRANCH   6  14
ENDBRANCH   5   6
ENDBRANCH   2   5
BRANCH   1  21
HETATM   21  N   UNL     1     -44.928  56.806 -55.313  1.00  0.00    -0.266 N 
HETATM   22  C   UNL     1     -44.264  58.020 -55.416  1.00  0.00     0.260 C 
HETATM   23  O   UNL     1     -43.611  58.514 -54.494  1.00  0.00    -0.269 OA
HETATM   24  H   UNL     1     -45.217  56.324 -56.163  1.00  0.00     0.190 HD
BRANCH  22  25
HETATM   25  C   UNL     1     -44.380  58.653 -56.800  1.00  0.00     0.280 C 
BRANCH  25  26
HETATM   26  O   UNL     1     -43.580  57.896 -57.704  1.00  0.00    -0.342 OA
BRANCH  26  27
HETATM   27  C   UNL     1     -44.216  57.017 -58.534  1.00  0.00     0.069 A 
HETATM   28  C   UNL     1     -45.449  57.218 -59.157  1.00  0.00     0.043 A 
HETATM   29  C   UNL     1     -45.982  56.237 -60.010  1.00  0.00    -0.059 A 
HETATM   30  C   UNL     1     -47.281  56.464 -60.725  1.00  0.00     0.048 C 
HETATM   31  C   UNL     1     -45.257  55.061 -60.242  1.00  0.00     0.007 A 
HETATM   32  C   UNL     1     -44.027  54.858 -59.622  1.00  0.00     0.003 A 
HETATM   33  C   UNL     1     -43.509  55.836 -58.774  1.00  0.00     0.037 A 
ENDBRANCH  26  27
ENDBRANCH  25  26
ENDBRANCH  22  25
ENDBRANCH   1  21
TORSDOF 8
ENDMDL
MODEL 2
REMARK VINA RESULT:      -8.2      0.989      1.481
REMARK  8 active torsions:
REMARK  status: ('A' for Active; 'I' for Inactive)
REMARK    1  A    between atoms: C_4  and  O_5 
REMARK    2  A    between atoms: O_5  and  C_6 
REMARK    3  A    between atoms: C_6  and  C_7 
REMARK       I    between atoms: C_7  and  N_8 
REMARK    4  A    between atoms: N_8  and  N_9 
REMARK       I    between atoms: N_9  and  C_10 
REMARK    5  A    between atoms: C_10  and  C_11 
REMARK    6  A    between atoms: C_11  and  C_12 
REMARK    7  A    between atoms: C_12  and  N_13 
REMARK    8  A    between atoms: C_12  and  C_17 
REMARK       I    between atoms: N_13  and  C_14 
REMARK       I    between atoms: C_14  and  N_15 
ROOT
HETATM    1  N   UNL     1     -44.753  56.001 -54.054  1.00  0.00    -0.267 N 
HETATM    2  C   UNL     1     -43.774  55.039 -54.241  1.00  0.00     0.238 C 
HETATM    3  O   UNL     1     -43.312  54.745 -55.341  1.00  0.00    -0.272 OA
HETATM    4  H   UNL     1     -44.919  56.367 -53.118  1.00  0.00     0.190 HD
ENDROOT
BRANCH   2   5
HETATM    5  C   UNL     1     -43.315  54.399 -52.952  1.00  0.00     0.134 C 
BRANCH   5   6
HETATM    6  C   UNL     1     -41.815  54.619 -52.679  1.00  0.00     0.130 C 
BRANCH   6   7
HETATM    7  N   UNL     1     -41.276  55.789 -53.376  1.00  0.00    -0.334 N 
HETATM    8  C   UNL     1     -41.127  56.983 -52.741  1.00  0.00     0.314 C 
HETATM    9  N   UNL     1     -40.724  57.966 -53.580  1.00  0.00    -0.352 N 
HETATM   10  O   UNL     1     -41.381  57.198 -51.567  1.00  0.00    -0.248 OA
HETATM   11  H   UNL     1     -40.138  57.702 -54.361  1.00  0.00     0.160 HD
HETATM   12  H   UNL     1     -40.474  58.832 -53.119  1.00  0.00     0.160 HD
HETATM   13  H   UNL     1     -41.423  55.861 -54.382  1.00  0.00     0.165 HD
ENDBRANCH   6   7
BRANCH   6  14
HETATM   14  C   UNL     1     -40.984  53.357 -52.891  1.00  0.00    -0.013 A 
HETATM   15  C   UNL     1     -40.136  52.863 -51.877  1.00  0.00     0.042 A 
HETATM   16 CL   UNL     1     -39.990  53.634 -50.333  1.00  0.00    -0.084 Cl
HETATM   17  C   UNL     1     -39.366  51.712 -52.076  1.00  0.00     0.024 A 
HETATM   18  C   UNL     1     -39.425  51.027 -53.286  1.00  0.00     0.002 A 
HETATM   19  C   UNL     1     -40.265  51.486 -54.294  1.00  0.00     0.001 A 
HETATM   20  C   UNL     1     -41.041  52.632 -54.097  1.00  0.00     0.011 A 
ENDBRANCH   6  14
ENDBRANCH   5   6
ENDBRANCH   2   5
BRANCH   1  21
HETATM   21  N   UNL     1     -44.997  56.895 -55.101  1.00  0.00    -0.266 N 
HETATM   22  C   UNL     1     -44.395  58.145 -55.061  1.00  0.00     0.260 C 
HETATM   23  O   UNL     1     -43.781  58.569 -54.079  1.00  0.00    -0.269 OA
HETATM   24  H   UNL     1     -45.248  56.493 -56.002  1.00  0.00     0.190 HD
BRANCH  22  25
HETATM   25  C   UNL     1     -44.523  58.915 -56.372  1.00  0.00     0.280 C 
BRANCH  25  26
HETATM   26  O   UNL     1     -43.247  58.928 -57.008  1.00  0.00    -0.342 OA
BRANCH  26  27
HETATM   27  C   UNL     1     -43.031  58.039 -58.021  1.00  0.00     0.069 A 
HETATM   28  C   UNL     1     -43.740  56.857 -58.243  1.00  0.00     0.043 A 
HETATM   29  C   UNL     1     -43.430  56.040 -59.343  1.00  0.00    -0.059 A 
HETATM   30  C   UNL     1     -44.218  54.794 -59.622  1.00  0.00     0.048 C 
HETATM   31  C   UNL     1     -42.413  56.430 -60.225  1.00  0.00     0.007 A 
HETATM   32  C   UNL     1     -41.705  57.608 -60.005  1.00  0.00     0.003 A 
HETATM   33  C   UNL     1     -42.018  58.410 -58.908  1.00  0.00     0.037 A 
ENDBRANCH  26  27
ENDBRANCH  25  26
ENDBRANCH  22  25
ENDBRANCH   1  21
TORSDOF 8
ENDMDL
MODEL 3
REMARK VINA RESULT:      -7.8      3.317      8.816
REMARK  8 active torsions:
REMARK  status: ('A' for Active; 'I' for Inactive)
REMARK    1  A    between atoms: C_4  and  O_5 
REMARK    2  A    between atoms: O_5  and  C_6 
REMARK    3  A    between atoms: C_6  and  C_7 
REMARK       I    between atoms: C_7  and  N_8 
REMARK    4  A    between atoms: N_8  and  N_9 
REMARK       I    between atoms: N_9  and  C_10 
REMARK    5  A    between atoms: C_10  and  C_11 
REMARK    6  A    between atoms: C_11  and  C_12 
REMARK    7  A    between atoms: C_12  and  N_13 
REMARK    8  A    between atoms: C_12  and  C_17 
REMARK       I    between atoms: N_13  and  C_14 
REMARK       I    between atoms: C_14  and  N_15 
ROOT
HETATM    1  N   UNL     1     -42.455  56.327 -58.109  1.00  0.00    -0.267 N 
HETATM    2  C   UNL     1     -43.485  56.015 -58.982  1.00  0.00     0.238 C 
HETATM    3  O   UNL     1     -44.013  54.908 -59.041  1.00  0.00    -0.272 OA
HETATM    4  H   UNL     1     -42.227  57.304 -57.937  1.00  0.00     0.190 HD
ENDROOT
BRANCH   2   5
HETATM    5  C   UNL     1     -43.909  57.182 -59.842  1.00  0.00     0.134 C 
BRANCH   5   6
HETATM    6  C   UNL     1     -45.182  57.875 -59.321  1.00  0.00     0.130 C 
BRANCH   6   7
HETATM    7  N   UNL     1     -45.562  57.430 -57.978  1.00  0.00    -0.334 N 
HETATM    8  C   UNL     1     -46.033  58.307 -57.050  1.00  0.00     0.314 C 
HETATM    9  N   UNL     1     -46.220  57.727 -55.842  1.00  0.00    -0.352 N 
HETATM   10  O   UNL     1     -46.217  59.499 -57.231  1.00  0.00    -0.248 OA
HETATM   11  H   UNL     1     -46.476  56.748 -55.828  1.00  0.00     0.160 HD
HETATM   12  H   UNL     1     -46.694  58.312 -55.165  1.00  0.00     0.160 HD
HETATM   13  H   UNL     1     -45.089  56.616 -57.587  1.00  0.00     0.165 HD
ENDBRANCH   6   7
BRANCH   6  14
HETATM   14  C   UNL     1     -46.334  57.825 -60.319  1.00  0.00    -0.013 A 
HETATM   15  C   UNL     1     -46.878  59.007 -60.866  1.00  0.00     0.042 A 
HETATM   16 CL   UNL     1     -46.274  60.579 -60.462  1.00  0.00    -0.084 Cl
HETATM   17  C   UNL     1     -47.942  58.960 -61.774  1.00  0.00     0.024 A 
HETATM   18  C   UNL     1     -48.485  57.739 -62.158  1.00  0.00     0.002 A 
HETATM   19  C   UNL     1     -47.956  56.560 -61.644  1.00  0.00     0.001 A 
HETATM   20  C   UNL     1     -46.889  56.601 -60.742  1.00  0.00     0.011 A 
ENDBRANCH   6  14
ENDBRANCH   5   6
ENDBRANCH   2   5
BRANCH   1  21
HETATM   21  N   UNL     1     -42.223  55.458 -57.038  1.00  0.00    -0.266 N 
HETATM   22  C   UNL     1     -42.803  55.746 -55.811  1.00  0.00     0.260 C 
HETATM   23  O   UNL     1     -43.384  56.806 -55.570  1.00  0.00    -0.269 OA
HETATM   24  H   UNL     1     -42.001  54.491 -57.269  1.00  0.00     0.190 HD
BRANCH  22  25
HETATM   25  C   UNL     1     -42.694  54.597 -54.812  1.00  0.00     0.280 C 
BRANCH  25  26
HETATM   26  O   UNL     1     -41.483  53.893 -55.072  1.00  0.00    -0.342 OA
BRANCH  26  27
HETATM   27  C   UNL     1     -40.857  53.292 -54.017  1.00  0.00     0.069 A 
HETATM   28  C   UNL     1     -40.767  53.794 -52.718  1.00  0.00     0.043 A 
HETATM   29  C   UNL     1     -40.112  53.059 -51.716  1.00  0.00    -0.059 A 
HETATM   30  C   UNL     1     -40.054  53.565 -50.305  1.00  0.00     0.048 C 
HETATM   31  C   UNL     1     -39.562  51.809 -52.029  1.00  0.00     0.007 A 
HETATM   32  C   UNL     1     -39.650  51.306 -53.324  1.00  0.00     0.003 A 
HETATM   33  C   UNL     1     -40.299  52.046 -54.313  1.00  0.00     0.037 A 
ENDBRANCH  26  27
ENDBRANCH  25  26
ENDBRANCH  22  25
ENDBRANCH   1  21
TORSDOF 8
ENDMDL
MODEL 4
REMARK VINA RESULT:      -7.8      2.639      7.727
REMARK  8 active torsions:
REMARK  status: ('A' for Active; 'I' for Inactive)
REMARK    1  A    between atoms: C_4  and  O_5 
REMARK    2  A    between atoms: O_5  and  C_6 
REMARK    3  A    between atoms: C_6  and  C_7 
REMARK       I    between atoms: C_7  and  N_8 
REMARK    4  A    between atoms: N_8  and  N_9 
REMARK       I    between atoms: N_9  and  C_10 
REMARK    5  A    between atoms: C_10  and  C_11 
REMARK    6  A    between atoms: C_11  and  C_12 
REMARK    7  A    between atoms: C_12  and  N_13 
REMARK    8  A    between atoms: C_12  and  C_17 
REMARK       I    between atoms: N_13  and  C_14 
REMARK       I    between atoms: C_14  and  N_15 
ROOT
HETATM    1  N   UNL     1     -45.222  56.951 -55.264  1.00  0.00    -0.267 N 
HETATM    2  C   UNL     1     -44.708  58.231 -55.399  1.00  0.00     0.238 C 
HETATM    3  O   UNL     1     -43.990  58.766 -54.559  1.00  0.00    -0.272 OA
HETATM    4  H   UNL     1     -45.601  56.478 -56.082  1.00  0.00     0.190 HD
ENDROOT
BRANCH   2   5
HETATM    5  C   UNL     1     -45.104  58.897 -56.696  1.00  0.00     0.134 C 
BRANCH   5   6
HETATM    6  C   UNL     1     -44.192  58.500 -57.871  1.00  0.00     0.130 C 
BRANCH   6   7
HETATM    7  N   UNL     1     -43.557  59.654 -58.512  1.00  0.00    -0.334 N 
HETATM    8  C   UNL     1     -42.334  60.099 -58.114  1.00  0.00     0.314 C 
HETATM    9  N   UNL     1     -41.970  61.239 -58.747  1.00  0.00    -0.352 N 
HETATM   10  O   UNL     1     -41.644  59.593 -57.245  1.00  0.00    -0.248 OA
HETATM   11  H   UNL     1     -42.306  61.377 -59.691  1.00  0.00     0.160 HD
HETATM   12  H   UNL     1     -41.014  61.525 -58.577  1.00  0.00     0.160 HD
HETATM   13  H   UNL     1     -44.157  60.373 -58.915  1.00  0.00     0.165 HD
ENDBRANCH   6   7
BRANCH   6  14
HETATM   14  C   UNL     1     -44.876  57.563 -58.862  1.00  0.00    -0.013 A 
HETATM   15  C   UNL     1     -44.124  56.715 -59.703  1.00  0.00     0.042 A 
HETATM   16 CL   UNL     1     -42.394  56.666 -59.663  1.00  0.00    -0.084 Cl
HETATM   17  C   UNL     1     -44.753  55.864 -60.619  1.00  0.00     0.024 A 
HETATM   18  C   UNL     1     -46.140  55.836 -60.715  1.00  0.00     0.002 A 
HETATM   19  C   UNL     1     -46.902  56.651 -59.885  1.00  0.00     0.001 A 
HETATM   20  C   UNL     1     -46.279  57.499 -58.965  1.00  0.00     0.011 A 
ENDBRANCH   6  14
ENDBRANCH   5   6
ENDBRANCH   2   5
BRANCH   1  21
HETATM   21  N   UNL     1     -44.649  56.117 -54.299  1.00  0.00    -0.266 N 
HETATM   22  C   UNL     1     -43.555  55.341 -54.656  1.00  0.00     0.260 C 
HETATM   23  O   UNL     1     -43.156  55.228 -55.817  1.00  0.00    -0.269 OA
HETATM   24  H   UNL     1     -44.768  56.389 -53.324  1.00  0.00     0.190 HD
BRANCH  22  25
HETATM   25  C   UNL     1     -42.867  54.687 -53.461  1.00  0.00     0.280 C 
BRANCH  25  26
HETATM   26  O   UNL     1     -41.486  54.528 -53.774  1.00  0.00    -0.342 OA
BRANCH  26  27
HETATM   27  C   UNL     1     -40.866  53.385 -53.359  1.00  0.00     0.069 A 
HETATM   28  C   UNL     1     -40.584  52.268 -54.148  1.00  0.00     0.043 A 
HETATM   29  C   UNL     1     -39.916  51.161 -53.598  1.00  0.00    -0.059 A 
HETATM   30  C   UNL     1     -39.561  49.978 -54.449  1.00  0.00     0.048 C 
HETATM   31  C   UNL     1     -39.522  51.193 -52.254  1.00  0.00     0.007 A 
HETATM   32  C   UNL     1     -39.803  52.305 -51.465  1.00  0.00     0.003 A 
HETATM   33  C   UNL     1     -40.470  53.398 -52.019  1.00  0.00     0.037 A 
ENDBRANCH  26  27
ENDBRANCH  25  26
ENDBRANCH  22  25
ENDBRANCH   1  21
TORSDOF 8
ENDMDL
MODEL 5
REMARK VINA RESULT:      -7.7      4.475      8.116
REMARK  8 active torsions:
REMARK  status: ('A' for Active; 'I' for Inactive)
REMARK    1  A    between atoms: C_4  and  O_5 
REMARK    2  A    between atoms: O_5  and  C_6 
REMARK    3  A    between atoms: C_6  and  C_7 
REMARK       I    between atoms: C_7  and  N_8 
REMARK    4  A    between atoms: N_8  and  N_9 
REMARK       I    between atoms: N_9  and  C_10 
REMARK    5  A    between atoms: C_10  and  C_11 
REMARK    6  A    between atoms: C_11  and  C_12 
REMARK    7  A    between atoms: C_12  and  N_13 
REMARK    8  A    between atoms: C_12  and  C_17 
REMARK       I    between atoms: N_13  and  C_14 
REMARK       I    between atoms: C_14  and  N_15 
ROOT
HETATM    1  N   UNL     1     -44.792  58.164 -52.967  1.00  0.00    -0.267 N 
HETATM    2  C   UNL     1     -45.091  58.660 -51.708  1.00  0.00     0.238 C 
HETATM    3  O   UNL     1     -45.413  57.951 -50.758  1.00  0.00    -0.272 OA
HETATM    4  H   UNL     1     -44.306  58.761 -53.635  1.00  0.00     0.190 HD
ENDROOT
BRANCH   2   5
HETATM    5  C   UNL     1     -44.962  60.162 -51.615  1.00  0.00     0.134 C 
BRANCH   5   6
HETATM    6  C   UNL     1     -43.589  60.609 -51.083  1.00  0.00     0.130 C 
BRANCH   6   7
HETATM    7  N   UNL     1     -42.857  59.529 -50.417  1.00  0.00    -0.334 N 
HETATM    8  C   UNL     1     -41.583  59.211 -50.778  1.00  0.00     0.314 C 
HETATM    9  N   UNL     1     -41.123  58.117 -50.128  1.00  0.00    -0.352 N 
HETATM   10  O   UNL     1     -40.924  59.783 -51.630  1.00  0.00    -0.248 OA
HETATM   11  H   UNL     1     -41.469  57.948 -49.193  1.00  0.00     0.160 HD
HETATM   12  H   UNL     1     -40.138  57.930 -50.269  1.00  0.00     0.160 HD
HETATM   13  H   UNL     1     -43.391  58.754 -50.027  1.00  0.00     0.165 HD
ENDBRANCH   6   7
BRANCH   6  14
HETATM   14  C   UNL     1     -43.663  61.886 -50.251  1.00  0.00    -0.013 A 
HETATM   15  C   UNL     1     -44.494  61.968 -49.113  1.00  0.00     0.042 A 
HETATM   16 CL   UNL     1     -45.464  60.639 -48.575  1.00  0.00    -0.084 Cl
HETATM   17  C   UNL     1     -44.570  63.143 -48.357  1.00  0.00     0.024 A 
HETATM   18  C   UNL     1     -43.819  64.259 -48.714  1.00  0.00     0.002 A 
HETATM   19  C   UNL     1     -42.983  64.197 -49.823  1.00  0.00     0.001 A 
HETATM   20  C   UNL     1     -42.899  63.023 -50.578  1.00  0.00     0.011 A 
ENDBRANCH   6  14
ENDBRANCH   5   6
ENDBRANCH   2   5
BRANCH   1  21
HETATM   21  N   UNL     1     -44.532  56.795 -53.084  1.00  0.00    -0.266 N 
HETATM   22  C   UNL     1     -43.222  56.383 -53.283  1.00  0.00     0.260 C 
HETATM   23  O   UNL     1     -42.296  57.162 -53.518  1.00  0.00    -0.269 OA
HETATM   24  H   UNL     1     -45.190  56.161 -52.635  1.00  0.00     0.190 HD
BRANCH  22  25
HETATM   25  C   UNL     1     -43.037  54.875 -53.128  1.00  0.00     0.280 C 
BRANCH  25  26
HETATM   26  O   UNL     1     -41.927  54.478 -53.927  1.00  0.00    -0.342 OA
BRANCH  26  27
HETATM   27  C   UNL     1     -41.168  53.432 -53.488  1.00  0.00     0.069 A 
HETATM   28  C   UNL     1     -40.860  52.277 -54.209  1.00  0.00     0.043 A 
HETATM   29  C   UNL     1     -40.044  51.283 -53.644  1.00  0.00    -0.059 A 
HETATM   30  C   UNL     1     -39.665  50.062 -54.428  1.00  0.00     0.048 C 
HETATM   31  C   UNL     1     -39.528  51.468 -52.355  1.00  0.00     0.007 A 
HETATM   32  C   UNL     1     -39.833  52.618 -51.633  1.00  0.00     0.003 A 
HETATM   33  C   UNL     1     -40.648  53.598 -52.202  1.00  0.00     0.037 A 
ENDBRANCH  26  27
ENDBRANCH  25  26
ENDBRANCH  22  25
ENDBRANCH   1  21
TORSDOF 8
ENDMDL
MODEL 6
REMARK VINA RESULT:      -7.7      3.160      8.664
REMARK  8 active torsions:
REMARK  status: ('A' for Active; 'I' for Inactive)
REMARK    1  A    between atoms: C_4  and  O_5 
REMARK    2  A    between atoms: O_5  and  C_6 
REMARK    3  A    between atoms: C_6  and  C_7 
REMARK       I    between atoms: C_7  and  N_8 
REMARK    4  A    between atoms: N_8  and  N_9 
REMARK       I    between atoms: N_9  and  C_10 
REMARK    5  A    between atoms: C_10  and  C_11 
REMARK    6  A    between atoms: C_11  and  C_12 
REMARK    7  A    between atoms: C_12  and  N_13 
REMARK    8  A    between atoms: C_12  and  C_17 
REMARK       I    between atoms: N_13  and  C_14 
REMARK       I    between atoms: C_14  and  N_15 
ROOT
HETATM    1  N   UNL     1     -43.209  56.518 -56.999  1.00  0.00    -0.267 N 
HETATM    2  C   UNL     1     -43.794  57.747 -56.740  1.00  0.00     0.238 C 
HETATM    3  O   UNL     1     -43.462  58.475 -55.808  1.00  0.00    -0.272 OA
HETATM    4  H   UNL     1     -43.354  56.079 -57.907  1.00  0.00     0.190 HD
ENDROOT
BRANCH   2   5
HETATM    5  C   UNL     1     -44.871  58.114 -57.734  1.00  0.00     0.134 C 
BRANCH   5   6
HETATM    6  C   UNL     1     -44.611  57.532 -59.135  1.00  0.00     0.130 C 
BRANCH   6   7
HETATM    7  N   UNL     1     -43.442  58.125 -59.789  1.00  0.00    -0.334 N 
HETATM    8  C   UNL     1     -42.406  57.354 -60.218  1.00  0.00     0.314 C 
HETATM    9  N   UNL     1     -41.375  58.094 -60.691  1.00  0.00    -0.352 N 
HETATM   10  O   UNL     1     -42.348  56.138 -60.143  1.00  0.00    -0.248 OA
HETATM   11  H   UNL     1     -41.597  58.979 -61.127  1.00  0.00     0.160 HD
HETATM   12  H   UNL     1     -40.645  57.555 -61.140  1.00  0.00     0.160 HD
HETATM   13  H   UNL     1     -43.184  59.079 -59.544  1.00  0.00     0.165 HD
ENDBRANCH   6   7
BRANCH   6  14
HETATM   14  C   UNL     1     -45.857  57.531 -60.016  1.00  0.00    -0.013 A 
HETATM   15  C   UNL     1     -46.349  56.335 -60.582  1.00  0.00     0.042 A 
HETATM   16 CL   UNL     1     -45.595  54.800 -60.309  1.00  0.00    -0.084 Cl
HETATM   17  C   UNL     1     -47.485  56.336 -61.399  1.00  0.00     0.024 A 
HETATM   18  C   UNL     1     -48.157  57.525 -61.667  1.00  0.00     0.002 A 
HETATM   19  C   UNL     1     -47.699  58.713 -61.108  1.00  0.00     0.001 A 
HETATM   20  C   UNL     1     -46.568  58.715 -60.287  1.00  0.00     0.011 A 
ENDBRANCH   6  14
ENDBRANCH   5   6
ENDBRANCH   2   5
BRANCH   1  21
HETATM   21  N   UNL     1     -41.987  56.235 -56.381  1.00  0.00    -0.266 N 
HETATM   22  C   UNL     1     -41.983  55.417 -55.261  1.00  0.00     0.260 C 
HETATM   23  O   UNL     1     -43.011  55.051 -54.686  1.00  0.00    -0.269 OA
HETATM   24  H   UNL     1     -41.153  56.284 -56.965  1.00  0.00     0.190 HD
BRANCH  22  25
HETATM   25  C   UNL     1     -40.582  54.974 -54.846  1.00  0.00     0.280 C 
BRANCH  25  26
HETATM   26  O   UNL     1     -40.625  54.584 -53.476  1.00  0.00    -0.342 OA
BRANCH  26  27
HETATM   27  C   UNL     1     -40.324  53.288 -53.173  1.00  0.00     0.069 A 
HETATM   28  C   UNL     1     -40.187  52.240 -54.085  1.00  0.00     0.043 A 
HETATM   29  C   UNL     1     -39.848  50.951 -53.640  1.00  0.00    -0.059 A 
HETATM   30  C   UNL     1     -39.648  49.829 -54.615  1.00  0.00     0.048 C 
HETATM   31  C   UNL     1     -39.634  50.730 -52.273  1.00  0.00     0.007 A 
HETATM   32  C   UNL     1     -39.771  51.773 -51.361  1.00  0.00     0.003 A 
HETATM   33  C   UNL     1     -40.111  53.048 -51.813  1.00  0.00     0.037 A 
ENDBRANCH  26  27
ENDBRANCH  25  26
ENDBRANCH  22  25
ENDBRANCH   1  21
TORSDOF 8
ENDMDL
MODEL 7
REMARK VINA RESULT:      -7.5      3.517      8.721
REMARK  8 active torsions:
REMARK  status: ('A' for Active; 'I' for Inactive)
REMARK    1  A    between atoms: C_4  and  O_5 
REMARK    2  A    between atoms: O_5  and  C_6 
REMARK    3  A    between atoms: C_6  and  C_7 
REMARK       I    between atoms: C_7  and  N_8 
REMARK    4  A    between atoms: N_8  and  N_9 
REMARK       I    between atoms: N_9  and  C_10 
REMARK    5  A    between atoms: C_10  and  C_11 
REMARK    6  A    between atoms: C_11  and  C_12 
REMARK    7  A    between atoms: C_12  and  N_13 
REMARK    8  A    between atoms: C_12  and  C_17 
REMARK       I    between atoms: N_13  and  C_14 
REMARK       I    between atoms: C_14  and  N_15 
ROOT
HETATM    1  N   UNL     1     -41.707  56.172 -56.403  1.00  0.00    -0.267 N 
HETATM    2  C   UNL     1     -43.066  55.978 -56.595  1.00  0.00     0.238 C 
HETATM    3  O   UNL     1     -43.644  54.924 -56.343  1.00  0.00    -0.272 OA
HETATM    4  H   UNL     1     -41.335  57.120 -56.399  1.00  0.00     0.190 HD
ENDROOT
BRANCH   2   5
HETATM    5  C   UNL     1     -43.772  57.203 -57.127  1.00  0.00     0.134 C 
BRANCH   5   6
HETATM    6  C   UNL     1     -44.290  57.014 -58.564  1.00  0.00     0.130 C 
BRANCH   6   7
HETATM    7  N   UNL     1     -44.123  55.643 -59.053  1.00  0.00    -0.334 N 
HETATM    8  C   UNL     1     -45.073  55.046 -59.824  1.00  0.00     0.314 C 
HETATM    9  N   UNL     1     -44.788  53.748 -60.079  1.00  0.00    -0.352 N 
HETATM   10  O   UNL     1     -46.107  55.569 -60.206  1.00  0.00    -0.248 OA
HETATM   11  H   UNL     1     -43.814  53.486 -60.138  1.00  0.00     0.160 HD
HETATM   12  H   UNL     1     -45.400  53.311 -60.756  1.00  0.00     0.160 HD
HETATM   13  H   UNL     1     -43.564  54.997 -58.497  1.00  0.00     0.165 HD
ENDBRANCH   6   7
BRANCH   6  14
HETATM   14  C   UNL     1     -43.755  58.066 -59.530  1.00  0.00    -0.013 A 
HETATM   15  C   UNL     1     -44.623  58.975 -60.173  1.00  0.00     0.042 A 
HETATM   16 CL   UNL     1     -46.333  58.973 -59.904  1.00  0.00    -0.084 Cl
HETATM   17  C   UNL     1     -44.132  59.933 -61.067  1.00  0.00     0.024 A 
HETATM   18  C   UNL     1     -42.770  60.009 -61.338  1.00  0.00     0.002 A 
HETATM   19  C   UNL     1     -41.894  59.134 -60.705  1.00  0.00     0.001 A 
HETATM   20  C   UNL     1     -42.379  58.179 -59.807  1.00  0.00     0.011 A 
ENDBRANCH   6  14
ENDBRANCH   5   6
ENDBRANCH   2   5
BRANCH   1  21
HETATM   21  N   UNL     1     -41.025  55.254 -55.598  1.00  0.00    -0.266 N 
HETATM   22  C   UNL     1     -40.892  55.528 -54.245  1.00  0.00     0.260 C 
HETATM   23  O   UNL     1     -41.206  56.608 -53.739  1.00  0.00    -0.269 OA
HETATM   24  H   UNL     1     -41.011  54.285 -55.913  1.00  0.00     0.190 HD
BRANCH  22  25
HETATM   25  C   UNL     1     -40.371  54.341 -53.440  1.00  0.00     0.280 C 
BRANCH  25  26
HETATM   26  O   UNL     1     -40.331  53.204 -54.298  1.00  0.00    -0.342 OA
BRANCH  26  27
HETATM   27  C   UNL     1     -40.048  51.992 -53.737  1.00  0.00     0.069 A 
HETATM   28  C   UNL     1     -40.015  51.705 -52.371  1.00  0.00     0.043 A 
HETATM   29  C   UNL     1     -39.732  50.403 -51.926  1.00  0.00    -0.059 A 
HETATM   30  C   UNL     1     -39.745  50.071 -50.463  1.00  0.00     0.048 C 
HETATM   31  C   UNL     1     -39.499  49.390 -52.866  1.00  0.00     0.007 A 
HETATM   32  C   UNL     1     -39.531  49.674 -54.229  1.00  0.00     0.003 A 
HETATM   33  C   UNL     1     -39.808  50.971 -54.660  1.00  0.00     0.037 A 
ENDBRANCH  26  27
ENDBRANCH  25  26
ENDBRANCH  22  25
ENDBRANCH   1  21
TORSDOF 8
ENDMDL
MODEL 8
REMARK VINA RESULT:      -7.4      3.219      4.093
REMARK  8 active torsions:
REMARK  status: ('A' for Active; 'I' for Inactive)
REMARK    1  A    between atoms: C_4  and  O_5 
REMARK    2  A    between atoms: O_5  and  C_6 
REMARK    3  A    between atoms: C_6  and  C_7 
REMARK       I    between atoms: C_7  and  N_8 
REMARK    4  A    between atoms: N_8  and  N_9 
REMARK       I    between atoms: N_9  and  C_10 
REMARK    5  A    between atoms: C_10  and  C_11 
REMARK    6  A    between atoms: C_11  and  C_12 
REMARK    7  A    between atoms: C_12  and  N_13 
REMARK    8  A    between atoms: C_12  and  C_17 
REMARK       I    between atoms: N_13  and  C_14 
REMARK       I    between atoms: C_14  and  N_15 
ROOT
HETATM    1  N   UNL     1     -43.773  56.313 -55.905  1.00  0.00    -0.267 N 
HETATM    2  C   UNL     1     -42.923  55.267 -55.582  1.00  0.00     0.238 C 
HETATM    3  O   UNL     1     -42.056  54.839 -56.339  1.00  0.00    -0.272 OA
HETATM    4  H   UNL     1     -44.297  56.776 -55.164  1.00  0.00     0.190 HD
ENDROOT
BRANCH   2   5
HETATM    5  C   UNL     1     -43.156  54.718 -54.194  1.00  0.00     0.134 C 
BRANCH   5   6
HETATM    6  C   UNL     1     -41.938  54.902 -53.269  1.00  0.00     0.130 C 
BRANCH   6   7
HETATM    7  N   UNL     1     -41.129  56.071 -53.621  1.00  0.00    -0.334 N 
HETATM    8  C   UNL     1     -41.115  57.183 -52.837  1.00  0.00     0.314 C 
HETATM    9  N   UNL     1     -40.400  58.192 -53.387  1.00  0.00    -0.352 N 
HETATM   10  O   UNL     1     -41.719  57.317 -51.785  1.00  0.00    -0.248 OA
HETATM   11  H   UNL     1     -39.612  57.942 -53.970  1.00  0.00     0.160 HD
HETATM   12  H   UNL     1     -40.256  58.985 -52.774  1.00  0.00     0.160 HD
HETATM   13  H   UNL     1     -40.938  56.247 -54.606  1.00  0.00     0.165 HD
ENDBRANCH   6   7
BRANCH   6  14
HETATM   14  C   UNL     1     -41.117  53.627 -53.112  1.00  0.00    -0.013 A 
HETATM   15  C   UNL     1     -40.464  53.325 -51.897  1.00  0.00     0.042 A 
HETATM   16 CL   UNL     1     -40.559  54.358 -50.511  1.00  0.00    -0.084 Cl
HETATM   17  C   UNL     1     -39.701  52.160 -51.757  1.00  0.00     0.024 A 
HETATM   18  C   UNL     1     -39.575  51.270 -52.819  1.00  0.00     0.002 A 
HETATM   19  C   UNL     1     -40.221  51.539 -54.020  1.00  0.00     0.001 A 
HETATM   20  C   UNL     1     -40.989  52.699 -54.163  1.00  0.00     0.011 A 
ENDBRANCH   6  14
ENDBRANCH   5   6
ENDBRANCH   2   5
BRANCH   1  21
HETATM   21  N   UNL     1     -43.429  57.121 -56.992  1.00  0.00    -0.266 N 
HETATM   22  C   UNL     1     -42.525  58.154 -56.792  1.00  0.00     0.260 C 
HETATM   23  O   UNL     1     -42.126  58.498 -55.677  1.00  0.00    -0.269 OA
HETATM   24  H   UNL     1     -43.514  56.707 -57.920  1.00  0.00     0.190 HD
BRANCH  22  25
HETATM   25  C   UNL     1     -42.035  58.784 -58.094  1.00  0.00     0.280 C 
BRANCH  25  26
HETATM   26  O   UNL     1     -42.325  60.179 -58.051  1.00  0.00    -0.342 OA
BRANCH  26  27
HETATM   27  C   UNL     1     -41.680  60.990 -58.939  1.00  0.00     0.069 A 
HETATM   28  C   UNL     1     -40.701  61.936 -58.628  1.00  0.00     0.043 A 
HETATM   29  C   UNL     1     -40.096  62.692 -59.646  1.00  0.00    -0.059 A 
HETATM   30  C   UNL     1     -39.007  63.674 -59.331  1.00  0.00     0.048 C 
HETATM   31  C   UNL     1     -40.474  62.479 -60.979  1.00  0.00     0.007 A 
HETATM   32  C   UNL     1     -41.450  61.537 -61.291  1.00  0.00     0.003 A 
HETATM   33  C   UNL     1     -42.047  60.793 -60.272  1.00  0.00     0.037 A 
ENDBRANCH  26  27
ENDBRANCH  25  26
ENDBRANCH  22  25
ENDBRANCH   1  21
TORSDOF 8
ENDMDL
MODEL 9
REMARK VINA RESULT:      -7.4      5.223      8.103
REMARK  8 active torsions:
REMARK  status: ('A' for Active; 'I' for Inactive)
REMARK    1  A    between atoms: C_4  and  O_5 
REMARK    2  A    between atoms: O_5  and  C_6 
REMARK    3  A    between atoms: C_6  and  C_7 
REMARK       I    between atoms: C_7  and  N_8 
REMARK    4  A    between atoms: N_8  and  N_9 
REMARK       I    between atoms: N_9  and  C_10 
REMARK    5  A    between atoms: C_10  and  C_11 
REMARK    6  A    between atoms: C_11  and  C_12 
REMARK    7  A    between atoms: C_12  and  N_13 
REMARK    8  A    between atoms: C_12  and  C_17 
REMARK       I    between atoms: N_13  and  C_14 
REMARK       I    between atoms: C_14  and  N_15 
ROOT
HETATM    1  N   UNL     1     -42.853  57.994 -50.760  1.00  0.00    -0.267 N 
HETATM    2  C   UNL     1     -42.224  57.694 -51.958  1.00  0.00     0.238 C 
HETATM    3  O   UNL     1     -42.470  58.268 -53.016  1.00  0.00    -0.272 OA
HETATM    4  H   UNL     1     -42.446  57.663 -49.887  1.00  0.00     0.190 HD
ENDROOT
BRANCH   2   5
HETATM    5  C   UNL     1     -41.190  56.602 -51.829  1.00  0.00     0.134 C 
BRANCH   5   6
HETATM    6  C   UNL     1     -41.520  55.365 -52.685  1.00  0.00     0.130 C 
BRANCH   6   7
HETATM    7  N   UNL     1     -42.945  55.260 -53.006  1.00  0.00    -0.334 N 
HETATM    8  C   UNL     1     -43.377  55.211 -54.296  1.00  0.00     0.314 C 
HETATM    9  N   UNL     1     -44.728  55.230 -54.387  1.00  0.00    -0.352 N 
HETATM   10  O   UNL     1     -42.662  55.215 -55.284  1.00  0.00    -0.248 OA
HETATM   11  H   UNL     1     -45.253  54.808 -53.633  1.00  0.00     0.160 HD
HETATM   12  H   UNL     1     -45.086  55.061 -55.318  1.00  0.00     0.160 HD
HETATM   13  H   UNL     1     -43.618  55.655 -52.350  1.00  0.00     0.165 HD
ENDBRANCH   6   7
BRANCH   6  14
HETATM   14  C   UNL     1     -40.935  54.076 -52.114  1.00  0.00    -0.013 A 
HETATM   15  C   UNL     1     -40.311  53.126 -52.950  1.00  0.00     0.042 A 
HETATM   16 CL   UNL     1     -40.151  53.355 -54.658  1.00  0.00    -0.084 Cl
HETATM   17  C   UNL     1     -39.785  51.939 -52.427  1.00  0.00     0.024 A 
HETATM   18  C   UNL     1     -39.866  51.675 -51.063  1.00  0.00     0.002 A 
HETATM   19  C   UNL     1     -40.463  52.604 -50.219  1.00  0.00     0.001 A 
HETATM   20  C   UNL     1     -40.984  53.794 -50.736  1.00  0.00     0.011 A 
ENDBRANCH   6  14
ENDBRANCH   5   6
ENDBRANCH   2   5
BRANCH   1  21
HETATM   21  N   UNL     1     -43.554  59.201 -50.676  1.00  0.00    -0.266 N 
HETATM   22  C   UNL     1     -44.937  59.160 -50.569  1.00  0.00     0.260 C 
HETATM   23  O   UNL     1     -45.595  58.126 -50.699  1.00  0.00    -0.269 OA
HETATM   24  H   UNL     1     -43.049  60.003 -50.301  1.00  0.00     0.190 HD
BRANCH  22  25
HETATM   25  C   UNL     1     -45.552  60.513 -50.221  1.00  0.00     0.280 C 
BRANCH  25  26
HETATM   26  O   UNL     1     -44.564  61.294 -49.553  1.00  0.00    -0.342 OA
BRANCH  26  27
HETATM   27  C   UNL     1     -44.841  61.725 -48.288  1.00  0.00     0.069 A 
HETATM   28  C   UNL     1     -44.794  63.046 -47.840  1.00  0.00     0.043 A 
HETATM   29  C   UNL     1     -45.129  63.358 -46.512  1.00  0.00    -0.059 A 
HETATM   30  C   UNL     1     -45.131  64.779 -46.033  1.00  0.00     0.048 C 
HETATM   31  C   UNL     1     -45.527  62.332 -45.644  1.00  0.00     0.007 A 
HETATM   32  C   UNL     1     -45.576  61.014 -46.088  1.00  0.00     0.003 A 
HETATM   33  C   UNL     1     -45.237  60.715 -47.408  1.00  0.00     0.037 A 
ENDBRANCH  26  27
ENDBRANCH  25  26
ENDBRANCH  22  25
ENDBRANCH   1  21
TORSDOF 8
ENDMDL
MODEL 10
REMARK VINA RESULT:      -7.4      2.170      3.299
REMARK  8 active torsions:
REMARK  status: ('A' for Active; 'I' for Inactive)
REMARK    1  A    between atoms: C_4  and  O_5 
REMARK    2  A    between atoms: O_5  and  C_6 
REMARK    3  A    between atoms: C_6  and  C_7 
REMARK       I    between atoms: C_7  and  N_8 
REMARK    4  A    between atoms: N_8  and  N_9 
REMARK       I    between atoms: N_9  and  C_10 
REMARK    5  A    between atoms: C_10  and  C_11 
REMARK    6  A    between atoms: C_11  and  C_12 
REMARK    7  A    between atoms: C_12  and  N_13 
REMARK    8  A    between atoms: C_12  and  C_17 
REMARK       I    between atoms: N_13  and  C_14 
REMARK       I    between atoms: C_14  and  N_15 
ROOT
HETATM    1  N   UNL     1     -41.528  57.371 -53.946  1.00  0.00    -0.267 N 
HETATM    2  C   UNL     1     -40.821  58.208 -53.097  1.00  0.00     0.238 C 
HETATM    3  O   UNL     1     -40.264  59.238 -53.468  1.00  0.00    -0.272 OA
HETATM    4  H   UNL     1     -42.159  56.677 -53.549  1.00  0.00     0.190 HD
ENDROOT
BRANCH   2   5
HETATM    5  C   UNL     1     -40.820  57.737 -51.662  1.00  0.00     0.134 C 
BRANCH   5   6
HETATM    6  C   UNL     1     -41.886  56.659 -51.389  1.00  0.00     0.130 C 
BRANCH   6   7
HETATM    7  N   UNL     1     -43.089  57.198 -50.751  1.00  0.00    -0.334 N 
HETATM    8  C   UNL     1     -44.141  57.644 -51.491  1.00  0.00     0.314 C 
HETATM    9  N   UNL     1     -45.106  58.206 -50.726  1.00  0.00    -0.352 N 
HETATM   10  O   UNL     1     -44.215  57.616 -52.708  1.00  0.00    -0.248 OA
HETATM   11  H   UNL     1     -45.228  57.847 -49.789  1.00  0.00     0.160 HD
HETATM   12  H   UNL     1     -45.959  58.427 -51.224  1.00  0.00     0.160 HD
HETATM   13  H   UNL     1     -42.993  57.645 -49.841  1.00  0.00     0.165 HD
ENDBRANCH   6   7
BRANCH   6  14
HETATM   14  C   UNL     1     -41.321  55.436 -50.672  1.00  0.00    -0.013 A 
HETATM   15  C   UNL     1     -40.846  54.321 -51.395  1.00  0.00     0.042 A 
HETATM   16 CL   UNL     1     -40.855  54.265 -53.125  1.00  0.00    -0.084 Cl
HETATM   17  C   UNL     1     -40.339  53.196 -50.735  1.00  0.00     0.024 A 
HETATM   18  C   UNL     1     -40.290  53.158 -49.345  1.00  0.00     0.002 A 
HETATM   19  C   UNL     1     -40.738  54.251 -48.613  1.00  0.00     0.001 A 
HETATM   20  C   UNL     1     -41.240  55.380 -49.267  1.00  0.00     0.011 A 
ENDBRANCH   6  14
ENDBRANCH   5   6
ENDBRANCH   2   5
BRANCH   1  21
HETATM   21  N   UNL     1     -41.895  57.872 -55.198  1.00  0.00    -0.266 N 
HETATM   22  C   UNL     1     -42.513  57.018 -56.101  1.00  0.00     0.260 C 
HETATM   23  O   UNL     1     -42.615  55.803 -55.920  1.00  0.00    -0.269 OA
HETATM   24  H   UNL     1     -42.073  58.874 -55.260  1.00  0.00     0.190 HD
BRANCH  22  25
HETATM   25  C   UNL     1     -43.097  57.743 -57.310  1.00  0.00     0.280 C 
BRANCH  25  26
HETATM   26  O   UNL     1     -42.854  56.948 -58.467  1.00  0.00    -0.342 OA
BRANCH  26  27
HETATM   27  C   UNL     1     -43.929  56.583 -59.226  1.00  0.00     0.069 A 
HETATM   28  C   UNL     1     -45.036  57.379 -59.522  1.00  0.00     0.043 A 
HETATM   29  C   UNL     1     -46.067  56.886 -60.340  1.00  0.00    -0.059 A 
HETATM   30  C   UNL     1     -47.237  57.751 -60.706  1.00  0.00     0.048 C 
HETATM   31  C   UNL     1     -45.966  55.593 -60.869  1.00  0.00     0.007 A 
HETATM   32  C   UNL     1     -44.863  54.796 -60.575  1.00  0.00     0.003 A 
HETATM   33  C   UNL     1     -43.847  55.294 -59.759  1.00  0.00     0.037 A 
ENDBRANCH  26  27
ENDBRANCH  25  26
ENDBRANCH  22  25
ENDBRANCH   1  21
TORSDOF 8
ENDMDL
