MODEL 1
REMARK VINA RESULT:      -7.7      0.000      0.000
REMARK  5 active torsions:
REMARK  status: ('A' for Active; 'I' for Inactive)
REMARK    1  A    between atoms: C_3  and  O_4 
REMARK    2  A    between atoms: C_8  and  C_9 
REMARK       I    between atoms: N_10  and  C_11 
REMARK    3  A    between atoms: C_11  and  C_12 
REMARK    4  A    between atoms: C_12  and  C_13 
REMARK    5  A    between atoms: C_13  and  C_14 
ROOT
HETATM    1  C   UNL     1     -42.998  57.048 -55.022  1.00  0.00     0.171 C 
HETATM    2  N   UNL     1     -42.845  58.166 -54.054  1.00  0.00    -0.338 N 
HETATM    3  C   UNL     1     -43.843  59.096 -53.778  1.00  0.00     0.221 C 
HETATM    4  O   UNL     1     -43.670  60.016 -52.976  1.00  0.00    -0.273 OA
HETATM    5  C   UNL     1     -41.566  58.264 -53.311  1.00  0.00     0.131 C 
HETATM    6  C   UNL     1     -41.270  56.996 -52.493  1.00  0.00     0.061 C 
HETATM    7  C   UNL     1     -41.451  55.804 -53.365  1.00  0.00    -0.019 A 
HETATM    8  C   UNL     1     -42.214  55.868 -54.517  1.00  0.00     0.044 A 
HETATM    9  N   UNL     1     -42.193  54.625 -55.095  1.00  0.00    -0.356 N 
HETATM   10  H   UNL     1     -42.648  54.367 -55.959  1.00  0.00     0.166 HD
HETATM   11  C   UNL     1     -41.481  53.748 -54.306  1.00  0.00     0.043 A 
HETATM   12  C   UNL     1     -40.993  54.469 -53.215  1.00  0.00    -0.001 A 
HETATM   13  C   UNL     1     -41.242  52.378 -54.474  1.00  0.00     0.030 A 
HETATM   14  C   UNL     1     -40.486  51.728 -53.495  1.00  0.00     0.002 A 
HETATM   15  C   UNL     1     -39.982  52.423 -52.397  1.00  0.00     0.001 A 
HETATM   16  C   UNL     1     -40.226  53.793 -52.245  1.00  0.00     0.014 A 
ENDROOT
BRANCH   1  17
HETATM   17  C   UNL     1     -42.681  57.427 -56.467  1.00  0.00    -0.029 A 
HETATM   18  C   UNL     1     -42.004  58.600 -56.822  1.00  0.00     0.012 A 
HETATM   19  C   UNL     1     -41.715  58.896 -58.159  1.00  0.00     0.038 A 
HETATM   20  C   UNL     1     -42.089  58.020 -59.180  1.00  0.00     0.074 A 
HETATM   21  C   UNL     1     -42.771  56.838 -58.853  1.00  0.00    -0.028 A 
HETATM   22  C   UNL     1     -43.220  55.882 -59.924  1.00  0.00     0.051 C 
HETATM   23  C   UNL     1     -43.073  56.562 -57.508  1.00  0.00     0.019 A 
BRANCH  20  24
HETATM   24  O   UNL     1     -41.856  58.232 -60.513  1.00  0.00    -0.355 OA
HETATM   25  C   UNL     1     -41.975  59.565 -60.991  1.00  0.00     0.210 C 
ENDBRANCH  20  24
ENDBRANCH   1  17
BRANCH   3  26
HETATM   26  C   UNL     1     -45.196  58.882 -54.443  1.00  0.00     0.108 C 
BRANCH  26  27
HETATM   27  C   UNL     1     -45.499  59.888 -55.552  1.00  0.00     0.051 C 
BRANCH  27  28
HETATM   28  C   UNL     1     -45.684  59.292 -56.908  1.00  0.00    -0.021 A 
HETATM   29  C   UNL     1     -46.341  58.134 -57.275  1.00  0.00     0.120 A 
HETATM   30  N   UNL     1     -46.261  58.058 -58.634  1.00  0.00    -0.285 N 
HETATM   31  C   UNL     1     -46.807  57.026 -59.480  1.00  0.00     0.179 C 
HETATM   32  N   UNL     1     -45.612  59.096 -59.190  1.00  0.00    -0.185 NA
HETATM   33  C   UNL     1     -45.251  59.837 -58.140  1.00  0.00     0.147 A 
ENDBRANCH  27  28
ENDBRANCH  26  27
ENDBRANCH   3  26
TORSDOF 5
ENDMDL
MODEL 2
REMARK VINA RESULT:      -7.6      3.858      7.886
REMARK  5 active torsions:
REMARK  status: ('A' for Active; 'I' for Inactive)
REMARK    1  A    between atoms: C_3  and  O_4 
REMARK    2  A    between atoms: C_8  and  C_9 
REMARK       I    between atoms: N_10  and  C_11 
REMARK    3  A    between atoms: C_11  and  C_12 
REMARK    4  A    between atoms: C_12  and  C_13 
REMARK    5  A    between atoms: C_13  and  C_14 
ROOT
HETATM    1  C   UNL     1     -44.031  59.247 -51.788  1.00  0.00     0.171 C 
HETATM    2  N   UNL     1     -43.514  59.904 -53.018  1.00  0.00    -0.338 N 
HETATM    3  C   UNL     1     -43.870  59.525 -54.309  1.00  0.00     0.221 C 
HETATM    4  O   UNL     1     -43.408  60.089 -55.302  1.00  0.00    -0.273 OA
HETATM    5  C   UNL     1     -42.597  61.057 -52.850  1.00  0.00     0.131 C 
HETATM    6  C   UNL     1     -43.240  62.196 -52.039  1.00  0.00     0.061 C 
HETATM    7  C   UNL     1     -43.842  61.630 -50.802  1.00  0.00    -0.019 A 
HETATM    8  C   UNL     1     -44.161  60.288 -50.709  1.00  0.00     0.044 A 
HETATM    9  N   UNL     1     -44.695  60.076 -49.465  1.00  0.00    -0.356 N 
HETATM   10  H   UNL     1     -45.007  59.188 -49.099  1.00  0.00     0.166 HD
HETATM   11  C   UNL     1     -44.781  61.267 -48.777  1.00  0.00     0.043 A 
HETATM   12  C   UNL     1     -44.239  62.261 -49.594  1.00  0.00    -0.001 A 
HETATM   13  C   UNL     1     -45.301  61.536 -47.505  1.00  0.00     0.030 A 
HETATM   14  C   UNL     1     -45.270  62.859 -47.059  1.00  0.00     0.002 A 
HETATM   15  C   UNL     1     -44.732  63.872 -47.851  1.00  0.00     0.001 A 
HETATM   16  C   UNL     1     -44.212  63.587 -49.119  1.00  0.00     0.014 A 
ENDROOT
BRANCH   1  17
HETATM   17  C   UNL     1     -43.242  58.012 -51.361  1.00  0.00    -0.029 A 
HETATM   18  C   UNL     1     -41.857  58.021 -51.152  1.00  0.00     0.012 A 
HETATM   19  C   UNL     1     -41.177  56.869 -50.741  1.00  0.00     0.038 A 
HETATM   20  C   UNL     1     -41.866  55.675 -50.518  1.00  0.00     0.074 A 
HETATM   21  C   UNL     1     -43.254  55.638 -50.721  1.00  0.00    -0.028 A 
HETATM   22  C   UNL     1     -44.031  54.365 -50.523  1.00  0.00     0.051 C 
HETATM   23  C   UNL     1     -43.923  56.796 -51.155  1.00  0.00     0.019 A 
BRANCH  20  24
HETATM   24  O   UNL     1     -41.284  54.500 -50.122  1.00  0.00    -0.355 OA
HETATM   25  C   UNL     1     -40.716  54.461 -48.819  1.00  0.00     0.210 C 
ENDBRANCH  20  24
ENDBRANCH   1  17
BRANCH   3  26
HETATM   26  C   UNL     1     -44.926  58.437 -54.447  1.00  0.00     0.108 C 
BRANCH  26  27
HETATM   27  C   UNL     1     -44.511  57.293 -55.371  1.00  0.00     0.051 C 
BRANCH  27  28
HETATM   28  C   UNL     1     -43.436  56.409 -54.832  1.00  0.00    -0.021 A 
HETATM   29  C   UNL     1     -43.513  55.100 -54.398  1.00  0.00     0.120 A 
HETATM   30  N   UNL     1     -42.247  54.736 -54.044  1.00  0.00    -0.285 N 
HETATM   31  C   UNL     1     -41.822  53.454 -53.537  1.00  0.00     0.179 C 
HETATM   32  N   UNL     1     -41.338  55.707 -54.233  1.00  0.00    -0.185 NA
HETATM   33  C   UNL     1     -42.063  56.727 -54.699  1.00  0.00     0.147 A 
ENDBRANCH  27  28
ENDBRANCH  26  27
ENDBRANCH   3  26
TORSDOF 5
ENDMDL
MODEL 3
REMARK VINA RESULT:      -7.6      2.661      6.353
REMARK  5 active torsions:
REMARK  status: ('A' for Active; 'I' for Inactive)
REMARK    1  A    between atoms: C_3  and  O_4 
REMARK    2  A    between atoms: C_8  and  C_9 
REMARK       I    between atoms: N_10  and  C_11 
REMARK    3  A    between atoms: C_11  and  C_12 
REMARK    4  A    between atoms: C_12  and  C_13 
REMARK    5  A    between atoms: C_13  and  C_14 
ROOT
HETATM    1  C   UNL     1     -41.925  56.439 -54.214  1.00  0.00     0.171 C 
HETATM    2  N   UNL     1     -42.916  56.782 -53.160  1.00  0.00    -0.338 N 
HETATM    3  C   UNL     1     -42.579  57.339 -51.930  1.00  0.00     0.221 C 
HETATM    4  O   UNL     1     -43.433  57.596 -51.078  1.00  0.00    -0.273 OA
HETATM    5  C   UNL     1     -44.349  56.552 -53.461  1.00  0.00     0.131 C 
HETATM    6  C   UNL     1     -44.814  57.332 -54.703  1.00  0.00     0.061 C 
HETATM    7  C   UNL     1     -43.849  57.099 -55.811  1.00  0.00    -0.019 A 
HETATM    8  C   UNL     1     -42.560  56.667 -55.559  1.00  0.00     0.044 A 
HETATM    9  N   UNL     1     -41.921  56.550 -56.766  1.00  0.00    -0.356 N 
HETATM   10  H   UNL     1     -40.971  56.238 -56.904  1.00  0.00     0.166 HD
HETATM   11  C   UNL     1     -42.756  56.955 -57.785  1.00  0.00     0.043 A 
HETATM   12  C   UNL     1     -43.982  57.295 -57.210  1.00  0.00    -0.001 A 
HETATM   13  C   UNL     1     -42.515  57.050 -59.161  1.00  0.00     0.030 A 
HETATM   14  C   UNL     1     -43.557  57.512 -59.970  1.00  0.00     0.002 A 
HETATM   15  C   UNL     1     -44.792  57.855 -59.425  1.00  0.00     0.001 A 
HETATM   16  C   UNL     1     -45.019  57.750 -58.048  1.00  0.00     0.014 A 
ENDROOT
BRANCH   1  17
HETATM   17  C   UNL     1     -41.297  55.057 -54.055  1.00  0.00    -0.029 A 
HETATM   18  C   UNL     1     -40.827  54.298 -55.134  1.00  0.00     0.012 A 
HETATM   19  C   UNL     1     -40.240  53.043 -54.939  1.00  0.00     0.038 A 
HETATM   20  C   UNL     1     -40.098  52.514 -53.655  1.00  0.00     0.074 A 
HETATM   21  C   UNL     1     -40.562  53.252 -52.556  1.00  0.00    -0.028 A 
HETATM   22  C   UNL     1     -40.459  52.706 -51.157  1.00  0.00     0.051 C 
HETATM   23  C   UNL     1     -41.170  54.503 -52.767  1.00  0.00     0.019 A 
BRANCH  20  24
HETATM   24  O   UNL     1     -39.544  51.294 -53.370  1.00  0.00    -0.355 OA
HETATM   25  C   UNL     1     -39.853  50.219 -54.248  1.00  0.00     0.210 C 
ENDBRANCH  20  24
ENDBRANCH   1  17
BRANCH   3  26
HETATM   26  C   UNL     1     -41.118  57.702 -51.708  1.00  0.00     0.108 C 
BRANCH  26  27
HETATM   27  C   UNL     1     -40.833  59.198 -51.830  1.00  0.00     0.051 C 
BRANCH  27  28
HETATM   28  C   UNL     1     -41.679  59.920 -52.826  1.00  0.00    -0.021 A 
HETATM   29  C   UNL     1     -41.640  59.875 -54.205  1.00  0.00     0.120 A 
HETATM   30  N   UNL     1     -42.647  60.683 -54.646  1.00  0.00    -0.285 N 
HETATM   31  C   UNL     1     -43.008  60.951 -56.016  1.00  0.00     0.179 C 
HETATM   32  N   UNL     1     -43.358  61.242 -53.652  1.00  0.00    -0.185 NA
HETATM   33  C   UNL     1     -42.761  60.788 -52.547  1.00  0.00     0.147 A 
ENDBRANCH  27  28
ENDBRANCH  26  27
ENDBRANCH   3  26
TORSDOF 5
ENDMDL
MODEL 4
REMARK VINA RESULT:      -7.1      2.585      4.109
REMARK  5 active torsions:
REMARK  status: ('A' for Active; 'I' for Inactive)
REMARK    1  A    between atoms: C_3  and  O_4 
REMARK    2  A    between atoms: C_8  and  C_9 
REMARK       I    between atoms: N_10  and  C_11 
REMARK    3  A    between atoms: C_11  and  C_12 
REMARK    4  A    between atoms: C_12  and  C_13 
REMARK    5  A    between atoms: C_13  and  C_14 
ROOT
HETATM    1  C   UNL     1     -44.062  57.398 -57.736  1.00  0.00     0.171 C 
HETATM    2  N   UNL     1     -45.353  57.923 -57.219  1.00  0.00    -0.338 N 
HETATM    3  C   UNL     1     -46.540  57.918 -57.946  1.00  0.00     0.221 C 
HETATM    4  O   UNL     1     -47.587  58.375 -57.483  1.00  0.00    -0.273 OA
HETATM    5  C   UNL     1     -45.379  58.444 -55.831  1.00  0.00     0.131 C 
HETATM    6  C   UNL     1     -44.950  57.382 -54.804  1.00  0.00     0.061 C 
HETATM    7  C   UNL     1     -43.683  56.750 -55.261  1.00  0.00    -0.019 A 
HETATM    8  C   UNL     1     -43.295  56.800 -56.588  1.00  0.00     0.044 A 
HETATM    9  N   UNL     1     -42.102  56.134 -56.693  1.00  0.00    -0.356 N 
HETATM   10  H   UNL     1     -41.563  56.018 -57.539  1.00  0.00     0.166 HD
HETATM   11  C   UNL     1     -41.745  55.605 -55.472  1.00  0.00     0.043 A 
HETATM   12  C   UNL     1     -42.720  55.988 -54.549  1.00  0.00    -0.001 A 
HETATM   13  C   UNL     1     -40.643  54.816 -55.122  1.00  0.00     0.030 A 
HETATM   14  C   UNL     1     -40.538  54.403 -53.791  1.00  0.00     0.002 A 
HETATM   15  C   UNL     1     -41.494  54.774 -52.847  1.00  0.00     0.001 A 
HETATM   16  C   UNL     1     -42.588  55.567 -53.212  1.00  0.00     0.014 A 
ENDROOT
BRANCH   1  17
HETATM   17  C   UNL     1     -43.260  58.408 -58.553  1.00  0.00    -0.029 A 
HETATM   18  C   UNL     1     -42.944  58.224 -59.905  1.00  0.00     0.012 A 
HETATM   19  C   UNL     1     -42.223  59.188 -60.620  1.00  0.00     0.038 A 
HETATM   20  C   UNL     1     -41.806  60.369 -60.004  1.00  0.00     0.074 A 
HETATM   21  C   UNL     1     -42.107  60.578 -58.649  1.00  0.00    -0.028 A 
HETATM   22  C   UNL     1     -41.649  61.822 -57.938  1.00  0.00     0.051 C 
HETATM   23  C   UNL     1     -42.813  59.593 -57.936  1.00  0.00     0.019 A 
BRANCH  20  24
HETATM   24  O   UNL     1     -41.092  61.361 -60.622  1.00  0.00    -0.355 OA
HETATM   25  C   UNL     1     -41.690  61.987 -61.750  1.00  0.00     0.210 C 
ENDBRANCH  20  24
ENDBRANCH   1  17
BRANCH   3  26
HETATM   26  C   UNL     1     -46.516  57.242 -59.310  1.00  0.00     0.108 C 
BRANCH  26  27
HETATM   27  C   UNL     1     -46.594  58.221 -60.480  1.00  0.00     0.051 C 
BRANCH  27  28
HETATM   28  C   UNL     1     -47.734  57.991 -61.417  1.00  0.00    -0.021 A 
HETATM   29  C   UNL     1     -48.514  58.911 -62.089  1.00  0.00     0.120 A 
HETATM   30  N   UNL     1     -49.389  58.191 -62.850  1.00  0.00    -0.285 N 
HETATM   31  C   UNL     1     -50.402  58.712 -63.735  1.00  0.00     0.179 C 
HETATM   32  N   UNL     1     -49.227  56.862 -62.738  1.00  0.00    -0.185 NA
HETATM   33  C   UNL     1     -48.230  56.741 -61.857  1.00  0.00     0.147 A 
ENDBRANCH  27  28
ENDBRANCH  26  27
ENDBRANCH   3  26
TORSDOF 5
ENDMDL
MODEL 5
REMARK VINA RESULT:      -7.0      1.804      2.406
REMARK  5 active torsions:
REMARK  status: ('A' for Active; 'I' for Inactive)
REMARK    1  A    between atoms: C_3  and  O_4 
REMARK    2  A    between atoms: C_8  and  C_9 
REMARK       I    between atoms: N_10  and  C_11 
REMARK    3  A    between atoms: C_11  and  C_12 
REMARK    4  A    between atoms: C_12  and  C_13 
REMARK    5  A    between atoms: C_13  and  C_14 
ROOT
HETATM    1  C   UNL     1     -42.785  56.282 -53.697  1.00  0.00     0.171 C 
HETATM    2  N   UNL     1     -42.534  57.163 -52.526  1.00  0.00    -0.338 N 
HETATM    3  C   UNL     1     -43.499  57.985 -51.951  1.00  0.00     0.221 C 
HETATM    4  O   UNL     1     -43.245  58.709 -50.987  1.00  0.00    -0.273 OA
HETATM    5  C   UNL     1     -41.184  57.127 -51.913  1.00  0.00     0.131 C 
HETATM    6  C   UNL     1     -40.803  55.717 -51.431  1.00  0.00     0.061 C 
HETATM    7  C   UNL     1     -41.072  54.742 -52.522  1.00  0.00    -0.019 A 
HETATM    8  C   UNL     1     -41.950  55.039 -53.548  1.00  0.00     0.044 A 
HETATM    9  N   UNL     1     -41.988  53.955 -54.385  1.00  0.00    -0.356 N 
HETATM   10  H   UNL     1     -42.530  53.882 -55.234  1.00  0.00     0.166 HD
HETATM   11  C   UNL     1     -41.196  52.943 -53.886  1.00  0.00     0.043 A 
HETATM   12  C   UNL     1     -40.598  53.418 -52.718  1.00  0.00    -0.001 A 
HETATM   13  C   UNL     1     -40.974  51.651 -54.376  1.00  0.00     0.030 A 
HETATM   14  C   UNL     1     -40.119  50.820 -53.647  1.00  0.00     0.002 A 
HETATM   15  C   UNL     1     -39.505  51.268 -52.479  1.00  0.00     0.001 A 
HETATM   16  C   UNL     1     -39.734  52.565 -52.005  1.00  0.00     0.014 A 
ENDROOT
BRANCH   1  17
HETATM   17  C   UNL     1     -42.620  56.977 -55.047  1.00  0.00    -0.029 A 
HETATM   18  C   UNL     1     -42.156  58.291 -55.182  1.00  0.00     0.012 A 
HETATM   19  C   UNL     1     -42.001  58.881 -56.441  1.00  0.00     0.038 A 
HETATM   20  C   UNL     1     -42.297  58.168 -57.604  1.00  0.00     0.074 A 
HETATM   21  C   UNL     1     -42.766  56.850 -57.498  1.00  0.00    -0.028 A 
HETATM   22  C   UNL     1     -43.128  56.055 -58.724  1.00  0.00     0.051 C 
HETATM   23  C   UNL     1     -42.938  56.275 -56.226  1.00  0.00     0.019 A 
BRANCH  20  24
HETATM   24  O   UNL     1     -42.183  58.665 -58.875  1.00  0.00    -0.355 OA
HETATM   25  C   UNL     1     -41.883  60.049 -59.008  1.00  0.00     0.210 C 
ENDBRANCH  20  24
ENDBRANCH   1  17
BRANCH   3  26
HETATM   26  C   UNL     1     -44.913  57.889 -52.507  1.00  0.00     0.108 C 
BRANCH  26  27
HETATM   27  C   UNL     1     -45.603  59.243 -52.664  1.00  0.00     0.051 C 
BRANCH  27  28
HETATM   28  C   UNL     1     -45.128  60.060 -53.820  1.00  0.00    -0.021 A 
HETATM   29  C   UNL     1     -45.456  59.961 -55.157  1.00  0.00     0.120 A 
HETATM   30  N   UNL     1     -44.788  60.965 -55.794  1.00  0.00    -0.285 N 
HETATM   31  C   UNL     1     -44.820  61.272 -57.203  1.00  0.00     0.179 C 
HETATM   32  N   UNL     1     -44.056  61.730 -54.966  1.00  0.00    -0.185 NA
HETATM   33  C   UNL     1     -44.253  61.171 -53.769  1.00  0.00     0.147 A 
ENDBRANCH  27  28
ENDBRANCH  26  27
ENDBRANCH   3  26
TORSDOF 5
ENDMDL
MODEL 6
REMARK VINA RESULT:      -6.9      4.482      8.020
REMARK  5 active torsions:
REMARK  status: ('A' for Active; 'I' for Inactive)
REMARK    1  A    between atoms: C_3  and  O_4 
REMARK    2  A    between atoms: C_8  and  C_9 
REMARK       I    between atoms: N_10  and  C_11 
REMARK    3  A    between atoms: C_11  and  C_12 
REMARK    4  A    between atoms: C_12  and  C_13 
REMARK    5  A    between atoms: C_13  and  C_14 
ROOT
HETATM    1  C   UNL     1     -44.682  60.325 -51.196  1.00  0.00     0.171 C 
HETATM    2  N   UNL     1     -44.089  61.265 -52.184  1.00  0.00    -0.338 N 
HETATM    3  C   UNL     1     -44.427  61.286 -53.534  1.00  0.00     0.221 C 
HETATM    4  O   UNL     1     -43.902  62.075 -54.323  1.00  0.00    -0.273 OA
HETATM    5  C   UNL     1     -43.112  62.263 -51.687  1.00  0.00     0.131 C 
HETATM    6  C   UNL     1     -43.711  63.169 -50.597  1.00  0.00     0.061 C 
HETATM    7  C   UNL     1     -44.383  62.319 -49.577  1.00  0.00    -0.019 A 
HETATM    8  C   UNL     1     -44.783  61.028 -49.870  1.00  0.00     0.044 A 
HETATM    9  N   UNL     1     -45.367  60.512 -48.742  1.00  0.00    -0.356 N 
HETATM   10  H   UNL     1     -45.742  59.579 -48.645  1.00  0.00     0.166 HD
HETATM   11  C   UNL     1     -45.404  61.466 -47.748  1.00  0.00     0.043 A 
HETATM   12  C   UNL     1     -44.780  62.612 -48.245  1.00  0.00    -0.001 A 
HETATM   13  C   UNL     1     -45.946  61.401 -46.459  1.00  0.00     0.030 A 
HETATM   14  C   UNL     1     -45.852  62.542 -45.658  1.00  0.00     0.002 A 
HETATM   15  C   UNL     1     -45.231  63.699 -46.126  1.00  0.00     0.001 A 
HETATM   16  C   UNL     1     -44.689  63.746 -47.416  1.00  0.00     0.014 A 
ENDROOT
BRANCH   1  17
HETATM   17  C   UNL     1     -43.979  58.971 -51.123  1.00  0.00    -0.029 A 
HETATM   18  C   UNL     1     -44.665  57.751 -51.105  1.00  0.00     0.012 A 
HETATM   19  C   UNL     1     -43.978  56.532 -51.059  1.00  0.00     0.038 A 
HETATM   20  C   UNL     1     -42.583  56.500 -51.040  1.00  0.00     0.074 A 
HETATM   21  C   UNL     1     -41.870  57.709 -51.055  1.00  0.00    -0.028 A 
HETATM   22  C   UNL     1     -40.366  57.722 -51.003  1.00  0.00     0.051 C 
HETATM   23  C   UNL     1     -42.572  58.927 -51.080  1.00  0.00     0.019 A 
BRANCH  20  24
HETATM   24  O   UNL     1     -41.829  55.358 -50.987  1.00  0.00    -0.355 OA
HETATM   25  C   UNL     1     -41.928  54.566 -49.810  1.00  0.00     0.210 C 
ENDBRANCH  20  24
ENDBRANCH   1  17
BRANCH   3  26
HETATM   26  C   UNL     1     -45.540  60.351 -53.986  1.00  0.00     0.108 C 
BRANCH  26  27
HETATM   27  C   UNL     1     -45.175  59.509 -55.207  1.00  0.00     0.051 C 
BRANCH  27  28
HETATM   28  C   UNL     1     -44.381  58.280 -54.909  1.00  0.00    -0.021 A 
HETATM   29  C   UNL     1     -44.811  56.979 -54.740  1.00  0.00     0.120 A 
HETATM   30  N   UNL     1     -43.692  56.228 -54.528  1.00  0.00    -0.285 N 
HETATM   31  C   UNL     1     -43.631  54.804 -54.307  1.00  0.00     0.179 C 
HETATM   32  N   UNL     1     -42.553  56.942 -54.565  1.00  0.00    -0.185 NA
HETATM   33  C   UNL     1     -42.974  58.190 -54.782  1.00  0.00     0.147 A 
ENDBRANCH  27  28
ENDBRANCH  26  27
ENDBRANCH   3  26
TORSDOF 5
ENDMDL
MODEL 7
REMARK VINA RESULT:      -6.9     17.071     20.008
REMARK  5 active torsions:
REMARK  status: ('A' for Active; 'I' for Inactive)
REMARK    1  A    between atoms: C_3  and  O_4 
REMARK    2  A    between atoms: C_8  and  C_9 
REMARK       I    between atoms: N_10  and  C_11 
REMARK    3  A    between atoms: C_11  and  C_12 
REMARK    4  A    between atoms: C_12  and  C_13 
REMARK    5  A    between atoms: C_13  and  C_14 
ROOT
HETATM    1  C   UNL     1     -35.165  39.639 -56.570  1.00  0.00     0.171 C 
HETATM    2  N   UNL     1     -35.543  40.871 -57.313  1.00  0.00    -0.338 N 
HETATM    3  C   UNL     1     -36.393  40.882 -58.415  1.00  0.00     0.221 C 
HETATM    4  O   UNL     1     -36.671  41.925 -59.010  1.00  0.00    -0.273 OA
HETATM    5  C   UNL     1     -35.012  42.164 -56.819  1.00  0.00     0.131 C 
HETATM    6  C   UNL     1     -35.425  42.444 -55.364  1.00  0.00     0.061 C 
HETATM    7  C   UNL     1     -35.137  41.240 -54.538  1.00  0.00    -0.019 A 
HETATM    8  C   UNL     1     -34.996  39.991 -55.117  1.00  0.00     0.044 A 
HETATM    9  N   UNL     1     -34.742  39.097 -54.110  1.00  0.00    -0.356 N 
HETATM   10  H   UNL     1     -34.576  38.108 -54.226  1.00  0.00     0.166 HD
HETATM   11  C   UNL     1     -34.777  39.735 -52.889  1.00  0.00     0.043 A 
HETATM   12  C   UNL     1     -35.013  41.090 -53.132  1.00  0.00    -0.001 A 
HETATM   13  C   UNL     1     -34.624  39.216 -51.598  1.00  0.00     0.030 A 
HETATM   14  C   UNL     1     -34.721  40.107 -50.526  1.00  0.00     0.002 A 
HETATM   15  C   UNL     1     -34.952  41.465 -50.738  1.00  0.00     0.001 A 
HETATM   16  C   UNL     1     -35.098  41.970 -52.036  1.00  0.00     0.014 A 
ENDROOT
BRANCH   1  17
HETATM   17  C   UNL     1     -33.975  38.892 -57.166  1.00  0.00    -0.029 A 
HETATM   18  C   UNL     1     -34.108  37.860 -58.102  1.00  0.00     0.012 A 
HETATM   19  C   UNL     1     -32.986  37.216 -58.638  1.00  0.00     0.038 A 
HETATM   20  C   UNL     1     -31.698  37.594 -58.257  1.00  0.00     0.074 A 
HETATM   21  C   UNL     1     -31.536  38.624 -57.318  1.00  0.00    -0.028 A 
HETATM   22  C   UNL     1     -30.166  39.041 -56.856  1.00  0.00     0.051 C 
HETATM   23  C   UNL     1     -32.671  39.249 -56.772  1.00  0.00     0.019 A 
BRANCH  20  24
HETATM   24  O   UNL     1     -30.546  37.016 -58.722  1.00  0.00    -0.355 OA
HETATM   25  C   UNL     1     -30.386  36.926 -60.132  1.00  0.00     0.210 C 
ENDBRANCH  20  24
ENDBRANCH   1  17
BRANCH   3  26
HETATM   26  C   UNL     1     -37.041  39.561 -58.806  1.00  0.00     0.108 C 
BRANCH  26  27
HETATM   27  C   UNL     1     -37.773  39.611 -60.146  1.00  0.00     0.051 C 
BRANCH  27  28
HETATM   28  C   UNL     1     -37.028  39.012 -61.293  1.00  0.00    -0.021 A 
HETATM   29  C   UNL     1     -35.762  38.462 -61.324  1.00  0.00     0.120 A 
HETATM   30  N   UNL     1     -35.566  38.018 -62.599  1.00  0.00    -0.285 N 
HETATM   31  C   UNL     1     -34.391  37.361 -63.118  1.00  0.00     0.179 C 
HETATM   32  N   UNL     1     -36.622  38.221 -63.405  1.00  0.00    -0.185 NA
HETATM   33  C   UNL     1     -37.504  38.837 -62.614  1.00  0.00     0.147 A 
ENDBRANCH  27  28
ENDBRANCH  26  27
ENDBRANCH   3  26
TORSDOF 5
ENDMDL
MODEL 8
REMARK VINA RESULT:      -6.8      3.880      7.493
REMARK  5 active torsions:
REMARK  status: ('A' for Active; 'I' for Inactive)
REMARK    1  A    between atoms: C_3  and  O_4 
REMARK    2  A    between atoms: C_8  and  C_9 
REMARK       I    between atoms: N_10  and  C_11 
REMARK    3  A    between atoms: C_11  and  C_12 
REMARK    4  A    between atoms: C_12  and  C_13 
REMARK    5  A    between atoms: C_13  and  C_14 
ROOT
HETATM    1  C   UNL     1     -43.906  59.199 -51.854  1.00  0.00     0.171 C 
HETATM    2  N   UNL     1     -43.323  59.902 -53.028  1.00  0.00    -0.338 N 
HETATM    3  C   UNL     1     -43.562  59.536 -54.349  1.00  0.00     0.221 C 
HETATM    4  O   UNL     1     -43.048  60.140 -55.293  1.00  0.00    -0.273 OA
HETATM    5  C   UNL     1     -42.471  61.088 -52.768  1.00  0.00     0.131 C 
HETATM    6  C   UNL     1     -43.222  62.182 -51.990  1.00  0.00     0.061 C 
HETATM    7  C   UNL     1     -43.893  61.566 -50.814  1.00  0.00    -0.019 A 
HETATM    8  C   UNL     1     -44.162  60.210 -50.770  1.00  0.00     0.044 A 
HETATM    9  N   UNL     1     -44.781  59.951 -49.575  1.00  0.00    -0.356 N 
HETATM   10  H   UNL     1     -45.083  59.043 -49.251  1.00  0.00     0.166 HD
HETATM   11  C   UNL     1     -44.970  61.123 -48.875  1.00  0.00     0.043 A 
HETATM   12  C   UNL     1     -44.409  62.155 -49.629  1.00  0.00    -0.001 A 
HETATM   13  C   UNL     1     -45.597  61.343 -47.643  1.00  0.00     0.030 A 
HETATM   14  C   UNL     1     -45.657  62.657 -47.172  1.00  0.00     0.002 A 
HETATM   15  C   UNL     1     -45.102  63.707 -47.901  1.00  0.00     0.001 A 
HETATM   16  C   UNL     1     -44.473  63.470 -49.130  1.00  0.00     0.014 A 
ENDROOT
BRANCH   1  17
HETATM   17  C   UNL     1     -43.100  57.988 -51.389  1.00  0.00    -0.029 A 
HETATM   18  C   UNL     1     -41.761  58.065 -50.988  1.00  0.00     0.012 A 
HETATM   19  C   UNL     1     -41.067  56.932 -50.549  1.00  0.00     0.038 A 
HETATM   20  C   UNL     1     -41.698  55.688 -50.491  1.00  0.00     0.074 A 
HETATM   21  C   UNL     1     -43.039  55.581 -50.889  1.00  0.00    -0.028 A 
HETATM   22  C   UNL     1     -43.749  54.254 -50.873  1.00  0.00     0.051 C 
HETATM   23  C   UNL     1     -43.719  56.724 -51.348  1.00  0.00     0.019 A 
BRANCH  20  24
HETATM   24  O   UNL     1     -41.097  54.526 -50.083  1.00  0.00    -0.355 OA
HETATM   25  C   UNL     1     -40.726  54.432 -48.714  1.00  0.00     0.210 C 
ENDBRANCH  20  24
ENDBRANCH   1  17
BRANCH   3  26
HETATM   26  C   UNL     1     -44.558  58.410 -54.589  1.00  0.00     0.108 C 
BRANCH  26  27
HETATM   27  C   UNL     1     -43.902  57.083 -54.970  1.00  0.00     0.051 C 
BRANCH  27  28
HETATM   28  C   UNL     1     -43.733  56.865 -56.437  1.00  0.00    -0.021 A 
HETATM   29  C   UNL     1     -44.222  57.605 -57.496  1.00  0.00     0.120 A 
HETATM   30  N   UNL     1     -43.751  57.013 -58.630  1.00  0.00    -0.285 N 
HETATM   31  C   UNL     1     -43.987  57.431 -59.991  1.00  0.00     0.179 C 
HETATM   32  N   UNL     1     -42.970  55.945 -58.392  1.00  0.00    -0.185 NA
HETATM   33  C   UNL     1     -42.971  55.848 -57.060  1.00  0.00     0.147 A 
ENDBRANCH  27  28
ENDBRANCH  26  27
ENDBRANCH   3  26
TORSDOF 5
ENDMDL
MODEL 9
REMARK VINA RESULT:      -6.8      2.265      3.613
REMARK  5 active torsions:
REMARK  status: ('A' for Active; 'I' for Inactive)
REMARK    1  A    between atoms: C_3  and  O_4 
REMARK    2  A    between atoms: C_8  and  C_9 
REMARK       I    between atoms: N_10  and  C_11 
REMARK    3  A    between atoms: C_11  and  C_12 
REMARK    4  A    between atoms: C_12  and  C_13 
REMARK    5  A    between atoms: C_13  and  C_14 
ROOT
HETATM    1  C   UNL     1     -43.942  57.563 -57.443  1.00  0.00     0.171 C 
HETATM    2  N   UNL     1     -45.278  57.939 -56.907  1.00  0.00    -0.338 N 
HETATM    3  C   UNL     1     -46.425  58.045 -57.687  1.00  0.00     0.221 C 
HETATM    4  O   UNL     1     -47.511  58.372 -57.204  1.00  0.00    -0.273 OA
HETATM    5  C   UNL     1     -45.393  58.173 -55.448  1.00  0.00     0.131 C 
HETATM    6  C   UNL     1     -44.976  56.941 -54.627  1.00  0.00     0.061 C 
HETATM    7  C   UNL     1     -43.664  56.448 -55.126  1.00  0.00    -0.019 A 
HETATM    8  C   UNL     1     -43.212  56.771 -56.393  1.00  0.00     0.044 A 
HETATM    9  N   UNL     1     -41.990  56.172 -56.559  1.00  0.00    -0.356 N 
HETATM   10  H   UNL     1     -41.405  56.241 -57.379  1.00  0.00     0.166 HD
HETATM   11  C   UNL     1     -41.675  55.422 -55.447  1.00  0.00     0.043 A 
HETATM   12  C   UNL     1     -42.709  55.588 -54.524  1.00  0.00    -0.001 A 
HETATM   13  C   UNL     1     -40.562  54.610 -55.196  1.00  0.00     0.030 A 
HETATM   14  C   UNL     1     -40.509  53.945 -53.969  1.00  0.00     0.002 A 
HETATM   15  C   UNL     1     -41.525  54.095 -53.026  1.00  0.00     0.001 A 
HETATM   16  C   UNL     1     -42.629  54.914 -53.290  1.00  0.00     0.014 A 
ENDROOT
BRANCH   1  17
HETATM   17  C   UNL     1     -43.140  58.737 -57.999  1.00  0.00    -0.029 A 
HETATM   18  C   UNL     1     -42.682  59.797 -57.207  1.00  0.00     0.012 A 
HETATM   19  C   UNL     1     -41.931  60.843 -57.756  1.00  0.00     0.038 A 
HETATM   20  C   UNL     1     -41.609  60.852 -59.114  1.00  0.00     0.074 A 
HETATM   21  C   UNL     1     -42.057  59.803 -59.931  1.00  0.00    -0.028 A 
HETATM   22  C   UNL     1     -41.759  59.791 -61.407  1.00  0.00     0.051 C 
HETATM   23  C   UNL     1     -42.828  58.769 -59.372  1.00  0.00     0.019 A 
BRANCH  20  24
HETATM   24  O   UNL     1     -40.887  61.836 -59.738  1.00  0.00    -0.355 OA
HETATM   25  C   UNL     1     -39.945  62.551 -58.949  1.00  0.00     0.210 C 
ENDBRANCH  20  24
ENDBRANCH   1  17
BRANCH   3  26
HETATM   26  C   UNL     1     -46.307  57.653 -59.154  1.00  0.00     0.108 C 
BRANCH  26  27
HETATM   27  C   UNL     1     -46.907  58.680 -60.112  1.00  0.00     0.051 C 
BRANCH  27  28
HETATM   28  C   UNL     1     -46.110  59.932 -60.273  1.00  0.00    -0.021 A 
HETATM   29  C   UNL     1     -45.498  60.443 -61.400  1.00  0.00     0.120 A 
HETATM   30  N   UNL     1     -44.935  61.629 -61.030  1.00  0.00    -0.285 N 
HETATM   31  C   UNL     1     -44.191  62.537 -61.869  1.00  0.00     0.179 C 
HETATM   32  N   UNL     1     -45.150  61.944 -59.741  1.00  0.00    -0.185 NA
HETATM   33  C   UNL     1     -45.852  60.906 -59.279  1.00  0.00     0.147 A 
ENDBRANCH  27  28
ENDBRANCH  26  27
ENDBRANCH   3  26
TORSDOF 5
ENDMDL
MODEL 10
REMARK VINA RESULT:      -6.8      2.453      7.785
REMARK  5 active torsions:
REMARK  status: ('A' for Active; 'I' for Inactive)
REMARK    1  A    between atoms: C_3  and  O_4 
REMARK    2  A    between atoms: C_8  and  C_9 
REMARK       I    between atoms: N_10  and  C_11 
REMARK    3  A    between atoms: C_11  and  C_12 
REMARK    4  A    between atoms: C_12  and  C_13 
REMARK    5  A    between atoms: C_13  and  C_14 
ROOT
HETATM    1  C   UNL     1     -44.185  56.907 -55.070  1.00  0.00     0.171 C 
HETATM    2  N   UNL     1     -42.849  56.402 -55.486  1.00  0.00    -0.338 N 
HETATM    3  C   UNL     1     -42.267  55.243 -54.982  1.00  0.00     0.221 C 
HETATM    4  O   UNL     1     -41.151  54.867 -55.345  1.00  0.00    -0.273 OA
HETATM    5  C   UNL     1     -42.120  57.161 -56.530  1.00  0.00     0.131 C 
HETATM    6  C   UNL     1     -42.923  57.267 -57.838  1.00  0.00     0.061 C 
HETATM    7  C   UNL     1     -44.306  57.716 -57.523  1.00  0.00    -0.019 A 
HETATM    8  C   UNL     1     -44.837  57.567 -56.255  1.00  0.00     0.044 A 
HETATM    9  N   UNL     1     -46.113  58.066 -56.281  1.00  0.00    -0.356 N 
HETATM   10  H   UNL     1     -46.746  58.110 -55.496  1.00  0.00     0.166 HD
HETATM   11  C   UNL     1     -46.434  58.479 -57.556  1.00  0.00     0.043 A 
HETATM   12  C   UNL     1     -45.307  58.280 -58.356  1.00  0.00    -0.001 A 
HETATM   13  C   UNL     1     -47.632  59.004 -58.056  1.00  0.00     0.030 A 
HETATM   14  C   UNL     1     -47.679  59.329 -59.414  1.00  0.00     0.002 A 
HETATM   15  C   UNL     1     -46.569  59.145 -60.236  1.00  0.00     0.001 A 
HETATM   16  C   UNL     1     -45.377  58.624 -59.720  1.00  0.00     0.014 A 
ENDROOT
BRANCH   1  17
HETATM   17  C   UNL     1     -44.160  57.779 -53.816  1.00  0.00    -0.029 A 
HETATM   18  C   UNL     1     -44.700  57.374 -52.590  1.00  0.00     0.012 A 
HETATM   19  C   UNL     1     -44.635  58.199 -51.460  1.00  0.00     0.038 A 
HETATM   20  C   UNL     1     -44.019  59.450 -51.525  1.00  0.00     0.074 A 
HETATM   21  C   UNL     1     -43.472  59.881 -52.743  1.00  0.00    -0.028 A 
HETATM   22  C   UNL     1     -42.826  61.235 -52.865  1.00  0.00     0.051 C 
HETATM   23  C   UNL     1     -43.561  59.052 -53.875  1.00  0.00     0.019 A 
BRANCH  20  24
HETATM   24  O   UNL     1     -43.917  60.324 -50.476  1.00  0.00    -0.355 OA
HETATM   25  C   UNL     1     -45.111  60.635 -49.769  1.00  0.00     0.210 C 
ENDBRANCH  20  24
ENDBRANCH   1  17
BRANCH   3  26
HETATM   26  C   UNL     1     -43.102  54.406 -54.023  1.00  0.00     0.108 C 
BRANCH  26  27
HETATM   27  C   UNL     1     -42.325  53.914 -52.803  1.00  0.00     0.051 C 
BRANCH  27  28
HETATM   28  C   UNL     1     -41.939  54.980 -51.832  1.00  0.00    -0.021 A 
HETATM   29  C   UNL     1     -41.360  56.211 -52.067  1.00  0.00     0.120 A 
HETATM   30  N   UNL     1     -41.250  56.824 -50.853  1.00  0.00    -0.285 N 
HETATM   31  C   UNL     1     -40.711  58.135 -50.588  1.00  0.00     0.179 C 
HETATM   32  N   UNL     1     -41.734  56.089 -49.837  1.00  0.00    -0.185 NA
HETATM   33  C   UNL     1     -42.140  54.964 -50.431  1.00  0.00     0.147 A 
ENDBRANCH  27  28
ENDBRANCH  26  27
ENDBRANCH   3  26
TORSDOF 5
ENDMDL
