MODEL 1
REMARK VINA RESULT:      -7.5      0.000      0.000
REMARK  6 active torsions:
REMARK  status: ('A' for Active; 'I' for Inactive)
REMARK    1  A    between atoms: C_2  and  O_3 
REMARK    2  A    between atoms: C_2  and  C_4 
REMARK    3  A    between atoms: C_2  and  C_11 
REMARK    4  A    between atoms: C_11  and  N_12 
REMARK       I    between atoms: N_12  and  C_13 
REMARK    5  A    between atoms: C_13  and  C_14 
REMARK    6  A    between atoms: C_15  and  C_16 
ROOT
HETATM    1  N   UNL     1     -41.806  53.952 -54.846  1.00  0.00    -0.354 N 
HETATM    2  C   UNL     1     -40.471  53.690 -54.627  1.00  0.00     0.255 C 
HETATM    3  O   UNL     1     -39.578  54.413 -55.054  1.00  0.00    -0.268 OA
HETATM    4  H   UNL     1     -42.490  53.467 -54.281  1.00  0.00     0.162 HD
ENDROOT
BRANCH   2   5
HETATM    5  C   UNL     1     -40.213  52.489 -53.847  1.00  0.00     0.080 A 
HETATM    6  C   UNL     1     -40.212  52.329 -52.424  1.00  0.00     0.107 A 
HETATM    7  N   UNL     1     -39.841  51.082 -52.078  1.00  0.00    -0.173 NA
HETATM    8  N   UNL     1     -39.651  50.452 -53.242  1.00  0.00    -0.288 N 
HETATM    9  H   UNL     1     -39.366  49.478 -53.216  1.00  0.00     0.188 HD
HETATM   10  C   UNL     1     -39.859  51.240 -54.330  1.00  0.00     0.128 A 
BRANCH   6  11
HETATM   11  C   UNL     1     -40.548  53.300 -51.389  1.00  0.00     0.034 A 
HETATM   12  C   UNL     1     -41.853  53.778 -51.240  1.00  0.00     0.129 A 
HETATM   13  F   UNL     1     -42.840  53.336 -52.035  1.00  0.00    -0.205 F 
HETATM   14  C   UNL     1     -42.173  54.699 -50.244  1.00  0.00     0.043 A 
HETATM   15  C   UNL     1     -41.183  55.147 -49.370  1.00  0.00     0.003 A 
HETATM   16  C   UNL     1     -39.880  54.667 -49.492  1.00  0.00     0.001 A 
HETATM   17  C   UNL     1     -39.563  53.745 -50.495  1.00  0.00     0.017 A 
ENDBRANCH   6  11
ENDBRANCH   2   5
BRANCH   1  18
HETATM   18  C   UNL     1     -42.262  55.174 -55.493  1.00  0.00     0.165 C 
BRANCH  18  19
HETATM   19  C   UNL     1     -43.446  55.853 -54.751  1.00  0.00     0.097 C 
HETATM   20  C   UNL     1     -44.496  54.836 -54.276  1.00  0.00     0.053 C 
BRANCH  19  21
HETATM   21  O   UNL     1     -44.102  56.719 -55.701  1.00  0.00    -0.384 OA
HETATM   22  H   UNL     1     -43.582  56.670 -56.523  1.00  0.00     0.211 HD
ENDBRANCH  19  21
BRANCH  19  23
HETATM   23  C   UNL     1     -42.909  56.684 -53.582  1.00  0.00    -0.023 A 
HETATM   24  C   UNL     1     -43.783  57.181 -52.594  1.00  0.00     0.013 A 
HETATM   25  C   UNL     1     -43.302  57.936 -51.521  1.00  0.00     0.043 A 
HETATM   26  C   UNL     1     -41.942  58.197 -51.421  1.00  0.00     0.116 A 
HETATM   27  F   UNL     1     -41.481  58.922 -50.394  1.00  0.00    -0.206 F 
HETATM   28  C   UNL     1     -41.054  57.711 -52.370  1.00  0.00     0.043 A 
HETATM   29  C   UNL     1     -41.533  56.953 -53.441  1.00  0.00     0.013 A 
ENDBRANCH  19  23
ENDBRANCH  18  19
ENDBRANCH   1  18
TORSDOF 6
ENDMDL
MODEL 2
REMARK VINA RESULT:      -7.4      2.956      6.530
REMARK  6 active torsions:
REMARK  status: ('A' for Active; 'I' for Inactive)
REMARK    1  A    between atoms: C_2  and  O_3 
REMARK    2  A    between atoms: C_2  and  C_4 
REMARK    3  A    between atoms: C_2  and  C_11 
REMARK    4  A    between atoms: C_11  and  N_12 
REMARK       I    between atoms: N_12  and  C_13 
REMARK    5  A    between atoms: C_13  and  C_14 
REMARK    6  A    between atoms: C_15  and  C_16 
ROOT
HETATM    1  N   UNL     1     -42.474  55.210 -50.754  1.00  0.00    -0.354 N 
HETATM    2  C   UNL     1     -43.706  55.804 -50.922  1.00  0.00     0.255 C 
HETATM    3  O   UNL     1     -44.692  55.474 -50.272  1.00  0.00    -0.268 OA
HETATM    4  H   UNL     1     -41.661  55.673 -51.136  1.00  0.00     0.162 HD
ENDROOT
BRANCH   2   5
HETATM    5  C   UNL     1     -43.737  56.852 -51.931  1.00  0.00     0.080 A 
HETATM    6  C   UNL     1     -43.096  56.883 -53.210  1.00  0.00     0.107 A 
HETATM    7  N   UNL     1     -43.290  58.067 -53.821  1.00  0.00    -0.173 NA
HETATM    8  N   UNL     1     -44.066  58.757 -52.978  1.00  0.00    -0.288 N 
HETATM    9  H   UNL     1     -44.346  59.695 -53.247  1.00  0.00     0.188 HD
HETATM   10  C   UNL     1     -44.365  58.083 -51.836  1.00  0.00     0.128 A 
BRANCH   6  11
HETATM   11  C   UNL     1     -42.315  55.844 -53.873  1.00  0.00     0.034 A 
HETATM   12  C   UNL     1     -42.923  54.690 -54.375  1.00  0.00     0.129 A 
HETATM   13  F   UNL     1     -44.252  54.519 -54.281  1.00  0.00    -0.205 F 
HETATM   14  C   UNL     1     -42.176  53.704 -55.017  1.00  0.00     0.043 A 
HETATM   15  C   UNL     1     -40.801  53.867 -55.174  1.00  0.00     0.003 A 
HETATM   16  C   UNL     1     -40.180  55.021 -54.695  1.00  0.00     0.001 A 
HETATM   17  C   UNL     1     -40.933  56.006 -54.050  1.00  0.00     0.017 A 
ENDBRANCH   6  11
ENDBRANCH   2   5
BRANCH   1  18
HETATM   18  C   UNL     1     -42.219  54.234 -49.704  1.00  0.00     0.165 C 
BRANCH  18  19
HETATM   19  C   UNL     1     -40.709  53.920 -49.516  1.00  0.00     0.097 C 
HETATM   20  C   UNL     1     -40.329  53.751 -48.036  1.00  0.00     0.053 C 
BRANCH  19  21
HETATM   21  O   UNL     1     -39.974  55.060 -50.009  1.00  0.00    -0.384 OA
HETATM   22  H   UNL     1     -39.213  54.706 -50.502  1.00  0.00     0.211 HD
ENDBRANCH  19  21
BRANCH  19  23
HETATM   23  C   UNL     1     -40.339  52.676 -50.330  1.00  0.00    -0.023 A 
HETATM   24  C   UNL     1     -39.904  52.797 -51.665  1.00  0.00     0.013 A 
HETATM   25  C   UNL     1     -39.559  51.669 -52.414  1.00  0.00     0.043 A 
HETATM   26  C   UNL     1     -39.641  50.410 -51.836  1.00  0.00     0.116 A 
HETATM   27  F   UNL     1     -39.313  49.329 -52.555  1.00  0.00    -0.206 F 
HETATM   28  C   UNL     1     -40.053  50.258 -50.520  1.00  0.00     0.043 A 
HETATM   29  C   UNL     1     -40.394  51.385 -49.768  1.00  0.00     0.013 A 
ENDBRANCH  19  23
ENDBRANCH  18  19
ENDBRANCH   1  18
TORSDOF 6
ENDMDL
MODEL 3
REMARK VINA RESULT:      -7.4      3.931      7.895
REMARK  6 active torsions:
REMARK  status: ('A' for Active; 'I' for Inactive)
REMARK    1  A    between atoms: C_2  and  O_3 
REMARK    2  A    between atoms: C_2  and  C_4 
REMARK    3  A    between atoms: C_2  and  C_11 
REMARK    4  A    between atoms: C_11  and  N_12 
REMARK       I    between atoms: N_12  and  C_13 
REMARK    5  A    between atoms: C_13  and  C_14 
REMARK    6  A    between atoms: C_15  and  C_16 
ROOT
HETATM    1  N   UNL     1     -42.054  55.628 -56.212  1.00  0.00    -0.354 N 
HETATM    2  C   UNL     1     -43.021  56.596 -56.050  1.00  0.00     0.255 C 
HETATM    3  O   UNL     1     -43.925  56.495 -55.229  1.00  0.00    -0.268 OA
HETATM    4  H   UNL     1     -41.214  55.867 -56.723  1.00  0.00     0.162 HD
ENDROOT
BRANCH   2   5
HETATM    5  C   UNL     1     -42.876  57.746 -56.931  1.00  0.00     0.080 A 
HETATM    6  C   UNL     1     -43.378  57.925 -58.260  1.00  0.00     0.107 A 
HETATM    7  N   UNL     1     -42.959  59.093 -58.781  1.00  0.00    -0.173 NA
HETATM    8  N   UNL     1     -42.248  59.663 -57.804  1.00  0.00    -0.288 N 
HETATM    9  H   UNL     1     -41.835  60.572 -57.982  1.00  0.00     0.188 HD
HETATM   10  C   UNL     1     -42.165  58.906 -56.677  1.00  0.00     0.128 A 
BRANCH   6  11
HETATM   11  C   UNL     1     -44.232  57.043 -59.046  1.00  0.00     0.034 A 
HETATM   12  C   UNL     1     -43.715  55.912 -59.685  1.00  0.00     0.129 A 
HETATM   13  F   UNL     1     -42.415  55.594 -59.570  1.00  0.00    -0.205 F 
HETATM   14  C   UNL     1     -44.536  55.065 -60.427  1.00  0.00     0.043 A 
HETATM   15  C   UNL     1     -45.899  55.337 -60.532  1.00  0.00     0.003 A 
HETATM   16  C   UNL     1     -46.436  56.451 -59.887  1.00  0.00     0.001 A 
HETATM   17  C   UNL     1     -45.608  57.299 -59.145  1.00  0.00     0.017 A 
ENDBRANCH   6  11
ENDBRANCH   2   5
BRANCH   1  18
HETATM   18  C   UNL     1     -41.959  54.470 -55.334  1.00  0.00     0.165 C 
BRANCH  18  19
HETATM   19  C   UNL     1     -40.778  54.560 -54.329  1.00  0.00     0.097 C 
HETATM   20  C   UNL     1     -41.087  55.495 -53.150  1.00  0.00     0.053 C 
BRANCH  19  21
HETATM   21  O   UNL     1     -39.661  55.136 -55.038  1.00  0.00    -0.384 OA
HETATM   22  H   UNL     1     -39.065  54.399 -55.260  1.00  0.00     0.211 HD
ENDBRANCH  19  21
BRANCH  19  23
HETATM   23  C   UNL     1     -40.411  53.154 -53.843  1.00  0.00    -0.023 A 
HETATM   24  C   UNL     1     -40.112  52.921 -52.486  1.00  0.00     0.013 A 
HETATM   25  C   UNL     1     -39.781  51.641 -52.032  1.00  0.00     0.043 A 
HETATM   26  C   UNL     1     -39.750  50.582 -52.928  1.00  0.00     0.116 A 
HETATM   27  F   UNL     1     -39.431  49.356 -52.493  1.00  0.00    -0.206 F 
HETATM   28  C   UNL     1     -40.051  50.776 -54.269  1.00  0.00     0.043 A 
HETATM   29  C   UNL     1     -40.387  52.054 -54.724  1.00  0.00     0.013 A 
ENDBRANCH  19  23
ENDBRANCH  18  19
ENDBRANCH   1  18
TORSDOF 6
ENDMDL
MODEL 4
REMARK VINA RESULT:      -7.3      3.518      7.286
REMARK  6 active torsions:
REMARK  status: ('A' for Active; 'I' for Inactive)
REMARK    1  A    between atoms: C_2  and  O_3 
REMARK    2  A    between atoms: C_2  and  C_4 
REMARK    3  A    between atoms: C_2  and  C_11 
REMARK    4  A    between atoms: C_11  and  N_12 
REMARK       I    between atoms: N_12  and  C_13 
REMARK    5  A    between atoms: C_13  and  C_14 
REMARK    6  A    between atoms: C_15  and  C_16 
ROOT
HETATM    1  N   UNL     1     -42.328  56.531 -53.543  1.00  0.00    -0.354 N 
HETATM    2  C   UNL     1     -42.518  56.466 -54.906  1.00  0.00     0.255 C 
HETATM    3  O   UNL     1     -41.684  55.988 -55.667  1.00  0.00    -0.268 OA
HETATM    4  H   UNL     1     -43.129  56.709 -52.953  1.00  0.00     0.162 HD
ENDROOT
BRANCH   2   5
HETATM    5  C   UNL     1     -43.790  57.006 -55.363  1.00  0.00     0.080 A 
HETATM    6  C   UNL     1     -44.137  57.504 -56.660  1.00  0.00     0.107 A 
HETATM    7  N   UNL     1     -45.388  58.002 -56.667  1.00  0.00    -0.173 NA
HETATM    8  N   UNL     1     -45.842  57.791 -55.428  1.00  0.00    -0.288 N 
HETATM    9  H   UNL     1     -46.787  58.090 -55.209  1.00  0.00     0.188 HD
HETATM   10  C   UNL     1     -44.934  57.200 -54.607  1.00  0.00     0.128 A 
BRANCH   6  11
HETATM   11  C   UNL     1     -43.340  57.525 -57.881  1.00  0.00     0.034 A 
HETATM   12  C   UNL     1     -43.152  56.368 -58.643  1.00  0.00     0.129 A 
HETATM   13  F   UNL     1     -43.723  55.208 -58.282  1.00  0.00    -0.205 F 
HETATM   14  C   UNL     1     -42.398  56.394 -59.815  1.00  0.00     0.043 A 
HETATM   15  C   UNL     1     -41.826  57.590 -60.247  1.00  0.00     0.003 A 
HETATM   16  C   UNL     1     -42.018  58.757 -59.508  1.00  0.00     0.001 A 
HETATM   17  C   UNL     1     -42.774  58.726 -58.332  1.00  0.00     0.017 A 
ENDBRANCH   6  11
ENDBRANCH   2   5
BRANCH   1  18
HETATM   18  C   UNL     1     -41.177  55.924 -52.889  1.00  0.00     0.165 C 
BRANCH  18  19
HETATM   19  C   UNL     1     -41.549  54.697 -52.011  1.00  0.00     0.097 C 
HETATM   20  C   UNL     1     -43.069  54.506 -51.893  1.00  0.00     0.053 C 
BRANCH  19  21
HETATM   21  O   UNL     1     -41.057  54.963 -50.681  1.00  0.00    -0.384 OA
HETATM   22  H   UNL     1     -41.644  54.486 -50.069  1.00  0.00     0.211 HD
ENDBRANCH  19  21
BRANCH  19  23
HETATM   23  C   UNL     1     -40.871  53.442 -52.570  1.00  0.00    -0.023 A 
HETATM   24  C   UNL     1     -40.052  52.644 -51.748  1.00  0.00     0.013 A 
HETATM   25  C   UNL     1     -39.434  51.494 -52.247  1.00  0.00     0.043 A 
HETATM   26  C   UNL     1     -39.633  51.128 -53.572  1.00  0.00     0.116 A 
HETATM   27  F   UNL     1     -39.038  50.028 -54.051  1.00  0.00    -0.206 F 
HETATM   28  C   UNL     1     -40.444  51.887 -54.404  1.00  0.00     0.043 A 
HETATM   29  C   UNL     1     -41.066  53.034 -53.905  1.00  0.00     0.013 A 
ENDBRANCH  19  23
ENDBRANCH  18  19
ENDBRANCH   1  18
TORSDOF 6
ENDMDL
MODEL 5
REMARK VINA RESULT:      -7.3      2.771      4.526
REMARK  6 active torsions:
REMARK  status: ('A' for Active; 'I' for Inactive)
REMARK    1  A    between atoms: C_2  and  O_3 
REMARK    2  A    between atoms: C_2  and  C_4 
REMARK    3  A    between atoms: C_2  and  C_11 
REMARK    4  A    between atoms: C_11  and  N_12 
REMARK       I    between atoms: N_12  and  C_13 
REMARK    5  A    between atoms: C_13  and  C_14 
REMARK    6  A    between atoms: C_15  and  C_16 
ROOT
HETATM    1  N   UNL     1     -43.186  56.514 -50.649  1.00  0.00    -0.354 N 
HETATM    2  C   UNL     1     -43.013  55.150 -50.557  1.00  0.00     0.255 C 
HETATM    3  O   UNL     1     -43.912  54.353 -50.800  1.00  0.00    -0.268 OA
HETATM    4  H   UNL     1     -42.364  57.103 -50.672  1.00  0.00     0.162 HD
ENDROOT
BRANCH   2   5
HETATM    5  C   UNL     1     -41.677  54.739 -50.152  1.00  0.00     0.080 A 
HETATM    6  C   UNL     1     -40.620  54.207 -50.958  1.00  0.00     0.107 A 
HETATM    7  N   UNL     1     -39.561  53.864 -50.202  1.00  0.00    -0.173 NA
HETATM    8  N   UNL     1     -39.911  54.204 -48.957  1.00  0.00    -0.288 N 
HETATM    9  H   UNL     1     -39.244  54.034 -48.211  1.00  0.00     0.188 HD
HETATM   10  C   UNL     1     -41.161  54.731 -48.867  1.00  0.00     0.128 A 
BRANCH   6  11
HETATM   11  C   UNL     1     -40.574  54.015 -52.403  1.00  0.00     0.034 A 
HETATM   12  C   UNL     1     -40.697  55.096 -53.282  1.00  0.00     0.129 A 
HETATM   13  F   UNL     1     -40.838  56.347 -52.815  1.00  0.00    -0.205 F 
HETATM   14  C   UNL     1     -40.643  54.910 -54.662  1.00  0.00     0.043 A 
HETATM   15  C   UNL     1     -40.451  53.632 -55.184  1.00  0.00     0.003 A 
HETATM   16  C   UNL     1     -40.309  52.545 -54.322  1.00  0.00     0.001 A 
HETATM   17  C   UNL     1     -40.367  52.735 -52.938  1.00  0.00     0.017 A 
ENDBRANCH   6  11
ENDBRANCH   2   5
BRANCH   1  18
HETATM   18  C   UNL     1     -44.412  57.109 -51.164  1.00  0.00     0.165 C 
BRANCH  18  19
HETATM   19  C   UNL     1     -44.170  58.435 -51.937  1.00  0.00     0.097 C 
HETATM   20  C   UNL     1     -43.211  59.377 -51.191  1.00  0.00     0.053 C 
BRANCH  19  21
HETATM   21  O   UNL     1     -45.441  59.114 -52.022  1.00  0.00    -0.384 OA
HETATM   22  H   UNL     1     -46.103  58.433 -52.236  1.00  0.00     0.211 HD
ENDBRANCH  19  21
BRANCH  19  23
HETATM   23  C   UNL     1     -43.657  58.121 -53.346  1.00  0.00    -0.023 A 
HETATM   24  C   UNL     1     -42.633  58.897 -53.925  1.00  0.00     0.013 A 
HETATM   25  C   UNL     1     -42.155  58.614 -55.207  1.00  0.00     0.043 A 
HETATM   26  C   UNL     1     -42.691  57.552 -55.921  1.00  0.00     0.116 A 
HETATM   27  F   UNL     1     -42.235  57.283 -57.151  1.00  0.00    -0.206 F 
HETATM   28  C   UNL     1     -43.692  56.761 -55.374  1.00  0.00     0.043 A 
HETATM   29  C   UNL     1     -44.168  57.039 -54.090  1.00  0.00     0.013 A 
ENDBRANCH  19  23
ENDBRANCH  18  19
ENDBRANCH   1  18
TORSDOF 6
ENDMDL
MODEL 6
REMARK VINA RESULT:      -7.2      3.225      6.576
REMARK  6 active torsions:
REMARK  status: ('A' for Active; 'I' for Inactive)
REMARK    1  A    between atoms: C_2  and  O_3 
REMARK    2  A    between atoms: C_2  and  C_4 
REMARK    3  A    between atoms: C_2  and  C_11 
REMARK    4  A    between atoms: C_11  and  N_12 
REMARK       I    between atoms: N_12  and  C_13 
REMARK    5  A    between atoms: C_13  and  C_14 
REMARK    6  A    between atoms: C_15  and  C_16 
ROOT
HETATM    1  N   UNL     1     -41.705  57.034 -50.519  1.00  0.00    -0.354 N 
HETATM    2  C   UNL     1     -41.104  58.199 -50.945  1.00  0.00     0.255 C 
HETATM    3  O   UNL     1     -39.912  58.427 -50.774  1.00  0.00    -0.268 OA
HETATM    4  H   UNL     1     -42.616  56.799 -50.890  1.00  0.00     0.162 HD
ENDROOT
BRANCH   2   5
HETATM    5  C   UNL     1     -42.000  59.129 -51.616  1.00  0.00     0.080 A 
HETATM    6  C   UNL     1     -42.739  58.944 -52.829  1.00  0.00     0.107 A 
HETATM    7  N   UNL     1     -43.390  60.069 -53.175  1.00  0.00    -0.173 NA
HETATM    8  N   UNL     1     -43.113  60.934 -52.194  1.00  0.00    -0.288 N 
HETATM    9  H   UNL     1     -43.514  61.864 -52.251  1.00  0.00     0.188 HD
HETATM   10  C   UNL     1     -42.290  60.429 -51.237  1.00  0.00     0.128 A 
BRANCH   6  11
HETATM   11  C   UNL     1     -42.852  57.753 -53.663  1.00  0.00     0.034 A 
HETATM   12  C   UNL     1     -43.855  56.804 -53.440  1.00  0.00     0.129 A 
HETATM   13  F   UNL     1     -44.758  56.978 -52.462  1.00  0.00    -0.205 F 
HETATM   14  C   UNL     1     -43.967  55.672 -54.246  1.00  0.00     0.043 A 
HETATM   15  C   UNL     1     -43.075  55.480 -55.301  1.00  0.00     0.003 A 
HETATM   16  C   UNL     1     -42.079  56.424 -55.548  1.00  0.00     0.001 A 
HETATM   17  C   UNL     1     -41.970  57.557 -54.736  1.00  0.00     0.017 A 
ENDBRANCH   6  11
ENDBRANCH   2   5
BRANCH   1  18
HETATM   18  C   UNL     1     -40.946  55.933 -49.944  1.00  0.00     0.165 C 
BRANCH  18  19
HETATM   19  C   UNL     1     -41.685  54.569 -50.032  1.00  0.00     0.097 C 
HETATM   20  C   UNL     1     -43.189  54.739 -50.297  1.00  0.00     0.053 C 
BRANCH  19  21
HETATM   21  O   UNL     1     -41.557  53.934 -48.743  1.00  0.00    -0.384 OA
HETATM   22  H   UNL     1     -40.794  54.350 -48.305  1.00  0.00     0.211 HD
ENDBRANCH  19  21
BRANCH  19  23
HETATM   23  C   UNL     1     -41.026  53.697 -51.105  1.00  0.00    -0.023 A 
HETATM   24  C   UNL     1     -40.283  52.555 -50.743  1.00  0.00     0.013 A 
HETATM   25  C   UNL     1     -39.683  51.750 -51.714  1.00  0.00     0.043 A 
HETATM   26  C   UNL     1     -39.823  52.074 -53.057  1.00  0.00     0.116 A 
HETATM   27  F   UNL     1     -39.245  51.304 -53.988  1.00  0.00    -0.206 F 
HETATM   28  C   UNL     1     -40.558  53.185 -53.446  1.00  0.00     0.043 A 
HETATM   29  C   UNL     1     -41.163  53.988 -52.477  1.00  0.00     0.013 A 
ENDBRANCH  19  23
ENDBRANCH  18  19
ENDBRANCH   1  18
TORSDOF 6
ENDMDL
MODEL 7
REMARK VINA RESULT:      -7.2      2.785      6.419
REMARK  6 active torsions:
REMARK  status: ('A' for Active; 'I' for Inactive)
REMARK    1  A    between atoms: C_2  and  O_3 
REMARK    2  A    between atoms: C_2  and  C_4 
REMARK    3  A    between atoms: C_2  and  C_11 
REMARK    4  A    between atoms: C_11  and  N_12 
REMARK       I    between atoms: N_12  and  C_13 
REMARK    5  A    between atoms: C_13  and  C_14 
REMARK    6  A    between atoms: C_15  and  C_16 
ROOT
HETATM    1  N   UNL     1     -41.337  56.210 -53.827  1.00  0.00    -0.354 N 
HETATM    2  C   UNL     1     -42.434  56.747 -54.466  1.00  0.00     0.255 C 
HETATM    3  O   UNL     1     -43.494  56.141 -54.577  1.00  0.00    -0.268 OA
HETATM    4  H   UNL     1     -40.585  56.831 -53.559  1.00  0.00     0.162 HD
ENDROOT
BRANCH   2   5
HETATM    5  C   UNL     1     -42.229  58.088 -54.991  1.00  0.00     0.080 A 
HETATM    6  C   UNL     1     -41.899  59.287 -54.281  1.00  0.00     0.107 A 
HETATM    7  N   UNL     1     -41.880  60.349 -55.108  1.00  0.00    -0.173 NA
HETATM    8  N   UNL     1     -42.148  59.841 -56.315  1.00  0.00    -0.288 N 
HETATM    9  H   UNL     1     -42.179  60.477 -57.105  1.00  0.00     0.188 HD
HETATM   10  C   UNL     1     -42.364  58.498 -56.306  1.00  0.00     0.128 A 
BRANCH   6  11
HETATM   11  C   UNL     1     -41.600  59.464 -52.865  1.00  0.00     0.034 A 
HETATM   12  C   UNL     1     -40.342  59.148 -52.344  1.00  0.00     0.129 A 
HETATM   13  F   UNL     1     -39.364  58.693 -53.143  1.00  0.00    -0.205 F 
HETATM   14  C   UNL     1     -40.057  59.327 -50.991  1.00  0.00     0.043 A 
HETATM   15  C   UNL     1     -41.033  59.841 -50.139  1.00  0.00     0.003 A 
HETATM   16  C   UNL     1     -42.288  60.179 -50.644  1.00  0.00     0.001 A 
HETATM   17  C   UNL     1     -42.570  59.995 -52.001  1.00  0.00     0.017 A 
ENDBRANCH   6  11
ENDBRANCH   2   5
BRANCH   1  18
HETATM   18  C   UNL     1     -41.392  54.935 -53.126  1.00  0.00     0.165 C 
BRANCH  18  19
HETATM   19  C   UNL     1     -41.012  53.726 -54.025  1.00  0.00     0.097 C 
HETATM   20  C   UNL     1     -40.002  54.109 -55.118  1.00  0.00     0.053 C 
BRANCH  19  21
HETATM   21  O   UNL     1     -42.217  53.305 -54.699  1.00  0.00    -0.384 OA
HETATM   22  H   UNL     1     -41.935  52.870 -55.523  1.00  0.00     0.211 HD
ENDBRANCH  19  21
BRANCH  19  23
HETATM   23  C   UNL     1     -40.482  52.585 -53.153  1.00  0.00    -0.023 A 
HETATM   24  C   UNL     1     -40.082  51.365 -53.734  1.00  0.00     0.013 A 
HETATM   25  C   UNL     1     -39.592  50.319 -52.947  1.00  0.00     0.043 A 
HETATM   26  C   UNL     1     -39.492  50.483 -51.573  1.00  0.00     0.116 A 
HETATM   27  F   UNL     1     -39.025  49.481 -50.818  1.00  0.00    -0.206 F 
HETATM   28  C   UNL     1     -39.867  51.677 -50.971  1.00  0.00     0.043 A 
HETATM   29  C   UNL     1     -40.353  52.725 -51.757  1.00  0.00     0.013 A 
ENDBRANCH  19  23
ENDBRANCH  18  19
ENDBRANCH   1  18
TORSDOF 6
ENDMDL
MODEL 8
REMARK VINA RESULT:      -7.1      3.144      4.880
REMARK  6 active torsions:
REMARK  status: ('A' for Active; 'I' for Inactive)
REMARK    1  A    between atoms: C_2  and  O_3 
REMARK    2  A    between atoms: C_2  and  C_4 
REMARK    3  A    between atoms: C_2  and  C_11 
REMARK    4  A    between atoms: C_11  and  N_12 
REMARK       I    between atoms: N_12  and  C_13 
REMARK    5  A    between atoms: C_13  and  C_14 
REMARK    6  A    between atoms: C_15  and  C_16 
ROOT
HETATM    1  N   UNL     1     -41.897  55.764 -53.221  1.00  0.00    -0.354 N 
HETATM    2  C   UNL     1     -42.180  54.785 -52.292  1.00  0.00     0.255 C 
HETATM    3  O   UNL     1     -43.243  54.176 -52.280  1.00  0.00    -0.268 OA
HETATM    4  H   UNL     1     -40.936  56.058 -53.331  1.00  0.00     0.162 HD
ENDROOT
BRANCH   2   5
HETATM    5  C   UNL     1     -41.113  54.537 -51.334  1.00  0.00     0.080 A 
HETATM    6  C   UNL     1     -40.209  53.430 -51.267  1.00  0.00     0.107 A 
HETATM    7  N   UNL     1     -39.418  53.515 -50.182  1.00  0.00    -0.173 NA
HETATM    8  N   UNL     1     -39.775  54.662 -49.595  1.00  0.00    -0.288 N 
HETATM    9  H   UNL     1     -39.293  54.933 -48.744  1.00  0.00     0.188 HD
HETATM   10  C   UNL     1     -40.780  55.314 -50.237  1.00  0.00     0.128 A 
BRANCH   6  11
HETATM   11  C   UNL     1     -40.064  52.305 -52.185  1.00  0.00     0.034 A 
HETATM   12  C   UNL     1     -39.829  51.010 -51.713  1.00  0.00     0.129 A 
HETATM   13  F   UNL     1     -39.754  50.763 -50.396  1.00  0.00    -0.205 F 
HETATM   14  C   UNL     1     -39.701  49.936 -52.593  1.00  0.00     0.043 A 
HETATM   15  C   UNL     1     -39.818  50.146 -53.966  1.00  0.00     0.003 A 
HETATM   16  C   UNL     1     -40.070  51.428 -54.453  1.00  0.00     0.001 A 
HETATM   17  C   UNL     1     -40.196  52.502 -53.568  1.00  0.00     0.017 A 
ENDBRANCH   6  11
ENDBRANCH   2   5
BRANCH   1  18
HETATM   18  C   UNL     1     -42.787  56.059 -54.335  1.00  0.00     0.165 C 
BRANCH  18  19
HETATM   19  C   UNL     1     -42.400  55.313 -55.641  1.00  0.00     0.097 C 
HETATM   20  C   UNL     1     -43.081  53.940 -55.751  1.00  0.00     0.053 C 
BRANCH  19  21
HETATM   21  O   UNL     1     -40.978  55.072 -55.586  1.00  0.00    -0.384 OA
HETATM   22  H   UNL     1     -40.840  54.390 -54.904  1.00  0.00     0.211 HD
ENDBRANCH  19  21
BRANCH  19  23
HETATM   23  C   UNL     1     -42.726  56.195 -56.851  1.00  0.00    -0.023 A 
HETATM   24  C   UNL     1     -42.529  57.589 -56.795  1.00  0.00     0.013 A 
HETATM   25  C   UNL     1     -42.819  58.401 -57.895  1.00  0.00     0.043 A 
HETATM   26  C   UNL     1     -43.304  57.828 -59.062  1.00  0.00     0.116 A 
HETATM   27  F   UNL     1     -43.584  58.606 -60.115  1.00  0.00    -0.206 F 
HETATM   28  C   UNL     1     -43.497  56.457 -59.153  1.00  0.00     0.043 A 
HETATM   29  C   UNL     1     -43.204  55.643 -58.056  1.00  0.00     0.013 A 
ENDBRANCH  19  23
ENDBRANCH  18  19
ENDBRANCH   1  18
TORSDOF 6
ENDMDL
MODEL 9
REMARK VINA RESULT:      -7.1      3.638      5.575
REMARK  6 active torsions:
REMARK  status: ('A' for Active; 'I' for Inactive)
REMARK    1  A    between atoms: C_2  and  O_3 
REMARK    2  A    between atoms: C_2  and  C_4 
REMARK    3  A    between atoms: C_2  and  C_11 
REMARK    4  A    between atoms: C_11  and  N_12 
REMARK       I    between atoms: N_12  and  C_13 
REMARK    5  A    between atoms: C_13  and  C_14 
REMARK    6  A    between atoms: C_15  and  C_16 
ROOT
HETATM    1  N   UNL     1     -42.870  56.214 -55.059  1.00  0.00    -0.354 N 
HETATM    2  C   UNL     1     -42.062  56.233 -53.943  1.00  0.00     0.255 C 
HETATM    3  O   UNL     1     -40.950  56.748 -53.943  1.00  0.00    -0.268 OA
HETATM    4  H   UNL     1     -43.850  55.995 -54.939  1.00  0.00     0.162 HD
ENDROOT
BRANCH   2   5
HETATM    5  C   UNL     1     -42.641  55.597 -52.769  1.00  0.00     0.080 A 
HETATM    6  C   UNL     1     -42.359  54.305 -52.220  1.00  0.00     0.107 A 
HETATM    7  N   UNL     1     -43.165  54.037 -51.175  1.00  0.00    -0.173 NA
HETATM    8  N   UNL     1     -43.909  55.138 -51.033  1.00  0.00    -0.288 N 
HETATM    9  H   UNL     1     -44.595  55.157 -50.286  1.00  0.00     0.188 HD
HETATM   10  C   UNL     1     -43.640  56.102 -51.954  1.00  0.00     0.128 A 
BRANCH   6  11
HETATM   11  C   UNL     1     -41.364  53.325 -52.640  1.00  0.00     0.034 A 
HETATM   12  C   UNL     1     -41.389  52.771 -53.924  1.00  0.00     0.129 A 
HETATM   13  F   UNL     1     -42.320  53.147 -54.815  1.00  0.00    -0.205 F 
HETATM   14  C   UNL     1     -40.430  51.842 -54.325  1.00  0.00     0.043 A 
HETATM   15  C   UNL     1     -39.420  51.461 -53.443  1.00  0.00     0.003 A 
HETATM   16  C   UNL     1     -39.370  52.016 -52.164  1.00  0.00     0.001 A 
HETATM   17  C   UNL     1     -40.335  52.946 -51.765  1.00  0.00     0.017 A 
ENDBRANCH   6  11
ENDBRANCH   2   5
BRANCH   1  18
HETATM   18  C   UNL     1     -42.517  56.913 -56.287  1.00  0.00     0.165 C 
BRANCH  18  19
HETATM   19  C   UNL     1     -43.725  57.629 -56.951  1.00  0.00     0.097 C 
HETATM   20  C   UNL     1     -43.456  59.124 -57.188  1.00  0.00     0.053 C 
BRANCH  19  21
HETATM   21  O   UNL     1     -44.829  57.545 -56.026  1.00  0.00    -0.384 OA
HETATM   22  H   UNL     1     -44.491  57.846 -55.164  1.00  0.00     0.211 HD
ENDBRANCH  19  21
BRANCH  19  23
HETATM   23  C   UNL     1     -44.090  56.916 -58.256  1.00  0.00    -0.023 A 
HETATM   24  C   UNL     1     -45.093  57.433 -59.099  1.00  0.00     0.013 A 
HETATM   25  C   UNL     1     -45.430  56.793 -60.295  1.00  0.00     0.043 A 
HETATM   26  C   UNL     1     -44.763  55.632 -60.662  1.00  0.00     0.116 A 
HETATM   27  F   UNL     1     -45.087  55.017 -61.807  1.00  0.00    -0.206 F 
HETATM   28  C   UNL     1     -43.761  55.104 -59.860  1.00  0.00     0.043 A 
HETATM   29  C   UNL     1     -43.421  55.746 -58.667  1.00  0.00     0.013 A 
ENDBRANCH  19  23
ENDBRANCH  18  19
ENDBRANCH   1  18
TORSDOF 6
ENDMDL
MODEL 10
REMARK VINA RESULT:      -7.1      3.057      6.603
REMARK  6 active torsions:
REMARK  status: ('A' for Active; 'I' for Inactive)
REMARK    1  A    between atoms: C_2  and  O_3 
REMARK    2  A    between atoms: C_2  and  C_4 
REMARK    3  A    between atoms: C_2  and  C_11 
REMARK    4  A    between atoms: C_11  and  N_12 
REMARK       I    between atoms: N_12  and  C_13 
REMARK    5  A    between atoms: C_13  and  C_14 
REMARK    6  A    between atoms: C_15  and  C_16 
ROOT
HETATM    1  N   UNL     1     -43.453  56.153 -52.502  1.00  0.00    -0.354 N 
HETATM    2  C   UNL     1     -44.154  57.113 -51.803  1.00  0.00     0.255 C 
HETATM    3  O   UNL     1     -44.702  56.879 -50.732  1.00  0.00    -0.268 OA
HETATM    4  H   UNL     1     -42.833  56.455 -53.242  1.00  0.00     0.162 HD
ENDROOT
BRANCH   2   5
HETATM    5  C   UNL     1     -44.184  58.420 -52.440  1.00  0.00     0.080 A 
HETATM    6  C   UNL     1     -43.162  59.422 -52.477  1.00  0.00     0.107 A 
HETATM    7  N   UNL     1     -43.600  60.537 -53.092  1.00  0.00    -0.173 NA
HETATM    8  N   UNL     1     -44.847  60.244 -53.473  1.00  0.00    -0.288 N 
HETATM    9  H   UNL     1     -45.374  60.955 -53.970  1.00  0.00     0.188 HD
HETATM   10  C   UNL     1     -45.249  58.996 -53.113  1.00  0.00     0.128 A 
BRANCH   6  11
HETATM   11  C   UNL     1     -41.799  59.365 -51.961  1.00  0.00     0.034 A 
HETATM   12  C   UNL     1     -40.719  59.064 -52.797  1.00  0.00     0.129 A 
HETATM   13  F   UNL     1     -40.908  58.842 -54.108  1.00  0.00    -0.205 F 
HETATM   14  C   UNL     1     -39.417  59.020 -52.302  1.00  0.00     0.043 A 
HETATM   15  C   UNL     1     -39.177  59.289 -50.956  1.00  0.00     0.003 A 
HETATM   16  C   UNL     1     -40.239  59.609 -50.111  1.00  0.00     0.001 A 
HETATM   17  C   UNL     1     -41.544  59.650 -50.611  1.00  0.00     0.017 A 
ENDBRANCH   6  11
ENDBRANCH   2   5
BRANCH   1  18
HETATM   18  C   UNL     1     -43.204  54.824 -51.962  1.00  0.00     0.165 C 
BRANCH  18  19
HETATM   19  C   UNL     1     -41.771  54.657 -51.387  1.00  0.00     0.097 C 
HETATM   20  C   UNL     1     -41.778  54.404 -49.871  1.00  0.00     0.053 C 
BRANCH  19  21
HETATM   21  O   UNL     1     -41.081  55.907 -51.598  1.00  0.00    -0.384 OA
HETATM   22  H   UNL     1     -40.129  55.705 -51.568  1.00  0.00     0.211 HD
ENDBRANCH  19  21
BRANCH  19  23
HETATM   23  C   UNL     1     -41.046  53.534 -52.135  1.00  0.00    -0.023 A 
HETATM   24  C   UNL     1     -40.138  52.694 -51.461  1.00  0.00     0.013 A 
HETATM   25  C   UNL     1     -39.476  51.663 -52.134  1.00  0.00     0.043 A 
HETATM   26  C   UNL     1     -39.718  51.459 -53.485  1.00  0.00     0.116 A 
HETATM   27  F   UNL     1     -39.082  50.473 -54.130  1.00  0.00    -0.206 F 
HETATM   28  C   UNL     1     -40.616  52.261 -54.174  1.00  0.00     0.043 A 
HETATM   29  C   UNL     1     -41.282  53.289 -53.502  1.00  0.00     0.013 A 
ENDBRANCH  19  23
ENDBRANCH  18  19
ENDBRANCH   1  18
TORSDOF 6
ENDMDL
