MODEL 1
REMARK VINA RESULT:      -8.5      0.000      0.000
REMARK  6 active torsions:
REMARK  status: ('A' for Active; 'I' for Inactive)
REMARK    1  A    between atoms: C_2  and  C_3 
REMARK    2  A    between atoms: C_3  and  C_4 
REMARK    3  A    between atoms: C_3  and  C_10 
REMARK    4  A    between atoms: C_10  and  C_11 
REMARK       I    between atoms: C_11  and  N_12 
REMARK    5  A    between atoms: N_12  and  C_13 
REMARK    6  A    between atoms: C_15  and  C_16 
ROOT
HETATM    1  C   UNL     1     -42.126  55.187 -52.760  1.00  0.00     0.223 C 
HETATM    2  N   UNL     1     -43.161  55.064 -53.673  1.00  0.00    -0.327 N 
HETATM    3  O   UNL     1     -41.440  56.186 -52.570  1.00  0.00    -0.273 OA
HETATM    4  H   UNL     1     -43.754  54.250 -53.583  1.00  0.00     0.169 HD
ENDROOT
BRANCH   2   5
HETATM    5  C   UNL     1     -43.526  55.986 -54.678  1.00  0.00     0.035 A 
HETATM    6  C   UNL     1     -42.951  56.012 -55.954  1.00  0.00     0.042 A 
HETATM    7  C   UNL     1     -43.375  56.931 -56.932  1.00  0.00    -0.021 A 
HETATM    8  C   UNL     1     -44.392  57.834 -56.595  1.00  0.00     0.012 A 
HETATM    9  C   UNL     1     -44.975  57.815 -55.327  1.00  0.00     0.003 A 
HETATM   10  C   UNL     1     -44.546  56.891 -54.374  1.00  0.00     0.029 A 
BRANCH   7  11
HETATM   11  C   UNL     1     -42.769  56.917 -58.259  1.00  0.00     0.010 A 
HETATM   12  C   UNL     1     -42.867  55.973 -59.314  1.00  0.00     0.152 A 
HETATM   13  N   UNL     1     -42.165  56.321 -60.396  1.00  0.00    -0.187 NA
HETATM   14  N   UNL     1     -41.609  57.488 -60.045  1.00  0.00    -0.289 N 
HETATM   15  H   UNL     1     -41.017  57.960 -60.718  1.00  0.00     0.188 HD
HETATM   16  C   UNL     1     -41.938  57.889 -58.781  1.00  0.00     0.123 A 
ENDBRANCH   7  11
ENDBRANCH   2   5
BRANCH   1  17
HETATM   17  C   UNL     1     -41.905  53.925 -51.945  1.00  0.00     0.116 C 
BRANCH  17  18
HETATM   18  C   UNL     1     -40.408  53.581 -51.815  1.00  0.00     0.049 C 
BRANCH  18  19
HETATM   19  C   UNL     1     -39.807  53.622 -50.419  1.00  0.00    -0.027 C 
HETATM   20  C   UNL     1     -40.000  54.540 -49.462  1.00  0.00     0.007 C 
ENDBRANCH  18  19
BRANCH  18  21
HETATM   21  C   UNL     1     -40.140  52.226 -52.465  1.00  0.00    -0.050 A 
HETATM   22  C   UNL     1     -39.682  51.135 -51.708  1.00  0.00     0.008 A 
HETATM   23  C   UNL     1     -39.443  49.900 -52.313  1.00  0.00     0.001 A 
HETATM   24  C   UNL     1     -39.662  49.739 -53.679  1.00  0.00     0.000 A 
HETATM   25  C   UNL     1     -40.119  50.810 -54.442  1.00  0.00     0.001 A 
HETATM   26  C   UNL     1     -40.357  52.048 -53.840  1.00  0.00     0.008 A 
ENDBRANCH  18  21
ENDBRANCH  17  18
ENDBRANCH   1  17
TORSDOF 6
ENDMDL
MODEL 2
REMARK VINA RESULT:      -8.4      1.966      3.588
REMARK  6 active torsions:
REMARK  status: ('A' for Active; 'I' for Inactive)
REMARK    1  A    between atoms: C_2  and  C_3 
REMARK    2  A    between atoms: C_3  and  C_4 
REMARK    3  A    between atoms: C_3  and  C_10 
REMARK    4  A    between atoms: C_10  and  C_11 
REMARK       I    between atoms: C_11  and  N_12 
REMARK    5  A    between atoms: N_12  and  C_13 
REMARK    6  A    between atoms: C_15  and  C_16 
ROOT
HETATM    1  C   UNL     1     -41.716  54.374 -55.084  1.00  0.00     0.223 C 
HETATM    2  N   UNL     1     -41.527  55.536 -55.813  1.00  0.00    -0.327 N 
HETATM    3  O   UNL     1     -42.740  53.699 -55.044  1.00  0.00    -0.273 OA
HETATM    4  H   UNL     1     -40.577  55.873 -55.897  1.00  0.00     0.169 HD
ENDROOT
BRANCH   2   5
HETATM    5  C   UNL     1     -42.506  56.272 -56.514  1.00  0.00     0.035 A 
HETATM    6  C   UNL     1     -43.070  55.858 -57.727  1.00  0.00     0.042 A 
HETATM    7  C   UNL     1     -44.069  56.613 -58.369  1.00  0.00    -0.021 A 
HETATM    8  C   UNL     1     -44.487  57.807 -57.766  1.00  0.00     0.012 A 
HETATM    9  C   UNL     1     -43.933  58.229 -56.556  1.00  0.00     0.003 A 
HETATM   10  C   UNL     1     -42.951  57.461 -55.931  1.00  0.00     0.029 A 
BRANCH   7  11
HETATM   11  C   UNL     1     -44.650  56.141 -59.622  1.00  0.00     0.010 A 
HETATM   12  C   UNL     1     -44.284  55.059 -60.464  1.00  0.00     0.152 A 
HETATM   13  N   UNL     1     -45.076  54.935 -61.533  1.00  0.00    -0.187 NA
HETATM   14  N   UNL     1     -45.955  55.936 -61.386  1.00  0.00    -0.289 N 
HETATM   15  H   UNL     1     -46.675  56.049 -62.091  1.00  0.00     0.188 HD
HETATM   16  C   UNL     1     -45.746  56.683 -60.262  1.00  0.00     0.123 A 
ENDBRANCH   7  11
ENDBRANCH   2   5
BRANCH   1  17
HETATM   17  C   UNL     1     -40.479  53.955 -54.309  1.00  0.00     0.116 C 
BRANCH  17  18
HETATM   18  C   UNL     1     -40.795  52.859 -53.272  1.00  0.00     0.049 C 
BRANCH  18  19
HETATM   19  C   UNL     1     -39.866  51.657 -53.231  1.00  0.00    -0.027 C 
HETATM   20  C   UNL     1     -39.774  50.651 -54.111  1.00  0.00     0.007 C 
ENDBRANCH  18  19
BRANCH  18  21
HETATM   21  C   UNL     1     -40.907  53.489 -51.886  1.00  0.00    -0.050 A 
HETATM   22  C   UNL     1     -42.121  54.030 -51.431  1.00  0.00     0.008 A 
HETATM   23  C   UNL     1     -42.212  54.602 -50.161  1.00  0.00     0.001 A 
HETATM   24  C   UNL     1     -41.094  54.637 -49.330  1.00  0.00     0.000 A 
HETATM   25  C   UNL     1     -39.885  54.101 -49.766  1.00  0.00     0.001 A 
HETATM   26  C   UNL     1     -39.790  53.531 -51.038  1.00  0.00     0.008 A 
ENDBRANCH  18  21
ENDBRANCH  17  18
ENDBRANCH   1  17
TORSDOF 6
ENDMDL
MODEL 3
REMARK VINA RESULT:      -8.2      2.036      2.691
REMARK  6 active torsions:
REMARK  status: ('A' for Active; 'I' for Inactive)
REMARK    1  A    between atoms: C_2  and  C_3 
REMARK    2  A    between atoms: C_3  and  C_4 
REMARK    3  A    between atoms: C_3  and  C_10 
REMARK    4  A    between atoms: C_10  and  C_11 
REMARK       I    between atoms: C_11  and  N_12 
REMARK    5  A    between atoms: N_12  and  C_13 
REMARK    6  A    between atoms: C_15  and  C_16 
ROOT
HETATM    1  C   UNL     1     -41.584  54.577 -55.348  1.00  0.00     0.223 C 
HETATM    2  N   UNL     1     -41.542  55.808 -55.981  1.00  0.00    -0.327 N 
HETATM    3  O   UNL     1     -42.514  53.776 -55.379  1.00  0.00    -0.273 OA
HETATM    4  H   UNL     1     -40.642  56.269 -56.021  1.00  0.00     0.169 HD
ENDROOT
BRANCH   2   5
HETATM    5  C   UNL     1     -42.603  56.466 -56.639  1.00  0.00     0.035 A 
HETATM    6  C   UNL     1     -43.156  56.031 -57.849  1.00  0.00     0.042 A 
HETATM    7  C   UNL     1     -44.237  56.705 -58.447  1.00  0.00    -0.021 A 
HETATM    8  C   UNL     1     -44.748  57.840 -57.803  1.00  0.00     0.012 A 
HETATM    9  C   UNL     1     -44.206  58.282 -56.595  1.00  0.00     0.003 A 
HETATM   10  C   UNL     1     -43.140  57.594 -56.014  1.00  0.00     0.029 A 
BRANCH   7  11
HETATM   11  C   UNL     1     -44.804  56.212 -59.698  1.00  0.00     0.010 A 
HETATM   12  C   UNL     1     -44.358  55.193 -60.580  1.00  0.00     0.152 A 
HETATM   13  N   UNL     1     -45.164  55.021 -61.632  1.00  0.00    -0.187 NA
HETATM   14  N   UNL     1     -46.131  55.927 -61.435  1.00  0.00    -0.289 N 
HETATM   15  H   UNL     1     -46.877  55.989 -62.119  1.00  0.00     0.188 HD
HETATM   16  C   UNL     1     -45.965  56.662 -60.296  1.00  0.00     0.123 A 
ENDBRANCH   7  11
ENDBRANCH   2   5
BRANCH   1  17
HETATM   17  C   UNL     1     -40.310  54.259 -54.587  1.00  0.00     0.116 C 
BRANCH  17  18
HETATM   18  C   UNL     1     -40.603  53.750 -53.162  1.00  0.00     0.049 C 
BRANCH  18  19
HETATM   19  C   UNL     1     -42.003  53.987 -52.617  1.00  0.00    -0.027 C 
HETATM   20  C   UNL     1     -42.374  54.181 -51.345  1.00  0.00     0.007 C 
ENDBRANCH  18  19
BRANCH  18  21
HETATM   21  C   UNL     1     -40.242  52.270 -53.067  1.00  0.00    -0.050 A 
HETATM   22  C   UNL     1     -40.343  51.425 -54.185  1.00  0.00     0.008 A 
HETATM   23  C   UNL     1     -40.008  50.074 -54.087  1.00  0.00     0.001 A 
HETATM   24  C   UNL     1     -39.565  49.552 -52.874  1.00  0.00     0.000 A 
HETATM   25  C   UNL     1     -39.457  50.377 -51.758  1.00  0.00     0.001 A 
HETATM   26  C   UNL     1     -39.794  51.730 -51.852  1.00  0.00     0.008 A 
ENDBRANCH  18  21
ENDBRANCH  17  18
ENDBRANCH   1  17
TORSDOF 6
ENDMDL
MODEL 4
REMARK VINA RESULT:      -7.6      2.078      3.336
REMARK  6 active torsions:
REMARK  status: ('A' for Active; 'I' for Inactive)
REMARK    1  A    between atoms: C_2  and  C_3 
REMARK    2  A    between atoms: C_3  and  C_4 
REMARK    3  A    between atoms: C_3  and  C_10 
REMARK    4  A    between atoms: C_10  and  C_11 
REMARK       I    between atoms: C_11  and  N_12 
REMARK    5  A    between atoms: N_12  and  C_13 
REMARK    6  A    between atoms: C_15  and  C_16 
ROOT
HETATM    1  C   UNL     1     -42.431  55.280 -55.501  1.00  0.00     0.223 C 
HETATM    2  N   UNL     1     -43.298  55.553 -56.546  1.00  0.00    -0.327 N 
HETATM    3  O   UNL     1     -41.326  55.783 -55.324  1.00  0.00    -0.273 OA
HETATM    4  H   UNL     1     -44.244  55.206 -56.456  1.00  0.00     0.169 HD
ENDROOT
BRANCH   2   5
HETATM    5  C   UNL     1     -43.030  56.322 -57.699  1.00  0.00     0.035 A 
HETATM    6  C   UNL     1     -42.603  57.654 -57.663  1.00  0.00     0.042 A 
HETATM    7  C   UNL     1     -42.317  58.367 -58.842  1.00  0.00    -0.021 A 
HETATM    8  C   UNL     1     -42.478  57.709 -60.069  1.00  0.00     0.012 A 
HETATM    9  C   UNL     1     -42.901  56.380 -60.117  1.00  0.00     0.003 A 
HETATM   10  C   UNL     1     -43.171  55.688 -58.936  1.00  0.00     0.029 A 
BRANCH   7  11
HETATM   11  C   UNL     1     -41.854  59.748 -58.766  1.00  0.00     0.010 A 
HETATM   12  C   UNL     1     -41.397  60.515 -57.662  1.00  0.00     0.152 A 
HETATM   13  N   UNL     1     -41.042  61.759 -57.998  1.00  0.00    -0.187 NA
HETATM   14  N   UNL     1     -41.270  61.801 -59.317  1.00  0.00    -0.289 N 
HETATM   15  H   UNL     1     -41.071  62.664 -59.811  1.00  0.00     0.188 HD
HETATM   16  C   UNL     1     -41.752  60.629 -59.826  1.00  0.00     0.123 A 
ENDBRANCH   7  11
ENDBRANCH   2   5
BRANCH   1  17
HETATM   17  C   UNL     1     -42.991  54.269 -54.517  1.00  0.00     0.116 C 
BRANCH  17  18
HETATM   18  C   UNL     1     -42.225  54.285 -53.179  1.00  0.00     0.049 C 
BRANCH  18  19
HETATM   19  C   UNL     1     -43.056  54.292 -51.906  1.00  0.00    -0.027 C 
HETATM   20  C   UNL     1     -43.183  55.277 -51.006  1.00  0.00     0.007 C 
ENDBRANCH  18  19
BRANCH  18  21
HETATM   21  C   UNL     1     -41.227  53.131 -53.152  1.00  0.00    -0.050 A 
HETATM   22  C   UNL     1     -40.422  52.893 -52.025  1.00  0.00     0.008 A 
HETATM   23  C   UNL     1     -39.514  51.833 -52.011  1.00  0.00     0.001 A 
HETATM   24  C   UNL     1     -39.401  50.996 -53.119  1.00  0.00     0.000 A 
HETATM   25  C   UNL     1     -40.195  51.217 -54.242  1.00  0.00     0.001 A 
HETATM   26  C   UNL     1     -41.103  52.279 -54.261  1.00  0.00     0.008 A 
ENDBRANCH  18  21
ENDBRANCH  17  18
ENDBRANCH   1  17
TORSDOF 6
ENDMDL
MODEL 5
REMARK VINA RESULT:      -7.6      4.273      5.519
REMARK  6 active torsions:
REMARK  status: ('A' for Active; 'I' for Inactive)
REMARK    1  A    between atoms: C_2  and  C_3 
REMARK    2  A    between atoms: C_3  and  C_4 
REMARK    3  A    between atoms: C_3  and  C_10 
REMARK    4  A    between atoms: C_10  and  C_11 
REMARK       I    between atoms: C_11  and  N_12 
REMARK    5  A    between atoms: N_12  and  C_13 
REMARK    6  A    between atoms: C_15  and  C_16 
ROOT
HETATM    1  C   UNL     1     -42.440  55.245 -51.435  1.00  0.00     0.223 C 
HETATM    2  N   UNL     1     -41.745  56.344 -51.909  1.00  0.00    -0.327 N 
HETATM    3  O   UNL     1     -43.323  55.256 -50.582  1.00  0.00    -0.273 OA
HETATM    4  H   UNL     1     -41.186  56.206 -52.741  1.00  0.00     0.169 HD
ENDROOT
BRANCH   2   5
HETATM    5  C   UNL     1     -41.781  57.661 -51.402  1.00  0.00     0.035 A 
HETATM    6  C   UNL     1     -42.911  58.485 -51.457  1.00  0.00     0.042 A 
HETATM    7  C   UNL     1     -42.904  59.779 -50.905  1.00  0.00    -0.021 A 
HETATM    8  C   UNL     1     -41.726  60.235 -50.299  1.00  0.00     0.012 A 
HETATM    9  C   UNL     1     -40.594  59.421 -50.235  1.00  0.00     0.003 A 
HETATM   10  C   UNL     1     -40.624  58.138 -50.781  1.00  0.00     0.029 A 
BRANCH   7  11
HETATM   11  C   UNL     1     -44.107  60.604 -50.962  1.00  0.00     0.010 A 
HETATM   12  C   UNL     1     -45.224  60.556 -51.836  1.00  0.00     0.152 A 
HETATM   13  N   UNL     1     -46.146  61.484 -51.561  1.00  0.00    -0.187 NA
HETATM   14  N   UNL     1     -45.627  62.135 -50.511  1.00  0.00    -0.289 N 
HETATM   15  H   UNL     1     -46.157  62.902 -50.113  1.00  0.00     0.188 HD
HETATM   16  C   UNL     1     -44.415  61.650 -50.113  1.00  0.00     0.123 A 
ENDBRANCH   7  11
ENDBRANCH   2   5
BRANCH   1  17
HETATM   17  C   UNL     1     -42.023  53.948 -52.104  1.00  0.00     0.116 C 
BRANCH  17  18
HETATM   18  C   UNL     1     -40.577  53.554 -51.742  1.00  0.00     0.049 C 
BRANCH  18  19
HETATM   19  C   UNL     1     -40.222  53.506 -50.265  1.00  0.00    -0.027 C 
HETATM   20  C   UNL     1     -39.463  54.362 -49.568  1.00  0.00     0.007 C 
ENDBRANCH  18  19
BRANCH  18  21
HETATM   21  C   UNL     1     -40.230  52.227 -52.412  1.00  0.00    -0.050 A 
HETATM   22  C   UNL     1     -39.732  51.145 -51.667  1.00  0.00     0.008 A 
HETATM   23  C   UNL     1     -39.419  49.936 -52.290  1.00  0.00     0.001 A 
HETATM   24  C   UNL     1     -39.604  49.792 -53.663  1.00  0.00     0.000 A 
HETATM   25  C   UNL     1     -40.100  50.854 -54.415  1.00  0.00     0.001 A 
HETATM   26  C   UNL     1     -40.411  52.066 -53.794  1.00  0.00     0.008 A 
ENDBRANCH  18  21
ENDBRANCH  17  18
ENDBRANCH   1  17
TORSDOF 6
ENDMDL
MODEL 6
REMARK VINA RESULT:      -7.6      2.114      2.918
REMARK  6 active torsions:
REMARK  status: ('A' for Active; 'I' for Inactive)
REMARK    1  A    between atoms: C_2  and  C_3 
REMARK    2  A    between atoms: C_3  and  C_4 
REMARK    3  A    between atoms: C_3  and  C_10 
REMARK    4  A    between atoms: C_10  and  C_11 
REMARK       I    between atoms: C_11  and  N_12 
REMARK    5  A    between atoms: N_12  and  C_13 
REMARK    6  A    between atoms: C_15  and  C_16 
ROOT
HETATM    1  C   UNL     1     -42.016  55.024 -52.783  1.00  0.00     0.223 C 
HETATM    2  N   UNL     1     -42.874  54.712 -53.824  1.00  0.00    -0.327 N 
HETATM    3  O   UNL     1     -41.485  56.112 -52.580  1.00  0.00    -0.273 OA
HETATM    4  H   UNL     1     -43.379  53.838 -53.753  1.00  0.00     0.169 HD
ENDROOT
BRANCH   2   5
HETATM    5  C   UNL     1     -43.177  55.509 -54.949  1.00  0.00     0.035 A 
HETATM    6  C   UNL     1     -43.911  56.699 -54.883  1.00  0.00     0.042 A 
HETATM    7  C   UNL     1     -44.157  57.475 -56.030  1.00  0.00    -0.021 A 
HETATM    8  C   UNL     1     -43.653  57.023 -57.257  1.00  0.00     0.012 A 
HETATM    9  C   UNL     1     -42.917  55.839 -57.334  1.00  0.00     0.003 A 
HETATM   10  C   UNL     1     -42.677  55.089 -56.184  1.00  0.00     0.029 A 
BRANCH   7  11
HETATM   11  C   UNL     1     -44.909  58.722 -55.922  1.00  0.00     0.010 A 
HETATM   12  C   UNL     1     -44.792  59.798 -55.004  1.00  0.00     0.152 A 
HETATM   13  N   UNL     1     -45.664  60.784 -55.238  1.00  0.00    -0.187 NA
HETATM   14  N   UNL     1     -46.346  60.348 -56.305  1.00  0.00    -0.289 N 
HETATM   15  H   UNL     1     -47.081  60.939 -56.679  1.00  0.00     0.188 HD
HETATM   16  C   UNL     1     -45.935  59.125 -56.753  1.00  0.00     0.123 A 
ENDBRANCH   7  11
ENDBRANCH   2   5
BRANCH   1  17
HETATM   17  C   UNL     1     -41.786  53.859 -51.837  1.00  0.00     0.116 C 
BRANCH  17  18
HETATM   18  C   UNL     1     -40.291  53.500 -51.721  1.00  0.00     0.049 C 
BRANCH  18  19
HETATM   19  C   UNL     1     -39.669  53.566 -50.336  1.00  0.00    -0.027 C 
HETATM   20  C   UNL     1     -39.955  54.415 -49.340  1.00  0.00     0.007 C 
ENDBRANCH  18  19
BRANCH  18  21
HETATM   21  C   UNL     1     -40.050  52.128 -52.344  1.00  0.00    -0.050 A 
HETATM   22  C   UNL     1     -39.698  51.022 -51.551  1.00  0.00     0.008 A 
HETATM   23  C   UNL     1     -39.481  49.771 -52.132  1.00  0.00     0.001 A 
HETATM   24  C   UNL     1     -39.618  49.608 -53.508  1.00  0.00     0.000 A 
HETATM   25  C   UNL     1     -39.971  50.694 -54.307  1.00  0.00     0.001 A 
HETATM   26  C   UNL     1     -40.185  51.948 -53.729  1.00  0.00     0.008 A 
ENDBRANCH  18  21
ENDBRANCH  17  18
ENDBRANCH   1  17
TORSDOF 6
ENDMDL
MODEL 7
REMARK VINA RESULT:      -7.5      1.188      1.831
REMARK  6 active torsions:
REMARK  status: ('A' for Active; 'I' for Inactive)
REMARK    1  A    between atoms: C_2  and  C_3 
REMARK    2  A    between atoms: C_3  and  C_4 
REMARK    3  A    between atoms: C_3  and  C_10 
REMARK    4  A    between atoms: C_10  and  C_11 
REMARK       I    between atoms: C_11  and  N_12 
REMARK    5  A    between atoms: N_12  and  C_13 
REMARK    6  A    between atoms: C_15  and  C_16 
ROOT
HETATM    1  C   UNL     1     -42.073  55.312 -52.694  1.00  0.00     0.223 C 
HETATM    2  N   UNL     1     -43.404  55.615 -52.930  1.00  0.00    -0.327 N 
HETATM    3  O   UNL     1     -41.106  56.004 -52.996  1.00  0.00    -0.273 OA
HETATM    4  H   UNL     1     -44.093  55.044 -52.458  1.00  0.00     0.169 HD
ENDROOT
BRANCH   2   5
HETATM    5  C   UNL     1     -43.912  56.679 -53.707  1.00  0.00     0.035 A 
HETATM    6  C   UNL     1     -43.939  56.676 -55.106  1.00  0.00     0.042 A 
HETATM    7  C   UNL     1     -44.488  57.748 -55.833  1.00  0.00    -0.021 A 
HETATM    8  C   UNL     1     -45.006  58.837 -55.118  1.00  0.00     0.012 A 
HETATM    9  C   UNL     1     -44.987  58.849 -53.722  1.00  0.00     0.003 A 
HETATM   10  C   UNL     1     -44.446  57.772 -53.020  1.00  0.00     0.029 A 
BRANCH   7  11
HETATM   11  C   UNL     1     -44.519  57.703 -57.291  1.00  0.00     0.010 A 
HETATM   12  C   UNL     1     -45.518  58.117 -58.211  1.00  0.00     0.152 A 
HETATM   13  N   UNL     1     -45.170  57.922 -59.486  1.00  0.00    -0.187 NA
HETATM   14  N   UNL     1     -43.948  57.380 -59.396  1.00  0.00    -0.289 N 
HETATM   15  H   UNL     1     -43.466  57.139 -60.254  1.00  0.00     0.188 HD
HETATM   16  C   UNL     1     -43.513  57.230 -58.110  1.00  0.00     0.123 A 
ENDBRANCH   7  11
ENDBRANCH   2   5
BRANCH   1  17
HETATM   17  C   UNL     1     -41.888  53.992 -51.967  1.00  0.00     0.116 C 
BRANCH  17  18
HETATM   18  C   UNL     1     -40.398  53.629 -51.805  1.00  0.00     0.049 C 
BRANCH  18  19
HETATM   19  C   UNL     1     -39.817  53.702 -50.402  1.00  0.00    -0.027 C 
HETATM   20  C   UNL     1     -40.146  54.543 -49.413  1.00  0.00     0.007 C 
ENDBRANCH  18  19
BRANCH  18  21
HETATM   21  C   UNL     1     -40.142  52.253 -52.413  1.00  0.00    -0.050 A 
HETATM   22  C   UNL     1     -40.290  52.030 -53.793  1.00  0.00     0.008 A 
HETATM   23  C   UNL     1     -40.051  50.768 -54.338  1.00  0.00     0.001 A 
HETATM   24  C   UNL     1     -39.658  49.715 -53.515  1.00  0.00     0.000 A 
HETATM   25  C   UNL     1     -39.504  49.922 -52.146  1.00  0.00     0.001 A 
HETATM   26  C   UNL     1     -39.745  51.183 -51.596  1.00  0.00     0.008 A 
ENDBRANCH  18  21
ENDBRANCH  17  18
ENDBRANCH   1  17
TORSDOF 6
ENDMDL
MODEL 8
REMARK VINA RESULT:      -7.5      1.571      3.250
REMARK  6 active torsions:
REMARK  status: ('A' for Active; 'I' for Inactive)
REMARK    1  A    between atoms: C_2  and  C_3 
REMARK    2  A    between atoms: C_3  and  C_4 
REMARK    3  A    between atoms: C_3  and  C_10 
REMARK    4  A    between atoms: C_10  and  C_11 
REMARK       I    between atoms: C_11  and  N_12 
REMARK    5  A    between atoms: N_12  and  C_13 
REMARK    6  A    between atoms: C_15  and  C_16 
ROOT
HETATM    1  C   UNL     1     -40.788  54.958 -54.821  1.00  0.00     0.223 C 
HETATM    2  N   UNL     1     -42.020  54.829 -55.439  1.00  0.00    -0.327 N 
HETATM    3  O   UNL     1     -40.327  55.982 -54.325  1.00  0.00    -0.273 OA
HETATM    4  H   UNL     1     -42.340  53.889 -55.628  1.00  0.00     0.169 HD
ENDROOT
BRANCH   2   5
HETATM    5  C   UNL     1     -42.917  55.865 -55.778  1.00  0.00     0.035 A 
HETATM    6  C   UNL     1     -43.030  56.407 -57.064  1.00  0.00     0.042 A 
HETATM    7  C   UNL     1     -43.965  57.416 -57.357  1.00  0.00    -0.021 A 
HETATM    8  C   UNL     1     -44.786  57.880 -56.320  1.00  0.00     0.012 A 
HETATM    9  C   UNL     1     -44.685  57.345 -55.035  1.00  0.00     0.003 A 
HETATM   10  C   UNL     1     -43.758  56.339 -54.767  1.00  0.00     0.029 A 
BRANCH   7  11
HETATM   11  C   UNL     1     -44.070  57.944 -58.714  1.00  0.00     0.010 A 
HETATM   12  C   UNL     1     -43.109  58.591 -59.534  1.00  0.00     0.152 A 
HETATM   13  N   UNL     1     -43.585  58.923 -60.738  1.00  0.00    -0.187 NA
HETATM   14  N   UNL     1     -44.853  58.493 -60.699  1.00  0.00    -0.289 N 
HETATM   15  H   UNL     1     -45.433  58.635 -61.519  1.00  0.00     0.188 HD
HETATM   16  C   UNL     1     -45.192  57.901 -59.517  1.00  0.00     0.123 A 
ENDBRANCH   7  11
ENDBRANCH   2   5
BRANCH   1  17
HETATM   17  C   UNL     1     -40.010  53.655 -54.777  1.00  0.00     0.116 C 
BRANCH  17  18
HETATM   18  C   UNL     1     -40.701  52.603 -53.886  1.00  0.00     0.049 C 
BRANCH  18  19
HETATM   19  C   UNL     1     -40.063  51.225 -53.821  1.00  0.00    -0.027 C 
HETATM   20  C   UNL     1     -40.432  50.111 -54.466  1.00  0.00     0.007 C 
ENDBRANCH  18  19
BRANCH  18  21
HETATM   21  C   UNL     1     -40.881  53.170 -52.480  1.00  0.00    -0.050 A 
HETATM   22  C   UNL     1     -42.108  53.721 -52.072  1.00  0.00     0.008 A 
HETATM   23  C   UNL     1     -42.262  54.235 -50.783  1.00  0.00     0.001 A 
HETATM   24  C   UNL     1     -41.197  54.200 -49.887  1.00  0.00     0.000 A 
HETATM   25  C   UNL     1     -39.976  53.654 -50.276  1.00  0.00     0.001 A 
HETATM   26  C   UNL     1     -39.817  53.142 -51.566  1.00  0.00     0.008 A 
ENDBRANCH  18  21
ENDBRANCH  17  18
ENDBRANCH   1  17
TORSDOF 6
ENDMDL
MODEL 9
REMARK VINA RESULT:      -7.5      2.540      4.363
REMARK  6 active torsions:
REMARK  status: ('A' for Active; 'I' for Inactive)
REMARK    1  A    between atoms: C_2  and  C_3 
REMARK    2  A    between atoms: C_3  and  C_4 
REMARK    3  A    between atoms: C_3  and  C_10 
REMARK    4  A    between atoms: C_10  and  C_11 
REMARK       I    between atoms: C_11  and  N_12 
REMARK    5  A    between atoms: N_12  and  C_13 
REMARK    6  A    between atoms: C_15  and  C_16 
ROOT
HETATM    1  C   UNL     1     -41.981  54.425 -55.459  1.00  0.00     0.223 C 
HETATM    2  N   UNL     1     -41.822  55.528 -56.281  1.00  0.00    -0.327 N 
HETATM    3  O   UNL     1     -43.021  53.798 -55.276  1.00  0.00    -0.273 OA
HETATM    4  H   UNL     1     -40.873  55.818 -56.476  1.00  0.00     0.169 HD
ENDROOT
BRANCH   2   5
HETATM    5  C   UNL     1     -42.837  56.258 -56.936  1.00  0.00     0.035 A 
HETATM    6  C   UNL     1     -43.507  57.345 -56.362  1.00  0.00     0.042 A 
HETATM    7  C   UNL     1     -44.488  58.061 -57.071  1.00  0.00    -0.021 A 
HETATM    8  C   UNL     1     -44.792  57.653 -58.377  1.00  0.00     0.012 A 
HETATM    9  C   UNL     1     -44.129  56.572 -58.960  1.00  0.00     0.003 A 
HETATM   10  C   UNL     1     -43.153  55.881 -58.244  1.00  0.00     0.029 A 
BRANCH   7  11
HETATM   11  C   UNL     1     -45.152  59.203 -56.450  1.00  0.00     0.010 A 
HETATM   12  C   UNL     1     -44.978  59.793 -55.171  1.00  0.00     0.152 A 
HETATM   13  N   UNL     1     -45.773  60.848 -54.968  1.00  0.00    -0.187 NA
HETATM   14  N   UNL     1     -46.464  60.941 -56.111  1.00  0.00    -0.289 N 
HETATM   15  H   UNL     1     -47.148  61.684 -56.200  1.00  0.00     0.188 HD
HETATM   16  C   UNL     1     -46.131  59.986 -57.029  1.00  0.00     0.123 A 
ENDBRANCH   7  11
ENDBRANCH   2   5
BRANCH   1  17
HETATM   17  C   UNL     1     -40.691  54.005 -54.776  1.00  0.00     0.116 C 
BRANCH  17  18
HETATM   18  C   UNL     1     -40.904  52.803 -53.834  1.00  0.00     0.049 C 
BRANCH  18  19
HETATM   19  C   UNL     1     -39.904  51.663 -53.931  1.00  0.00    -0.027 C 
HETATM   20  C   UNL     1     -40.129  50.393 -54.296  1.00  0.00     0.007 C 
ENDBRANCH  18  19
BRANCH  18  21
HETATM   21  C   UNL     1     -41.004  53.299 -52.394  1.00  0.00    -0.050 A 
HETATM   22  C   UNL     1     -42.174  53.914 -51.918  1.00  0.00     0.008 A 
HETATM   23  C   UNL     1     -42.255  54.362 -50.598  1.00  0.00     0.001 A 
HETATM   24  C   UNL     1     -41.172  54.197 -49.738  1.00  0.00     0.000 A 
HETATM   25  C   UNL     1     -40.007  53.586 -50.195  1.00  0.00     0.001 A 
HETATM   26  C   UNL     1     -39.921  53.139 -51.516  1.00  0.00     0.008 A 
ENDBRANCH  18  21
ENDBRANCH  17  18
ENDBRANCH   1  17
TORSDOF 6
ENDMDL
MODEL 10
REMARK VINA RESULT:      -7.4      1.988      2.589
REMARK  6 active torsions:
REMARK  status: ('A' for Active; 'I' for Inactive)
REMARK    1  A    between atoms: C_2  and  C_3 
REMARK    2  A    between atoms: C_3  and  C_4 
REMARK    3  A    between atoms: C_3  and  C_10 
REMARK    4  A    between atoms: C_10  and  C_11 
REMARK       I    between atoms: C_11  and  N_12 
REMARK    5  A    between atoms: N_12  and  C_13 
REMARK    6  A    between atoms: C_15  and  C_16 
ROOT
HETATM    1  C   UNL     1     -41.783  54.693 -55.454  1.00  0.00     0.223 C 
HETATM    2  N   UNL     1     -41.762  56.045 -55.755  1.00  0.00    -0.327 N 
HETATM    3  O   UNL     1     -42.726  53.926 -55.626  1.00  0.00    -0.273 OA
HETATM    4  H   UNL     1     -40.859  56.502 -55.736  1.00  0.00     0.169 HD
ENDROOT
BRANCH   2   5
HETATM    5  C   UNL     1     -42.852  56.849 -56.152  1.00  0.00     0.035 A 
HETATM    6  C   UNL     1     -42.985  57.402 -57.431  1.00  0.00     0.042 A 
HETATM    7  C   UNL     1     -44.109  58.169 -57.786  1.00  0.00    -0.021 A 
HETATM    8  C   UNL     1     -45.102  58.377 -56.819  1.00  0.00     0.012 A 
HETATM    9  C   UNL     1     -44.982  57.828 -55.542  1.00  0.00     0.003 A 
HETATM   10  C   UNL     1     -43.863  57.063 -55.212  1.00  0.00     0.029 A 
BRANCH   7  11
HETATM   11  C   UNL     1     -44.225  58.714 -59.135  1.00  0.00     0.010 A 
HETATM   12  C   UNL     1     -43.238  59.230 -60.015  1.00  0.00     0.152 A 
HETATM   13  N   UNL     1     -43.739  59.630 -61.188  1.00  0.00    -0.187 NA
HETATM   14  N   UNL     1     -45.049  59.376 -61.070  1.00  0.00    -0.289 N 
HETATM   15  H   UNL     1     -45.653  59.600 -61.852  1.00  0.00     0.188 HD
HETATM   16  C   UNL     1     -45.391  58.829 -59.867  1.00  0.00     0.123 A 
ENDBRANCH   7  11
ENDBRANCH   2   5
BRANCH   1  17
HETATM   17  C   UNL     1     -40.468  54.193 -54.886  1.00  0.00     0.116 C 
BRANCH  17  18
HETATM   18  C   UNL     1     -40.598  53.794 -53.402  1.00  0.00     0.049 C 
BRANCH  18  19
HETATM   19  C   UNL     1     -41.911  54.121 -52.710  1.00  0.00    -0.027 C 
HETATM   20  C   UNL     1     -42.221  53.978 -51.415  1.00  0.00     0.007 C 
ENDBRANCH  18  19
BRANCH  18  21
HETATM   21  C   UNL     1     -40.273  52.310 -53.246  1.00  0.00    -0.050 A 
HETATM   22  C   UNL     1     -40.524  51.399 -54.286  1.00  0.00     0.008 A 
HETATM   23  C   UNL     1     -40.222  50.045 -54.132  1.00  0.00     0.001 A 
HETATM   24  C   UNL     1     -39.660  49.586 -52.943  1.00  0.00     0.000 A 
HETATM   25  C   UNL     1     -39.402  50.478 -51.905  1.00  0.00     0.001 A 
HETATM   26  C   UNL     1     -39.707  51.833 -52.054  1.00  0.00     0.008 A 
ENDBRANCH  18  21
ENDBRANCH  17  18
ENDBRANCH   1  17
TORSDOF 6
ENDMDL
