MODEL 1
REMARK VINA RESULT:      -8.5      0.000      0.000
REMARK  4 active torsions:
REMARK  status: ('A' for Active; 'I' for Inactive)
REMARK    1  A    between atoms: O_2  and  C_3 
REMARK    2  A    between atoms: C_5  and  C_6 
REMARK    3  A    between atoms: C_10  and  C_11 
REMARK       I    between atoms: C_11  and  N_12 
REMARK    4  A    between atoms: N_12  and  N_13 
ROOT
HETATM    1  C   UNL     1     -41.703  56.844 -53.922  1.00  0.00     0.289 C 
HETATM    2  N   UNL     1     -41.384  55.791 -53.081  1.00  0.00    -0.241 N 
HETATM    3  O   UNL     1     -41.739  56.761 -55.147  1.00  0.00    -0.264 OA
HETATM    4  H   UNL     1     -41.350  55.924 -52.071  1.00  0.00     0.192 HD
ENDROOT
BRANCH   1   5
HETATM    5  C   UNL     1     -41.995  58.086 -53.252  1.00  0.00     0.121 A 
HETATM    6  N   UNL     1     -41.391  59.250 -53.632  1.00  0.00    -0.272 N 
HETATM    7  N   UNL     1     -41.754  60.321 -52.913  1.00  0.00    -0.174 NA
HETATM    8  H   UNL     1     -40.716  59.364 -54.382  1.00  0.00     0.189 HD
HETATM    9  C   UNL     1     -42.650  59.852 -52.030  1.00  0.00     0.089 A 
HETATM   10  C   UNL     1     -42.822  58.447 -52.206  1.00  0.00     0.071 A 
BRANCH   9  11
HETATM   11  C   UNL     1     -43.302  60.737 -51.055  1.00  0.00    -0.003 A 
HETATM   12  C   UNL     1     -44.365  60.258 -50.267  1.00  0.00     0.050 A 
HETATM   13  C   UNL     1     -44.996  61.083 -49.334  1.00  0.00     0.069 A 
HETATM   14  C   UNL     1     -44.563  62.402 -49.185  1.00  0.00     0.037 A 
HETATM   15  C   UNL     1     -43.510  62.892 -49.953  1.00  0.00     0.004 A 
HETATM   16  C   UNL     1     -42.880  62.063 -50.885  1.00  0.00     0.014 A 
BRANCH  13  17
HETATM   17  O   UNL     1     -46.036  60.726 -48.517  1.00  0.00    -0.356 OA
HETATM   18  C   UNL     1     -45.760  60.659 -47.124  1.00  0.00     0.210 C 
ENDBRANCH  13  17
ENDBRANCH   9  11
ENDBRANCH   1   5
BRANCH   2  19
HETATM   19  N   UNL     1     -41.093  54.556 -53.594  1.00  0.00    -0.165 NA
HETATM   20  C   UNL     1     -40.666  53.667 -52.756  1.00  0.00     0.157 A 
HETATM   21  C   UNL     1     -40.434  53.813 -51.249  1.00  0.00     0.277 A 
HETATM   22  C   UNL     1     -40.301  52.295 -53.085  1.00  0.00     0.027 A 
HETATM   23  O   UNL     1     -40.639  54.827 -50.615  1.00  0.00    -0.266 OA
HETATM   24  N   UNL     1     -39.968  52.588 -50.826  1.00  0.00    -0.321 N 
HETATM   25  C   UNL     1     -39.890  51.696 -51.894  1.00  0.00     0.048 A 
HETATM   26  H   UNL     1     -39.725  52.383 -49.867  1.00  0.00     0.169 HD
HETATM   27  C   UNL     1     -39.474  50.383 -51.862  1.00  0.00     0.030 A 
HETATM   28  C   UNL     1     -39.483  49.676 -53.071  1.00  0.00     0.002 A 
HETATM   29  C   UNL     1     -39.901  50.289 -54.272  1.00  0.00     0.001 A 
HETATM   30  C   UNL     1     -40.319  51.621 -54.288  1.00  0.00     0.016 A 
ENDBRANCH   2  19
TORSDOF 4
ENDMDL
MODEL 2
REMARK VINA RESULT:      -8.5      5.277      9.787
REMARK  4 active torsions:
REMARK  status: ('A' for Active; 'I' for Inactive)
REMARK    1  A    between atoms: O_2  and  C_3 
REMARK    2  A    between atoms: C_5  and  C_6 
REMARK    3  A    between atoms: C_10  and  C_11 
REMARK       I    between atoms: C_11  and  N_12 
REMARK    4  A    between atoms: N_12  and  N_13 
ROOT
HETATM    1  C   UNL     1     -42.843  56.211 -57.669  1.00  0.00     0.289 C 
HETATM    2  N   UNL     1     -42.067  57.347 -57.828  1.00  0.00    -0.241 N 
HETATM    3  O   UNL     1     -43.628  55.788 -58.514  1.00  0.00    -0.264 OA
HETATM    4  H   UNL     1     -41.446  57.661 -57.083  1.00  0.00     0.192 HD
ENDROOT
BRANCH   1   5
HETATM    5  C   UNL     1     -42.671  55.534 -56.409  1.00  0.00     0.121 A 
HETATM    6  N   UNL     1     -43.696  55.447 -55.510  1.00  0.00    -0.272 N 
HETATM    7  N   UNL     1     -43.386  54.796 -54.380  1.00  0.00    -0.174 NA
HETATM    8  H   UNL     1     -44.632  55.824 -55.622  1.00  0.00     0.189 HD
HETATM    9  C   UNL     1     -42.108  54.418 -54.543  1.00  0.00     0.089 A 
HETATM   10  C   UNL     1     -41.620  54.871 -55.805  1.00  0.00     0.071 A 
BRANCH   9  11
HETATM   11  C   UNL     1     -41.397  53.655 -53.510  1.00  0.00    -0.003 A 
HETATM   12  C   UNL     1     -40.689  52.488 -53.855  1.00  0.00     0.050 A 
HETATM   13  C   UNL     1     -40.005  51.749 -52.887  1.00  0.00     0.069 A 
HETATM   14  C   UNL     1     -40.027  52.178 -51.559  1.00  0.00     0.037 A 
HETATM   15  C   UNL     1     -40.719  53.333 -51.199  1.00  0.00     0.004 A 
HETATM   16  C   UNL     1     -41.401  54.069 -52.170  1.00  0.00     0.014 A 
BRANCH  13  17
HETATM   17  O   UNL     1     -39.287  50.604 -53.106  1.00  0.00    -0.356 OA
HETATM   18  C   UNL     1     -39.553  49.906 -54.316  1.00  0.00     0.210 C 
ENDBRANCH  13  17
ENDBRANCH   9  11
ENDBRANCH   1   5
BRANCH   2  19
HETATM   19  N   UNL     1     -42.133  58.077 -58.984  1.00  0.00    -0.165 NA
HETATM   20  C   UNL     1     -41.973  59.356 -58.871  1.00  0.00     0.157 A 
HETATM   21  C   UNL     1     -41.721  60.176 -57.602  1.00  0.00     0.277 A 
HETATM   22  C   UNL     1     -42.004  60.317 -59.967  1.00  0.00     0.027 A 
HETATM   23  O   UNL     1     -41.626  59.707 -56.486  1.00  0.00    -0.266 OA
HETATM   24  N   UNL     1     -41.635  61.486 -58.019  1.00  0.00    -0.321 N 
HETATM   25  C   UNL     1     -41.797  61.574 -59.400  1.00  0.00     0.048 A 
HETATM   26  H   UNL     1     -41.471  62.261 -57.392  1.00  0.00     0.169 HD
HETATM   27  C   UNL     1     -41.770  62.712 -60.177  1.00  0.00     0.030 A 
HETATM   28  C   UNL     1     -41.956  62.553 -61.556  1.00  0.00     0.002 A 
HETATM   29  C   UNL     1     -42.163  61.277 -62.122  1.00  0.00     0.001 A 
HETATM   30  C   UNL     1     -42.189  60.133 -61.321  1.00  0.00     0.016 A 
ENDBRANCH   2  19
TORSDOF 4
ENDMDL
MODEL 3
REMARK VINA RESULT:      -8.5      4.881      9.184
REMARK  4 active torsions:
REMARK  status: ('A' for Active; 'I' for Inactive)
REMARK    1  A    between atoms: O_2  and  C_3 
REMARK    2  A    between atoms: C_5  and  C_6 
REMARK    3  A    between atoms: C_10  and  C_11 
REMARK       I    between atoms: C_11  and  N_12 
REMARK    4  A    between atoms: N_12  and  N_13 
ROOT
HETATM    1  C   UNL     1     -42.795  55.976 -57.441  1.00  0.00     0.289 C 
HETATM    2  N   UNL     1     -42.076  57.150 -57.591  1.00  0.00    -0.241 N 
HETATM    3  O   UNL     1     -43.534  55.506 -58.302  1.00  0.00    -0.264 OA
HETATM    4  H   UNL     1     -41.492  57.503 -56.833  1.00  0.00     0.192 HD
ENDROOT
BRANCH   1   5
HETATM    5  C   UNL     1     -42.621  55.319 -56.170  1.00  0.00     0.121 A 
HETATM    6  N   UNL     1     -43.668  55.173 -55.304  1.00  0.00    -0.272 N 
HETATM    7  N   UNL     1     -43.354  54.550 -54.160  1.00  0.00    -0.174 NA
HETATM    8  H   UNL     1     -44.622  55.487 -55.451  1.00  0.00     0.189 HD
HETATM    9  C   UNL     1     -42.050  54.255 -54.278  1.00  0.00     0.089 A 
HETATM   10  C   UNL     1     -41.550  54.730 -55.526  1.00  0.00     0.071 A 
BRANCH   9  11
HETATM   11  C   UNL     1     -41.325  53.546 -53.215  1.00  0.00    -0.003 A 
HETATM   12  C   UNL     1     -41.512  53.911 -51.869  1.00  0.00     0.050 A 
HETATM   13  C   UNL     1     -40.834  53.248 -50.843  1.00  0.00     0.069 A 
HETATM   14  C   UNL     1     -39.959  52.208 -51.163  1.00  0.00     0.037 A 
HETATM   15  C   UNL     1     -39.765  51.830 -52.490  1.00  0.00     0.004 A 
HETATM   16  C   UNL     1     -40.446  52.495 -53.513  1.00  0.00     0.014 A 
BRANCH  13  17
HETATM   17  O   UNL     1     -40.937  53.517 -49.505  1.00  0.00    -0.356 OA
HETATM   18  C   UNL     1     -41.196  54.868 -49.143  1.00  0.00     0.210 C 
ENDBRANCH  13  17
ENDBRANCH   9  11
ENDBRANCH   1   5
BRANCH   2  19
HETATM   19  N   UNL     1     -42.149  57.866 -58.755  1.00  0.00    -0.165 NA
HETATM   20  C   UNL     1     -42.018  59.149 -58.655  1.00  0.00     0.157 A 
HETATM   21  C   UNL     1     -41.795  59.988 -57.393  1.00  0.00     0.277 A 
HETATM   22  C   UNL     1     -42.062  60.097 -59.762  1.00  0.00     0.027 A 
HETATM   23  O   UNL     1     -41.698  59.534 -56.272  1.00  0.00    -0.266 OA
HETATM   24  N   UNL     1     -41.734  61.295 -57.824  1.00  0.00    -0.321 N 
HETATM   25  C   UNL     1     -41.888  61.364 -59.207  1.00  0.00     0.048 A 
HETATM   26  H   UNL     1     -41.593  62.081 -57.205  1.00  0.00     0.169 HD
HETATM   27  C   UNL     1     -41.880  62.494 -59.996  1.00  0.00     0.030 A 
HETATM   28  C   UNL     1     -42.052  62.316 -61.375  1.00  0.00     0.002 A 
HETATM   29  C   UNL     1     -42.226  61.029 -61.929  1.00  0.00     0.001 A 
HETATM   30  C   UNL     1     -42.232  59.894 -61.115  1.00  0.00     0.016 A 
ENDBRANCH   2  19
TORSDOF 4
ENDMDL
MODEL 4
REMARK VINA RESULT:      -8.2      2.040      2.423
REMARK  4 active torsions:
REMARK  status: ('A' for Active; 'I' for Inactive)
REMARK    1  A    between atoms: O_2  and  C_3 
REMARK    2  A    between atoms: C_5  and  C_6 
REMARK    3  A    between atoms: C_10  and  C_11 
REMARK       I    between atoms: C_11  and  N_12 
REMARK    4  A    between atoms: N_12  and  N_13 
ROOT
HETATM    1  C   UNL     1     -43.894  57.258 -52.481  1.00  0.00     0.289 C 
HETATM    2  N   UNL     1     -42.949  56.393 -51.956  1.00  0.00    -0.241 N 
HETATM    3  O   UNL     1     -44.308  57.208 -53.637  1.00  0.00    -0.264 OA
HETATM    4  H   UNL     1     -42.629  56.496 -50.993  1.00  0.00     0.192 HD
ENDROOT
BRANCH   1   5
HETATM    5  C   UNL     1     -44.376  58.257 -51.561  1.00  0.00     0.121 A 
HETATM    6  N   UNL     1     -45.600  58.135 -50.966  1.00  0.00    -0.272 N 
HETATM    7  N   UNL     1     -45.917  59.144 -50.143  1.00  0.00    -0.174 NA
HETATM    8  H   UNL     1     -46.262  57.376 -51.095  1.00  0.00     0.189 HD
HETATM    9  C   UNL     1     -44.851  59.961 -50.179  1.00  0.00     0.089 A 
HETATM   10  C   UNL     1     -43.864  59.441 -51.067  1.00  0.00     0.071 A 
BRANCH   9  11
HETATM   11  C   UNL     1     -44.806  61.196 -49.385  1.00  0.00    -0.003 A 
HETATM   12  C   UNL     1     -45.438  61.251 -48.128  1.00  0.00     0.050 A 
HETATM   13  C   UNL     1     -45.404  62.415 -47.357  1.00  0.00     0.069 A 
HETATM   14  C   UNL     1     -44.734  63.538 -47.844  1.00  0.00     0.037 A 
HETATM   15  C   UNL     1     -44.099  63.501 -49.084  1.00  0.00     0.004 A 
HETATM   16  C   UNL     1     -44.134  62.335 -49.852  1.00  0.00     0.014 A 
BRANCH  13  17
HETATM   17  O   UNL     1     -45.981  62.583 -46.127  1.00  0.00    -0.356 OA
HETATM   18  C   UNL     1     -45.110  62.909 -45.051  1.00  0.00     0.210 C 
ENDBRANCH  13  17
ENDBRANCH   9  11
ENDBRANCH   1   5
BRANCH   2  19
HETATM   19  N   UNL     1     -42.417  55.394 -52.725  1.00  0.00    -0.165 NA
HETATM   20  C   UNL     1     -41.642  54.550 -52.124  1.00  0.00     0.157 A 
HETATM   21  C   UNL     1     -41.231  54.519 -50.649  1.00  0.00     0.277 A 
HETATM   22  C   UNL     1     -40.974  53.415 -52.749  1.00  0.00     0.027 A 
HETATM   23  O   UNL     1     -41.603  55.316 -49.813  1.00  0.00    -0.266 OA
HETATM   24  N   UNL     1     -40.391  53.434 -50.522  1.00  0.00    -0.321 N 
HETATM   25  C   UNL     1     -40.240  52.785 -51.745  1.00  0.00     0.048 A 
HETATM   26  H   UNL     1     -39.958  53.163 -49.651  1.00  0.00     0.169 HD
HETATM   27  C   UNL     1     -39.484  51.663 -52.012  1.00  0.00     0.030 A 
HETATM   28  C   UNL     1     -39.487  51.184 -53.328  1.00  0.00     0.002 A 
HETATM   29  C   UNL     1     -40.234  51.827 -54.337  1.00  0.00     0.001 A 
HETATM   30  C   UNL     1     -40.994  52.964 -54.052  1.00  0.00     0.016 A 
ENDBRANCH   2  19
TORSDOF 4
ENDMDL
MODEL 5
REMARK VINA RESULT:      -8.2      1.686      2.353
REMARK  4 active torsions:
REMARK  status: ('A' for Active; 'I' for Inactive)
REMARK    1  A    between atoms: O_2  and  C_3 
REMARK    2  A    between atoms: C_5  and  C_6 
REMARK    3  A    between atoms: C_10  and  C_11 
REMARK       I    between atoms: C_11  and  N_12 
REMARK    4  A    between atoms: N_12  and  N_13 
ROOT
HETATM    1  C   UNL     1     -41.468  59.062 -53.015  1.00  0.00     0.289 C 
HETATM    2  N   UNL     1     -42.218  57.898 -53.006  1.00  0.00    -0.241 N 
HETATM    3  O   UNL     1     -40.346  59.155 -53.507  1.00  0.00    -0.264 OA
HETATM    4  H   UNL     1     -43.137  57.875 -52.565  1.00  0.00     0.192 HD
ENDROOT
BRANCH   1   5
HETATM    5  C   UNL     1     -42.102  60.195 -52.389  1.00  0.00     0.121 A 
HETATM    6  N   UNL     1     -42.718  61.159 -53.136  1.00  0.00    -0.272 N 
HETATM    7  N   UNL     1     -43.255  62.154 -52.417  1.00  0.00    -0.174 NA
HETATM    8  H   UNL     1     -42.794  61.183 -54.148  1.00  0.00     0.189 HD
HETATM    9  C   UNL     1     -43.002  61.828 -51.139  1.00  0.00     0.089 A 
HETATM   10  C   UNL     1     -42.271  60.605 -51.081  1.00  0.00     0.071 A 
BRANCH   9  11
HETATM   11  C   UNL     1     -43.451  62.678 -50.029  1.00  0.00    -0.003 A 
HETATM   12  C   UNL     1     -44.398  62.195 -49.108  1.00  0.00     0.050 A 
HETATM   13  C   UNL     1     -44.836  62.987 -48.043  1.00  0.00     0.069 A 
HETATM   14  C   UNL     1     -44.323  64.277 -47.896  1.00  0.00     0.037 A 
HETATM   15  C   UNL     1     -43.381  64.771 -48.796  1.00  0.00     0.004 A 
HETATM   16  C   UNL     1     -42.945  63.975 -49.858  1.00  0.00     0.014 A 
BRANCH  13  17
HETATM   17  O   UNL     1     -45.750  62.623 -47.092  1.00  0.00    -0.356 OA
HETATM   18  C   UNL     1     -45.476  63.025 -45.755  1.00  0.00     0.210 C 
ENDBRANCH  13  17
ENDBRANCH   9  11
ENDBRANCH   1   5
BRANCH   2  19
HETATM   19  N   UNL     1     -41.731  56.753 -53.575  1.00  0.00    -0.165 NA
HETATM   20  C   UNL     1     -41.401  55.799 -52.765  1.00  0.00     0.157 A 
HETATM   21  C   UNL     1     -41.478  55.779 -51.236  1.00  0.00     0.277 A 
HETATM   22  C   UNL     1     -40.864  54.501 -53.155  1.00  0.00     0.027 A 
HETATM   23  O   UNL     1     -41.886  56.696 -50.554  1.00  0.00    -0.266 OA
HETATM   24  N   UNL     1     -41.001  54.543 -50.857  1.00  0.00    -0.321 N 
HETATM   25  C   UNL     1     -40.643  53.792 -51.975  1.00  0.00     0.048 A 
HETATM   26  H   UNL     1     -40.933  54.242 -49.896  1.00  0.00     0.169 HD
HETATM   27  C   UNL     1     -40.133  52.512 -51.996  1.00  0.00     0.030 A 
HETATM   28  C   UNL     1     -39.848  51.954 -53.249  1.00  0.00     0.002 A 
HETATM   29  C   UNL     1     -40.076  52.678 -54.439  1.00  0.00     0.001 A 
HETATM   30  C   UNL     1     -40.593  53.975 -54.401  1.00  0.00     0.016 A 
ENDBRANCH   2  19
TORSDOF 4
ENDMDL
MODEL 6
REMARK VINA RESULT:      -8.0     17.770     19.665
REMARK  4 active torsions:
REMARK  status: ('A' for Active; 'I' for Inactive)
REMARK    1  A    between atoms: O_2  and  C_3 
REMARK    2  A    between atoms: C_5  and  C_6 
REMARK    3  A    between atoms: C_10  and  C_11 
REMARK       I    between atoms: C_11  and  N_12 
REMARK    4  A    between atoms: N_12  and  N_13 
ROOT
HETATM    1  C   UNL     1     -33.156  40.797 -53.946  1.00  0.00     0.289 C 
HETATM    2  N   UNL     1     -33.702  40.990 -52.688  1.00  0.00    -0.241 N 
HETATM    3  O   UNL     1     -32.009  40.405 -54.147  1.00  0.00    -0.264 OA
HETATM    4  H   UNL     1     -34.655  41.337 -52.583  1.00  0.00     0.192 HD
ENDROOT
BRANCH   1   5
HETATM    5  C   UNL     1     -34.041  41.099 -55.042  1.00  0.00     0.121 A 
HETATM    6  N   UNL     1     -34.677  42.306 -55.122  1.00  0.00    -0.272 N 
HETATM    7  N   UNL     1     -35.474  42.439 -56.191  1.00  0.00    -0.174 NA
HETATM    8  H   UNL     1     -34.601  43.075 -54.463  1.00  0.00     0.189 HD
HETATM    9  C   UNL     1     -35.348  41.281 -56.859  1.00  0.00     0.089 A 
HETATM   10  C   UNL     1     -34.461  40.408 -56.162  1.00  0.00     0.071 A 
BRANCH   9  11
HETATM   11  C   UNL     1     -36.068  41.039 -58.116  1.00  0.00    -0.003 A 
HETATM   12  C   UNL     1     -36.042  39.763 -58.710  1.00  0.00     0.050 A 
HETATM   13  C   UNL     1     -36.722  39.512 -59.904  1.00  0.00     0.069 A 
HETATM   14  C   UNL     1     -37.435  40.545 -60.514  1.00  0.00     0.037 A 
HETATM   15  C   UNL     1     -37.475  41.813 -59.938  1.00  0.00     0.004 A 
HETATM   16  C   UNL     1     -36.795  42.060 -58.743  1.00  0.00     0.014 A 
BRANCH  13  17
HETATM   17  O   UNL     1     -36.765  38.316 -60.569  1.00  0.00    -0.356 OA
HETATM   18  C   UNL     1     -36.387  38.333 -61.940  1.00  0.00     0.210 C 
ENDBRANCH  13  17
ENDBRANCH   9  11
ENDBRANCH   1   5
BRANCH   2  19
HETATM   19  N   UNL     1     -32.965  40.732 -51.564  1.00  0.00    -0.165 NA
HETATM   20  C   UNL     1     -33.479  39.903 -50.713  1.00  0.00     0.157 A 
HETATM   21  C   UNL     1     -34.818  39.166 -50.792  1.00  0.00     0.277 A 
HETATM   22  C   UNL     1     -32.868  39.488 -49.456  1.00  0.00     0.027 A 
HETATM   23  O   UNL     1     -35.605  39.261 -51.711  1.00  0.00    -0.266 OA
HETATM   24  N   UNL     1     -34.898  38.418 -49.637  1.00  0.00    -0.321 N 
HETATM   25  C   UNL     1     -33.760  38.602 -48.854  1.00  0.00     0.048 A 
HETATM   26  H   UNL     1     -35.681  37.823 -49.410  1.00  0.00     0.169 HD
HETATM   27  C   UNL     1     -33.477  38.021 -47.637  1.00  0.00     0.030 A 
HETATM   28  C   UNL     1     -32.259  38.357 -47.032  1.00  0.00     0.002 A 
HETATM   29  C   UNL     1     -31.360  39.254 -47.649  1.00  0.00     0.001 A 
HETATM   30  C   UNL     1     -31.662  39.835 -48.882  1.00  0.00     0.016 A 
ENDBRANCH   2  19
TORSDOF 4
ENDMDL
MODEL 7
REMARK VINA RESULT:      -7.9      3.767      6.049
REMARK  4 active torsions:
REMARK  status: ('A' for Active; 'I' for Inactive)
REMARK    1  A    between atoms: O_2  and  C_3 
REMARK    2  A    between atoms: C_5  and  C_6 
REMARK    3  A    between atoms: C_10  and  C_11 
REMARK       I    between atoms: C_11  and  N_12 
REMARK    4  A    between atoms: N_12  and  N_13 
ROOT
HETATM    1  C   UNL     1     -41.745  56.909 -53.118  1.00  0.00     0.289 C 
HETATM    2  N   UNL     1     -41.120  55.715 -53.434  1.00  0.00    -0.241 N 
HETATM    3  O   UNL     1     -42.196  57.178 -52.007  1.00  0.00    -0.264 OA
HETATM    4  H   UNL     1     -40.782  55.540 -54.381  1.00  0.00     0.192 HD
ENDROOT
BRANCH   1   5
HETATM    5  C   UNL     1     -41.843  57.847 -54.207  1.00  0.00     0.121 A 
HETATM    6  N   UNL     1     -41.504  59.160 -54.038  1.00  0.00    -0.272 N 
HETATM    7  N   UNL     1     -41.655  59.914 -55.136  1.00  0.00    -0.174 NA
HETATM    8  H   UNL     1     -41.165  59.592 -53.184  1.00  0.00     0.189 HD
HETATM    9  C   UNL     1     -42.094  59.064 -56.078  1.00  0.00     0.089 A 
HETATM   10  C   UNL     1     -42.233  57.755 -55.529  1.00  0.00     0.071 A 
BRANCH   9  11
HETATM   11  C   UNL     1     -42.370  59.514 -57.448  1.00  0.00    -0.003 A 
HETATM   12  C   UNL     1     -41.533  60.464 -58.061  1.00  0.00     0.050 A 
HETATM   13  C   UNL     1     -41.777  60.904 -59.364  1.00  0.00     0.069 A 
HETATM   14  C   UNL     1     -42.870  60.391 -60.064  1.00  0.00     0.037 A 
HETATM   15  C   UNL     1     -43.708  59.446 -59.475  1.00  0.00     0.004 A 
HETATM   16  C   UNL     1     -43.459  59.008 -58.172  1.00  0.00     0.014 A 
BRANCH  13  17
HETATM   17  O   UNL     1     -41.033  61.821 -60.057  1.00  0.00    -0.356 OA
HETATM   18  C   UNL     1     -40.053  62.539 -59.318  1.00  0.00     0.210 C 
ENDBRANCH  13  17
ENDBRANCH   9  11
ENDBRANCH   1   5
BRANCH   2  19
HETATM   19  N   UNL     1     -40.958  54.742 -52.485  1.00  0.00    -0.165 NA
HETATM   20  C   UNL     1     -40.537  53.591 -52.902  1.00  0.00     0.157 A 
HETATM   21  C   UNL     1     -40.196  53.163 -54.332  1.00  0.00     0.277 A 
HETATM   22  C   UNL     1     -40.295  52.422 -52.067  1.00  0.00     0.027 A 
HETATM   23  O   UNL     1     -40.271  53.885 -55.305  1.00  0.00    -0.266 OA
HETATM   24  N   UNL     1     -39.808  51.844 -54.241  1.00  0.00    -0.321 N 
HETATM   25  C   UNL     1     -39.862  51.407 -52.919  1.00  0.00     0.048 A 
HETATM   26  H   UNL     1     -39.522  51.290 -55.035  1.00  0.00     0.169 HD
HETATM   27  C   UNL     1     -39.546  50.156 -52.436  1.00  0.00     0.030 A 
HETATM   28  C   UNL     1     -39.676  49.947 -51.057  1.00  0.00     0.002 A 
HETATM   29  C   UNL     1     -40.114  50.980 -50.200  1.00  0.00     0.001 A 
HETATM   30  C   UNL     1     -40.432  52.243 -50.706  1.00  0.00     0.016 A 
ENDBRANCH   2  19
TORSDOF 4
ENDMDL
MODEL 8
REMARK VINA RESULT:      -7.8     17.339     19.694
REMARK  4 active torsions:
REMARK  status: ('A' for Active; 'I' for Inactive)
REMARK    1  A    between atoms: O_2  and  C_3 
REMARK    2  A    between atoms: C_5  and  C_6 
REMARK    3  A    between atoms: C_10  and  C_11 
REMARK       I    between atoms: C_11  and  N_12 
REMARK    4  A    between atoms: N_12  and  N_13 
ROOT
HETATM    1  C   UNL     1     -34.792  41.432 -53.083  1.00  0.00     0.289 C 
HETATM    2  N   UNL     1     -34.318  41.215 -54.365  1.00  0.00    -0.241 N 
HETATM    3  O   UNL     1     -35.839  42.022 -52.825  1.00  0.00    -0.264 OA
HETATM    4  H   UNL     1     -33.431  40.736 -54.517  1.00  0.00     0.192 HD
ENDROOT
BRANCH   1   5
HETATM    5  C   UNL     1     -33.955  40.912 -52.032  1.00  0.00     0.121 A 
HETATM    6  N   UNL     1     -32.593  40.961 -52.127  1.00  0.00    -0.272 N 
HETATM    7  N   UNL     1     -31.947  40.432 -51.079  1.00  0.00    -0.174 NA
HETATM    8  H   UNL     1     -32.054  41.347 -52.896  1.00  0.00     0.189 HD
HETATM    9  C   UNL     1     -32.920  40.031 -50.244  1.00  0.00     0.089 A 
HETATM   10  C   UNL     1     -34.198  40.309 -50.813  1.00  0.00     0.071 A 
BRANCH   9  11
HETATM   11  C   UNL     1     -32.611  39.401 -48.954  1.00  0.00    -0.003 A 
HETATM   12  C   UNL     1     -31.477  39.803 -48.226  1.00  0.00     0.050 A 
HETATM   13  C   UNL     1     -31.167  39.217 -46.996  1.00  0.00     0.069 A 
HETATM   14  C   UNL     1     -31.999  38.218 -46.487  1.00  0.00     0.037 A 
HETATM   15  C   UNL     1     -33.129  37.810 -47.192  1.00  0.00     0.004 A 
HETATM   16  C   UNL     1     -33.435  38.399 -48.421  1.00  0.00     0.014 A 
BRANCH  13  17
HETATM   17  O   UNL     1     -30.094  39.527 -46.204  1.00  0.00    -0.356 OA
HETATM   18  C   UNL     1     -29.772  40.906 -46.075  1.00  0.00     0.210 C 
ENDBRANCH  13  17
ENDBRANCH   9  11
ENDBRANCH   1   5
BRANCH   2  19
HETATM   19  N   UNL     1     -35.025  41.655 -55.451  1.00  0.00    -0.165 NA
HETATM   20  C   UNL     1     -35.267  40.783 -56.377  1.00  0.00     0.157 A 
HETATM   21  C   UNL     1     -34.860  39.307 -56.423  1.00  0.00     0.277 A 
HETATM   22  C   UNL     1     -36.000  41.034 -57.611  1.00  0.00     0.027 A 
HETATM   23  O   UNL     1     -34.236  38.736 -55.553  1.00  0.00    -0.266 OA
HETATM   24  N   UNL     1     -35.349  38.826 -57.619  1.00  0.00    -0.321 N 
HETATM   25  C   UNL     1     -36.017  39.831 -58.315  1.00  0.00     0.048 A 
HETATM   26  H   UNL     1     -35.231  37.872 -57.926  1.00  0.00     0.169 HD
HETATM   27  C   UNL     1     -36.640  39.730 -59.541  1.00  0.00     0.030 A 
HETATM   28  C   UNL     1     -37.254  40.883 -60.046  1.00  0.00     0.002 A 
HETATM   29  C   UNL     1     -37.233  42.097 -59.326  1.00  0.00     0.001 A 
HETATM   30  C   UNL     1     -36.597  42.183 -58.086  1.00  0.00     0.016 A 
ENDBRANCH   2  19
TORSDOF 4
ENDMDL
MODEL 9
REMARK VINA RESULT:      -7.8      1.763      2.295
REMARK  4 active torsions:
REMARK  status: ('A' for Active; 'I' for Inactive)
REMARK    1  A    between atoms: O_2  and  C_3 
REMARK    2  A    between atoms: C_5  and  C_6 
REMARK    3  A    between atoms: C_10  and  C_11 
REMARK       I    between atoms: C_11  and  N_12 
REMARK    4  A    between atoms: N_12  and  N_13 
ROOT
HETATM    1  C   UNL     1     -42.176  58.019 -52.476  1.00  0.00     0.289 C 
HETATM    2  N   UNL     1     -42.432  56.725 -52.054  1.00  0.00    -0.241 N 
HETATM    3  O   UNL     1     -41.574  58.300 -53.510  1.00  0.00    -0.264 OA
HETATM    4  H   UNL     1     -42.920  56.552 -51.175  1.00  0.00     0.192 HD
ENDROOT
BRANCH   1   5
HETATM    5  C   UNL     1     -42.671  59.050 -51.600  1.00  0.00     0.121 A 
HETATM    6  N   UNL     1     -41.820  59.938 -51.006  1.00  0.00    -0.272 N 
HETATM    7  N   UNL     1     -42.422  60.834 -50.212  1.00  0.00    -0.174 NA
HETATM    8  H   UNL     1     -40.810  59.971 -51.111  1.00  0.00     0.189 HD
HETATM    9  C   UNL     1     -43.730  60.540 -50.297  1.00  0.00     0.089 A 
HETATM   10  C   UNL     1     -43.926  59.418 -51.154  1.00  0.00     0.071 A 
BRANCH   9  11
HETATM   11  C   UNL     1     -44.739  61.319 -49.566  1.00  0.00    -0.003 A 
HETATM   12  C   UNL     1     -45.738  62.016 -50.270  1.00  0.00     0.050 A 
HETATM   13  C   UNL     1     -46.708  62.761 -49.594  1.00  0.00     0.069 A 
HETATM   14  C   UNL     1     -46.680  62.811 -48.200  1.00  0.00     0.037 A 
HETATM   15  C   UNL     1     -45.701  62.124 -47.486  1.00  0.00     0.004 A 
HETATM   16  C   UNL     1     -44.734  61.379 -48.166  1.00  0.00     0.014 A 
BRANCH  13  17
HETATM   17  O   UNL     1     -47.721  63.476 -50.173  1.00  0.00    -0.356 OA
HETATM   18  C   UNL     1     -48.516  64.275 -49.305  1.00  0.00     0.210 C 
ENDBRANCH  13  17
ENDBRANCH   9  11
ENDBRANCH   1   5
BRANCH   2  19
HETATM   19  N   UNL     1     -42.019  55.656 -52.801  1.00  0.00    -0.165 NA
HETATM   20  C   UNL     1     -41.328  54.751 -52.185  1.00  0.00     0.157 A 
HETATM   21  C   UNL     1     -40.900  54.717 -50.715  1.00  0.00     0.277 A 
HETATM   22  C   UNL     1     -40.793  53.535 -52.786  1.00  0.00     0.027 A 
HETATM   23  O   UNL     1     -41.174  55.570 -49.897  1.00  0.00    -0.266 OA
HETATM   24  N   UNL     1     -40.177  53.553 -50.568  1.00  0.00    -0.321 N 
HETATM   25  C   UNL     1     -40.114  52.858 -51.774  1.00  0.00     0.048 A 
HETATM   26  H   UNL     1     -39.763  53.261 -49.695  1.00  0.00     0.169 HD
HETATM   27  C   UNL     1     -39.484  51.656 -52.017  1.00  0.00     0.030 A 
HETATM   28  C   UNL     1     -39.557  51.145 -53.319  1.00  0.00     0.002 A 
HETATM   29  C   UNL     1     -40.248  51.836 -54.337  1.00  0.00     0.001 A 
HETATM   30  C   UNL     1     -40.880  53.054 -54.075  1.00  0.00     0.016 A 
ENDBRANCH   2  19
TORSDOF 4
ENDMDL
MODEL 10
REMARK VINA RESULT:      -7.8      4.999      9.766
REMARK  4 active torsions:
REMARK  status: ('A' for Active; 'I' for Inactive)
REMARK    1  A    between atoms: O_2  and  C_3 
REMARK    2  A    between atoms: C_5  and  C_6 
REMARK    3  A    between atoms: C_10  and  C_11 
REMARK       I    between atoms: C_11  and  N_12 
REMARK    4  A    between atoms: N_12  and  N_13 
ROOT
HETATM    1  C   UNL     1     -42.433  57.443 -56.266  1.00  0.00     0.289 C 
HETATM    2  N   UNL     1     -42.015  57.556 -57.581  1.00  0.00    -0.241 N 
HETATM    3  O   UNL     1     -42.946  58.357 -55.624  1.00  0.00    -0.264 OA
HETATM    4  H   UNL     1     -41.577  56.767 -58.056  1.00  0.00     0.192 HD
ENDROOT
BRANCH   1   5
HETATM    5  C   UNL     1     -42.220  56.147 -55.672  1.00  0.00     0.121 A 
HETATM    6  N   UNL     1     -43.109  55.128 -55.866  1.00  0.00    -0.272 N 
HETATM    7  N   UNL     1     -42.783  53.986 -55.246  1.00  0.00    -0.174 NA
HETATM    8  H   UNL     1     -43.962  55.167 -56.416  1.00  0.00     0.189 HD
HETATM    9  C   UNL     1     -41.620  54.251 -54.630  1.00  0.00     0.089 A 
HETATM   10  C   UNL     1     -41.237  55.604 -54.868  1.00  0.00     0.071 A 
BRANCH   9  11
HETATM   11  C   UNL     1     -40.920  53.229 -53.841  1.00  0.00    -0.003 A 
HETATM   12  C   UNL     1     -40.895  53.316 -52.436  1.00  0.00     0.050 A 
HETATM   13  C   UNL     1     -40.238  52.353 -51.668  1.00  0.00     0.069 A 
HETATM   14  C   UNL     1     -39.596  51.291 -52.307  1.00  0.00     0.037 A 
HETATM   15  C   UNL     1     -39.614  51.186 -53.696  1.00  0.00     0.004 A 
HETATM   16  C   UNL     1     -40.274  52.150 -54.461  1.00  0.00     0.014 A 
BRANCH  13  17
HETATM   17  O   UNL     1     -40.148  52.336 -50.302  1.00  0.00    -0.356 OA
HETATM   18  C   UNL     1     -40.229  53.593 -49.641  1.00  0.00     0.210 C 
ENDBRANCH  13  17
ENDBRANCH   9  11
ENDBRANCH   1   5
BRANCH   2  19
HETATM   19  N   UNL     1     -42.168  58.734 -58.260  1.00  0.00    -0.165 NA
HETATM   20  C   UNL     1     -43.075  58.756 -59.183  1.00  0.00     0.157 A 
HETATM   21  C   UNL     1     -44.009  57.627 -59.627  1.00  0.00     0.277 A 
HETATM   22  C   UNL     1     -43.404  59.901 -60.023  1.00  0.00     0.027 A 
HETATM   23  O   UNL     1     -44.026  56.515 -59.142  1.00  0.00    -0.266 OA
HETATM   24  N   UNL     1     -44.772  58.157 -60.645  1.00  0.00    -0.321 N 
HETATM   25  C   UNL     1     -44.424  59.485 -60.878  1.00  0.00     0.048 A 
HETATM   26  H   UNL     1     -45.484  57.636 -61.137  1.00  0.00     0.169 HD
HETATM   27  C   UNL     1     -44.967  60.343 -61.811  1.00  0.00     0.030 A 
HETATM   28  C   UNL     1     -44.454  61.645 -61.861  1.00  0.00     0.002 A 
HETATM   29  C   UNL     1     -43.423  62.058 -60.991  1.00  0.00     0.001 A 
HETATM   30  C   UNL     1     -42.882  61.177 -60.052  1.00  0.00     0.016 A 
ENDBRANCH   2  19
TORSDOF 4
ENDMDL
