MODEL 1
REMARK VINA RESULT:      -9.2      0.000      0.000
REMARK  7 active torsions:
REMARK  status: ('A' for Active; 'I' for Inactive)
REMARK    1  A    between atoms: C_3  and  C_4 
REMARK    2  A    between atoms: C_4  and  N_5 
REMARK    3  A    between atoms: C_9  and  C_10 
REMARK    4  A    between atoms: C_9  and  C_28 
REMARK    5  A    between atoms: N_13  and  C_15 
REMARK    6  A    between atoms: C_15  and  C_16 
REMARK    7  A    between atoms: C_28  and  C_29 
ROOT
HETATM    1  C   UNL     1     -43.981  60.424 -51.478  1.00  0.00     0.112 C 
HETATM    2  C   UNL     1     -42.999  59.353 -51.299  1.00  0.00    -0.109 C 
HETATM    3  C   UNL     1     -42.159  58.375 -51.104  1.00  0.00    -0.087 C 
ENDROOT
BRANCH   3   4
HETATM    4  C   UNL     1     -41.180  57.235 -50.876  1.00  0.00     0.230 C 
BRANCH   4   5
HETATM    5  N   UNL     1     -41.534  56.033 -51.584  1.00  0.00    -0.257 N 
HETATM    6  C   UNL     1     -41.836  54.857 -50.976  1.00  0.00     0.327 C 
HETATM    7  O   UNL     1     -41.965  54.640 -49.787  1.00  0.00    -0.247 OA
HETATM    8  N   UNL     1     -41.962  53.891 -51.948  1.00  0.00    -0.324 N 
HETATM    9  C   UNL     1     -41.616  54.364 -53.277  1.00  0.00     0.123 C 
HETATM   10  H   UNL     1     -42.089  52.919 -51.682  1.00  0.00     0.165 HD
HETATM   11  C   UNL     1     -41.296  55.828 -52.908  1.00  0.00     0.257 C 
HETATM   12  O   UNL     1     -40.894  56.671 -53.697  1.00  0.00    -0.270 OA
BRANCH   9  13
HETATM   13  C   UNL     1     -42.837  54.180 -54.241  1.00  0.00     0.027 C 
HETATM   14  C   UNL     1     -42.573  54.369 -55.743  1.00  0.00     0.035 C 
HETATM   15  C   UNL     1     -42.544  55.807 -56.247  1.00  0.00     0.235 C 
HETATM   16  N   UNL     1     -43.683  56.640 -55.711  1.00  0.00    -0.067 N 
HETATM   17  H   UNL     1     -44.513  56.382 -56.260  1.00  0.00     0.280 HD
HETATM   18  C   UNL     1     -44.027  56.454 -54.259  1.00  0.00     0.235 C 
HETATM   19  C   UNL     1     -44.102  54.986 -53.887  1.00  0.00     0.035 C 
BRANCH  16  20
HETATM   20  C   UNL     1     -43.446  58.126 -55.966  1.00  0.00     0.273 C 
BRANCH  20  21
HETATM   21  C   UNL     1     -43.591  58.534 -57.403  1.00  0.00    -0.030 A 
HETATM   22  C   UNL     1     -42.616  59.333 -58.018  1.00  0.00     0.048 A 
HETATM   23  C   UNL     1     -42.766  59.720 -59.348  1.00  0.00     0.102 A 
HETATM   24  C   UNL     1     -43.901  59.341 -60.070  1.00  0.00     0.102 A 
HETATM   25  O   UNL     1     -41.758  60.480 -59.881  1.00  0.00    -0.346 OA
HETATM   26  O   UNL     1     -44.127  59.712 -61.367  1.00  0.00    -0.346 OA
HETATM   27  C   UNL     1     -44.868  58.537 -59.472  1.00  0.00     0.040 A 
HETATM   28  C   UNL     1     -43.252  60.772 -61.775  1.00  0.00     0.202 C 
HETATM   29  C   UNL     1     -41.828  60.504 -61.313  1.00  0.00     0.202 C 
HETATM   30  C   UNL     1     -44.715  58.134 -58.145  1.00  0.00     0.012 A 
ENDBRANCH  20  21
ENDBRANCH  16  20
ENDBRANCH   9  13
BRANCH   9  31
HETATM   31  C   UNL     1     -40.276  53.750 -53.767  1.00  0.00     0.080 C 
BRANCH  31  32
HETATM   32  C   UNL     1     -40.076  52.285 -53.463  1.00  0.00    -0.052 A 
HETATM   33  C   UNL     1     -39.665  51.861 -52.194  1.00  0.00     0.049 A 
HETATM   34  C   UNL     1     -39.498  50.504 -51.930  1.00  0.00     0.116 A 
HETATM   35  F   UNL     1     -39.097  50.119 -50.711  1.00  0.00    -0.206 F 
HETATM   36  C   UNL     1     -39.741  49.548 -52.907  1.00  0.00     0.042 A 
HETATM   37  C   UNL     1     -40.162  49.955 -54.170  1.00  0.00     0.003 A 
HETATM   38  C   UNL     1     -40.328  51.315 -54.447  1.00  0.00     0.007 A 
ENDBRANCH  31  32
ENDBRANCH   9  31
ENDBRANCH   4   5
ENDBRANCH   3   4
TORSDOF 7
ENDMDL
MODEL 2
REMARK VINA RESULT:      -9.2     15.948     18.105
REMARK  7 active torsions:
REMARK  status: ('A' for Active; 'I' for Inactive)
REMARK    1  A    between atoms: C_3  and  C_4 
REMARK    2  A    between atoms: C_4  and  N_5 
REMARK    3  A    between atoms: C_9  and  C_10 
REMARK    4  A    between atoms: C_9  and  C_28 
REMARK    5  A    between atoms: N_13  and  C_15 
REMARK    6  A    between atoms: C_15  and  C_16 
REMARK    7  A    between atoms: C_28  and  C_29 
ROOT
HETATM    1  C   UNL     1     -32.707  40.067 -49.725  1.00  0.00     0.112 C 
HETATM    2  C   UNL     1     -33.986  40.171 -50.431  1.00  0.00    -0.109 C 
HETATM    3  C   UNL     1     -35.144  40.227 -51.026  1.00  0.00    -0.087 C 
ENDROOT
BRANCH   3   4
HETATM    4  C   UNL     1     -36.495  40.291 -51.719  1.00  0.00     0.230 C 
BRANCH   4   5
HETATM    5  N   UNL     1     -36.394  40.412 -53.150  1.00  0.00    -0.257 N 
HETATM    6  C   UNL     1     -36.167  39.364 -53.984  1.00  0.00     0.327 C 
HETATM    7  O   UNL     1     -36.120  38.182 -53.705  1.00  0.00    -0.247 OA
HETATM    8  N   UNL     1     -35.967  39.860 -55.251  1.00  0.00    -0.324 N 
HETATM    9  C   UNL     1     -35.926  41.312 -55.301  1.00  0.00     0.123 C 
HETATM   10  H   UNL     1     -35.683  39.236 -56.000  1.00  0.00     0.165 HD
HETATM   11  C   UNL     1     -36.184  41.586 -53.805  1.00  0.00     0.257 C 
HETATM   12  O   UNL     1     -36.200  42.697 -53.295  1.00  0.00    -0.270 OA
BRANCH   9  13
HETATM   13  C   UNL     1     -37.037  41.842 -56.269  1.00  0.00     0.027 C 
HETATM   14  C   UNL     1     -38.301  40.980 -56.417  1.00  0.00     0.035 C 
HETATM   15  C   UNL     1     -38.202  39.797 -57.372  1.00  0.00     0.235 C 
HETATM   16  N   UNL     1     -37.540  40.152 -58.680  1.00  0.00    -0.067 N 
HETATM   17  H   UNL     1     -38.250  40.643 -59.239  1.00  0.00     0.280 HD
HETATM   18  C   UNL     1     -36.332  41.043 -58.604  1.00  0.00     0.235 C 
HETATM   19  C   UNL     1     -36.569  42.227 -57.686  1.00  0.00     0.035 C 
BRANCH  16  20
HETATM   20  C   UNL     1     -37.169  38.899 -59.468  1.00  0.00     0.273 C 
BRANCH  20  21
HETATM   21  C   UNL     1     -38.146  38.538 -60.549  1.00  0.00    -0.030 A 
HETATM   22  C   UNL     1     -39.478  38.234 -60.231  1.00  0.00     0.048 A 
HETATM   23  C   UNL     1     -40.374  37.885 -61.239  1.00  0.00     0.102 A 
HETATM   24  C   UNL     1     -39.948  37.807 -62.567  1.00  0.00     0.102 A 
HETATM   25  O   UNL     1     -41.662  37.626 -60.848  1.00  0.00    -0.346 OA
HETATM   26  O   UNL     1     -40.767  37.440 -63.601  1.00  0.00    -0.346 OA
HETATM   27  C   UNL     1     -38.632  38.120 -62.894  1.00  0.00     0.040 A 
HETATM   28  C   UNL     1     -41.983  36.848 -63.128  1.00  0.00     0.202 C 
HETATM   29  C   UNL     1     -42.558  37.647 -61.968  1.00  0.00     0.202 C 
HETATM   30  C   UNL     1     -37.733  38.485 -61.890  1.00  0.00     0.012 A 
ENDBRANCH  20  21
ENDBRANCH  16  20
ENDBRANCH   9  13
BRANCH   9  31
HETATM   31  C   UNL     1     -34.488  41.829 -55.583  1.00  0.00     0.080 C 
BRANCH  31  32
HETATM   32  C   UNL     1     -33.383  40.812 -55.428  1.00  0.00    -0.052 A 
HETATM   33  C   UNL     1     -32.949  40.406 -54.161  1.00  0.00     0.049 A 
HETATM   34  C   UNL     1     -31.936  39.458 -54.040  1.00  0.00     0.116 A 
HETATM   35  F   UNL     1     -31.530  39.087 -52.819  1.00  0.00    -0.206 F 
HETATM   36  C   UNL     1     -31.345  38.892 -55.161  1.00  0.00     0.042 A 
HETATM   37  C   UNL     1     -31.776  39.278 -56.428  1.00  0.00     0.003 A 
HETATM   38  C   UNL     1     -32.788  40.233 -56.561  1.00  0.00     0.007 A 
ENDBRANCH  31  32
ENDBRANCH   9  31
ENDBRANCH   4   5
ENDBRANCH   3   4
TORSDOF 7
ENDMDL
MODEL 3
REMARK VINA RESULT:      -9.2      2.599      4.811
REMARK  7 active torsions:
REMARK  status: ('A' for Active; 'I' for Inactive)
REMARK    1  A    between atoms: C_3  and  C_4 
REMARK    2  A    between atoms: C_4  and  N_5 
REMARK    3  A    between atoms: C_9  and  C_10 
REMARK    4  A    between atoms: C_9  and  C_28 
REMARK    5  A    between atoms: N_13  and  C_15 
REMARK    6  A    between atoms: C_15  and  C_16 
REMARK    7  A    between atoms: C_28  and  C_29 
ROOT
HETATM    1  C   UNL     1     -39.578  51.891 -52.257  1.00  0.00     0.112 C 
HETATM    2  C   UNL     1     -40.167  52.886 -51.359  1.00  0.00    -0.109 C 
HETATM    3  C   UNL     1     -40.727  53.785 -50.599  1.00  0.00    -0.087 C 
ENDROOT
BRANCH   3   4
HETATM    4  C   UNL     1     -41.379  54.833 -49.713  1.00  0.00     0.230 C 
BRANCH   4   5
HETATM    5  N   UNL     1     -42.290  55.691 -50.424  1.00  0.00    -0.257 N 
HETATM    6  C   UNL     1     -43.446  55.263 -50.994  1.00  0.00     0.327 C 
HETATM    7  O   UNL     1     -43.954  54.161 -50.919  1.00  0.00    -0.247 OA
HETATM    8  N   UNL     1     -43.976  56.303 -51.721  1.00  0.00    -0.324 N 
HETATM    9  C   UNL     1     -43.110  57.468 -51.776  1.00  0.00     0.123 C 
HETATM   10  H   UNL     1     -44.794  56.147 -52.305  1.00  0.00     0.165 HD
HETATM   11  C   UNL     1     -41.966  56.927 -50.893  1.00  0.00     0.257 C 
HETATM   12  O   UNL     1     -40.929  57.529 -50.655  1.00  0.00    -0.270 OA
BRANCH   9  13
HETATM   13  C   UNL     1     -43.859  58.714 -51.192  1.00  0.00     0.027 C 
HETATM   14  C   UNL     1     -45.284  58.974 -51.706  1.00  0.00     0.035 C 
HETATM   15  C   UNL     1     -45.397  59.684 -53.050  1.00  0.00     0.235 C 
HETATM   16  N   UNL     1     -44.472  60.872 -53.166  1.00  0.00    -0.067 N 
HETATM   17  H   UNL     1     -44.914  61.634 -52.637  1.00  0.00     0.280 HD
HETATM   18  C   UNL     1     -43.081  60.696 -52.625  1.00  0.00     0.235 C 
HETATM   19  C   UNL     1     -43.092  60.049 -51.254  1.00  0.00     0.035 C 
BRANCH  16  20
HETATM   20  C   UNL     1     -44.373  61.354 -54.610  1.00  0.00     0.273 C 
BRANCH  20  21
HETATM   21  C   UNL     1     -43.860  60.322 -55.571  1.00  0.00    -0.030 A 
HETATM   22  C   UNL     1     -44.746  59.454 -56.225  1.00  0.00     0.048 A 
HETATM   23  C   UNL     1     -44.258  58.489 -57.103  1.00  0.00     0.102 A 
HETATM   24  C   UNL     1     -42.884  58.358 -57.316  1.00  0.00     0.102 A 
HETATM   25  O   UNL     1     -45.192  57.697 -57.720  1.00  0.00    -0.346 OA
HETATM   26  O   UNL     1     -42.337  57.412 -58.140  1.00  0.00    -0.346 OA
HETATM   27  C   UNL     1     -41.997  59.223 -56.682  1.00  0.00     0.040 A 
HETATM   28  C   UNL     1     -43.287  56.397 -58.486  1.00  0.00     0.202 C 
HETATM   29  C   UNL     1     -44.629  57.015 -58.849  1.00  0.00     0.202 C 
HETATM   30  C   UNL     1     -42.481  60.202 -55.812  1.00  0.00     0.012 A 
ENDBRANCH  20  21
ENDBRANCH  16  20
ENDBRANCH   9  13
BRANCH   9  31
HETATM   31  C   UNL     1     -42.499  57.655 -53.192  1.00  0.00     0.080 C 
BRANCH  31  32
HETATM   32  C   UNL     1     -42.093  56.387 -53.904  1.00  0.00    -0.052 A 
HETATM   33  C   UNL     1     -43.024  55.641 -54.637  1.00  0.00     0.049 A 
HETATM   34  C   UNL     1     -42.627  54.482 -55.297  1.00  0.00     0.116 A 
HETATM   35  F   UNL     1     -43.534  53.778 -55.986  1.00  0.00    -0.206 F 
HETATM   36  C   UNL     1     -41.309  54.046 -55.252  1.00  0.00     0.042 A 
HETATM   37  C   UNL     1     -40.370  54.784 -54.537  1.00  0.00     0.003 A 
HETATM   38  C   UNL     1     -40.759  55.948 -53.866  1.00  0.00     0.007 A 
ENDBRANCH  31  32
ENDBRANCH   9  31
ENDBRANCH   4   5
ENDBRANCH   3   4
TORSDOF 7
ENDMDL
MODEL 4
REMARK VINA RESULT:      -9.1      1.436      2.004
REMARK  7 active torsions:
REMARK  status: ('A' for Active; 'I' for Inactive)
REMARK    1  A    between atoms: C_3  and  C_4 
REMARK    2  A    between atoms: C_4  and  N_5 
REMARK    3  A    between atoms: C_9  and  C_10 
REMARK    4  A    between atoms: C_9  and  C_28 
REMARK    5  A    between atoms: N_13  and  C_15 
REMARK    6  A    between atoms: C_15  and  C_16 
REMARK    7  A    between atoms: C_28  and  C_29 
ROOT
HETATM    1  C   UNL     1     -38.664  59.344 -50.628  1.00  0.00     0.112 C 
HETATM    2  C   UNL     1     -39.953  58.656 -50.727  1.00  0.00    -0.109 C 
HETATM    3  C   UNL     1     -41.122  58.089 -50.835  1.00  0.00    -0.087 C 
ENDROOT
BRANCH   3   4
HETATM    4  C   UNL     1     -42.485  57.427 -50.961  1.00  0.00     0.230 C 
BRANCH   4   5
HETATM    5  N   UNL     1     -42.451  56.194 -51.701  1.00  0.00    -0.257 N 
HETATM    6  C   UNL     1     -42.823  54.992 -51.189  1.00  0.00     0.327 C 
HETATM    7  O   UNL     1     -43.330  54.764 -50.108  1.00  0.00    -0.247 OA
HETATM    8  N   UNL     1     -42.510  54.018 -52.109  1.00  0.00    -0.324 N 
HETATM    9  C   UNL     1     -41.779  54.525 -53.257  1.00  0.00     0.123 C 
HETATM   10  H   UNL     1     -42.622  53.038 -51.866  1.00  0.00     0.165 HD
HETATM   11  C   UNL     1     -41.754  56.015 -52.856  1.00  0.00     0.257 C 
HETATM   12  O   UNL     1     -41.192  56.895 -53.492  1.00  0.00    -0.270 OA
BRANCH   9  13
HETATM   13  C   UNL     1     -42.570  54.210 -54.572  1.00  0.00     0.027 C 
HETATM   14  C   UNL     1     -41.990  54.765 -55.883  1.00  0.00     0.035 C 
HETATM   15  C   UNL     1     -42.297  56.226 -56.190  1.00  0.00     0.235 C 
HETATM   16  N   UNL     1     -43.744  56.585 -55.953  1.00  0.00    -0.067 N 
HETATM   17  H   UNL     1     -44.267  56.225 -56.761  1.00  0.00     0.280 HD
HETATM   18  C   UNL     1     -44.383  56.021 -54.715  1.00  0.00     0.235 C 
HETATM   19  C   UNL     1     -44.074  54.546 -54.550  1.00  0.00     0.035 C 
BRANCH  16  20
HETATM   20  C   UNL     1     -43.944  58.098 -55.955  1.00  0.00     0.273 C 
BRANCH  20  21
HETATM   21  C   UNL     1     -43.300  58.803 -57.113  1.00  0.00    -0.030 A 
HETATM   22  C   UNL     1     -42.430  59.881 -56.897  1.00  0.00     0.048 A 
HETATM   23  C   UNL     1     -41.849  60.539 -57.979  1.00  0.00     0.102 A 
HETATM   24  C   UNL     1     -42.151  60.150 -59.286  1.00  0.00     0.102 A 
HETATM   25  O   UNL     1     -40.992  61.565 -57.681  1.00  0.00    -0.346 OA
HETATM   26  O   UNL     1     -41.642  60.772 -60.394  1.00  0.00    -0.346 OA
HETATM   27  C   UNL     1     -43.004  59.073 -59.511  1.00  0.00     0.040 A 
HETATM   28  C   UNL     1     -41.045  62.033 -60.065  1.00  0.00     0.202 C 
HETATM   29  C   UNL     1     -40.186  61.914 -58.815  1.00  0.00     0.202 C 
HETATM   30  C   UNL     1     -43.577  58.401 -58.431  1.00  0.00     0.012 A 
ENDBRANCH  20  21
ENDBRANCH  16  20
ENDBRANCH   9  13
BRANCH   9  31
HETATM   31  C   UNL     1     -40.297  54.058 -53.238  1.00  0.00     0.080 C 
BRANCH  31  32
HETATM   32  C   UNL     1     -40.079  52.575 -53.059  1.00  0.00    -0.052 A 
HETATM   33  C   UNL     1     -40.168  51.696 -54.145  1.00  0.00     0.049 A 
HETATM   34  C   UNL     1     -39.951  50.333 -53.961  1.00  0.00     0.116 A 
HETATM   35  F   UNL     1     -40.048  49.508 -55.011  1.00  0.00    -0.206 F 
HETATM   36  C   UNL     1     -39.636  49.819 -52.710  1.00  0.00     0.042 A 
HETATM   37  C   UNL     1     -39.532  50.683 -51.624  1.00  0.00     0.003 A 
HETATM   38  C   UNL     1     -39.753  52.053 -51.796  1.00  0.00     0.007 A 
ENDBRANCH  31  32
ENDBRANCH   9  31
ENDBRANCH   4   5
ENDBRANCH   3   4
TORSDOF 7
ENDMDL
MODEL 5
REMARK VINA RESULT:      -9.0      2.106      2.466
REMARK  7 active torsions:
REMARK  status: ('A' for Active; 'I' for Inactive)
REMARK    1  A    between atoms: C_3  and  C_4 
REMARK    2  A    between atoms: C_4  and  N_5 
REMARK    3  A    between atoms: C_9  and  C_10 
REMARK    4  A    between atoms: C_9  and  C_28 
REMARK    5  A    between atoms: N_13  and  C_15 
REMARK    6  A    between atoms: C_15  and  C_16 
REMARK    7  A    between atoms: C_28  and  C_29 
ROOT
HETATM    1  C   UNL     1     -44.294  60.676 -51.001  1.00  0.00     0.112 C 
HETATM    2  C   UNL     1     -43.184  59.724 -51.076  1.00  0.00    -0.109 C 
HETATM    3  C   UNL     1     -42.169  58.912 -51.174  1.00  0.00    -0.087 C 
ENDROOT
BRANCH   3   4
HETATM    4  C   UNL     1     -40.986  57.965 -51.287  1.00  0.00     0.230 C 
BRANCH   4   5
HETATM    5  N   UNL     1     -41.356  56.642 -51.714  1.00  0.00    -0.257 N 
HETATM    6  C   UNL     1     -41.489  55.584 -50.873  1.00  0.00     0.327 C 
HETATM    7  O   UNL     1     -41.432  55.581 -49.659  1.00  0.00    -0.247 OA
HETATM    8  N   UNL     1     -41.689  54.454 -51.632  1.00  0.00    -0.324 N 
HETATM    9  C   UNL     1     -41.569  54.693 -53.061  1.00  0.00     0.123 C 
HETATM   10  H   UNL     1     -41.711  53.542 -51.187  1.00  0.00     0.165 HD
HETATM   11  C   UNL     1     -41.298  56.210 -53.004  1.00  0.00     0.257 C 
HETATM   12  O   UNL     1     -41.069  56.912 -53.979  1.00  0.00    -0.270 OA
BRANCH   9  13
HETATM   13  C   UNL     1     -42.901  54.289 -53.780  1.00  0.00     0.027 C 
HETATM   14  C   UNL     1     -42.809  53.956 -55.278  1.00  0.00     0.035 C 
HETATM   15  C   UNL     1     -42.794  55.144 -56.232  1.00  0.00     0.235 C 
HETATM   16  N   UNL     1     -43.833  56.184 -55.893  1.00  0.00    -0.067 N 
HETATM   17  H   UNL     1     -44.730  55.819 -56.238  1.00  0.00     0.280 HD
HETATM   18  C   UNL     1     -44.010  56.508 -54.436  1.00  0.00     0.235 C 
HETATM   19  C   UNL     1     -44.088  55.253 -53.590  1.00  0.00     0.035 C 
BRANCH  16  20
HETATM   20  C   UNL     1     -43.581  57.484 -56.651  1.00  0.00     0.273 C 
BRANCH  20  21
HETATM   21  C   UNL     1     -44.678  57.865 -57.603  1.00  0.00    -0.030 A 
HETATM   22  C   UNL     1     -45.011  57.027 -58.677  1.00  0.00     0.048 A 
HETATM   23  C   UNL     1     -46.021  57.396 -59.564  1.00  0.00     0.102 A 
HETATM   24  C   UNL     1     -46.686  58.614 -59.408  1.00  0.00     0.102 A 
HETATM   25  O   UNL     1     -46.301  56.511 -60.571  1.00  0.00    -0.346 OA
HETATM   26  O   UNL     1     -47.664  59.052 -60.260  1.00  0.00    -0.346 OA
HETATM   27  C   UNL     1     -46.372  59.447 -58.337  1.00  0.00     0.040 A 
HETATM   28  C   UNL     1     -47.688  58.291 -61.474  1.00  0.00     0.202 C 
HETATM   29  C   UNL     1     -47.567  56.804 -61.180  1.00  0.00     0.202 C 
HETATM   30  C   UNL     1     -45.372  59.075 -57.437  1.00  0.00     0.012 A 
ENDBRANCH  20  21
ENDBRANCH  16  20
ENDBRANCH   9  13
BRANCH   9  31
HETATM   31  C   UNL     1     -40.275  54.054 -53.636  1.00  0.00     0.080 C 
BRANCH  31  32
HETATM   32  C   UNL     1     -40.070  52.591 -53.322  1.00  0.00    -0.052 A 
HETATM   33  C   UNL     1     -40.134  51.621 -54.329  1.00  0.00     0.049 A 
HETATM   34  C   UNL     1     -39.929  50.279 -54.020  1.00  0.00     0.116 A 
HETATM   35  F   UNL     1     -40.002  49.365 -54.996  1.00  0.00    -0.206 F 
HETATM   36  C   UNL     1     -39.651  49.876 -52.721  1.00  0.00     0.042 A 
HETATM   37  C   UNL     1     -39.572  50.832 -51.712  1.00  0.00     0.003 A 
HETATM   38  C   UNL     1     -39.781  52.182 -52.010  1.00  0.00     0.007 A 
ENDBRANCH  31  32
ENDBRANCH   9  31
ENDBRANCH   4   5
ENDBRANCH   3   4
TORSDOF 7
ENDMDL
MODEL 6
REMARK VINA RESULT:      -8.6      3.630      8.792
REMARK  7 active torsions:
REMARK  status: ('A' for Active; 'I' for Inactive)
REMARK    1  A    between atoms: C_3  and  C_4 
REMARK    2  A    between atoms: C_4  and  N_5 
REMARK    3  A    between atoms: C_9  and  C_10 
REMARK    4  A    between atoms: C_9  and  C_28 
REMARK    5  A    between atoms: N_13  and  C_15 
REMARK    6  A    between atoms: C_15  and  C_16 
REMARK    7  A    between atoms: C_28  and  C_29 
ROOT
HETATM    1  C   UNL     1     -40.888  54.641 -48.998  1.00  0.00     0.112 C 
HETATM    2  C   UNL     1     -41.136  55.905 -49.694  1.00  0.00    -0.109 C 
HETATM    3  C   UNL     1     -41.351  57.057 -50.266  1.00  0.00    -0.087 C 
ENDROOT
BRANCH   3   4
HETATM    4  C   UNL     1     -41.602  58.399 -50.933  1.00  0.00     0.230 C 
BRANCH   4   5
HETATM    5  N   UNL     1     -42.101  58.281 -52.278  1.00  0.00    -0.257 N 
HETATM    6  C   UNL     1     -41.420  58.693 -53.378  1.00  0.00     0.327 C 
HETATM    7  O   UNL     1     -40.281  59.115 -53.439  1.00  0.00    -0.247 OA
HETATM    8  N   UNL     1     -42.253  58.580 -54.466  1.00  0.00    -0.324 N 
HETATM    9  C   UNL     1     -43.609  58.194 -54.115  1.00  0.00     0.123 C 
HETATM   10  H   UNL     1     -41.956  58.936 -55.370  1.00  0.00     0.165 HD
HETATM   11  C   UNL     1     -43.406  58.058 -52.591  1.00  0.00     0.257 C 
HETATM   12  O   UNL     1     -44.293  57.787 -51.795  1.00  0.00    -0.270 OA
BRANCH   9  13
HETATM   13  C   UNL     1     -43.990  56.864 -54.849  1.00  0.00     0.027 C 
HETATM   14  C   UNL     1     -44.004  55.581 -54.003  1.00  0.00     0.035 C 
HETATM   15  C   UNL     1     -42.653  54.920 -53.760  1.00  0.00     0.235 C 
HETATM   16  N   UNL     1     -41.811  54.827 -55.009  1.00  0.00    -0.067 N 
HETATM   17  H   UNL     1     -42.186  54.039 -55.552  1.00  0.00     0.280 HD
HETATM   18  C   UNL     1     -41.805  56.032 -55.908  1.00  0.00     0.235 C 
HETATM   19  C   UNL     1     -43.207  56.560 -56.141  1.00  0.00     0.035 C 
BRANCH  16  20
HETATM   20  C   UNL     1     -40.366  54.465 -54.674  1.00  0.00     0.273 C 
BRANCH  20  21
HETATM   21  C   UNL     1     -40.205  53.136 -53.996  1.00  0.00    -0.030 A 
HETATM   22  C   UNL     1     -40.173  53.050 -52.596  1.00  0.00     0.048 A 
HETATM   23  C   UNL     1     -40.008  51.814 -51.975  1.00  0.00     0.102 A 
HETATM   24  C   UNL     1     -39.844  50.657 -52.740  1.00  0.00     0.102 A 
HETATM   25  O   UNL     1     -40.011  51.814 -50.605  1.00  0.00    -0.346 OA
HETATM   26  O   UNL     1     -39.646  49.417 -52.196  1.00  0.00    -0.346 OA
HETATM   27  C   UNL     1     -39.888  50.729 -54.129  1.00  0.00     0.040 A 
HETATM   28  C   UNL     1     -39.308  49.496 -50.805  1.00  0.00     0.202 C 
HETATM   29  C   UNL     1     -40.208  50.491 -50.087  1.00  0.00     0.202 C 
HETATM   30  C   UNL     1     -40.068  51.963 -54.757  1.00  0.00     0.012 A 
ENDBRANCH  20  21
ENDBRANCH  16  20
ENDBRANCH   9  13
BRANCH   9  31
HETATM   31  C   UNL     1     -44.602  59.373 -54.305  1.00  0.00     0.080 C 
BRANCH  31  32
HETATM   32  C   UNL     1     -44.893  59.762 -55.735  1.00  0.00    -0.052 A 
HETATM   33  C   UNL     1     -45.941  59.166 -56.446  1.00  0.00     0.049 A 
HETATM   34  C   UNL     1     -46.201  59.548 -57.759  1.00  0.00     0.116 A 
HETATM   35  F   UNL     1     -47.204  58.962 -58.425  1.00  0.00    -0.206 F 
HETATM   36  C   UNL     1     -45.439  60.525 -58.386  1.00  0.00     0.042 A 
HETATM   37  C   UNL     1     -44.401  61.134 -57.687  1.00  0.00     0.003 A 
HETATM   38  C   UNL     1     -44.128  60.755 -56.369  1.00  0.00     0.007 A 
ENDBRANCH  31  32
ENDBRANCH   9  31
ENDBRANCH   4   5
ENDBRANCH   3   4
TORSDOF 7
ENDMDL
MODEL 7
REMARK VINA RESULT:      -8.5      3.435      8.968
REMARK  7 active torsions:
REMARK  status: ('A' for Active; 'I' for Inactive)
REMARK    1  A    between atoms: C_3  and  C_4 
REMARK    2  A    between atoms: C_4  and  N_5 
REMARK    3  A    between atoms: C_9  and  C_10 
REMARK    4  A    between atoms: C_9  and  C_28 
REMARK    5  A    between atoms: N_13  and  C_15 
REMARK    6  A    between atoms: C_15  and  C_16 
REMARK    7  A    between atoms: C_28  and  C_29 
ROOT
HETATM    1  C   UNL     1     -44.494  62.700 -60.592  1.00  0.00     0.112 C 
HETATM    2  C   UNL     1     -44.233  62.514 -59.163  1.00  0.00    -0.109 C 
HETATM    3  C   UNL     1     -43.947  62.355 -57.901  1.00  0.00    -0.087 C 
ENDROOT
BRANCH   3   4
HETATM    4  C   UNL     1     -43.615  62.170 -56.430  1.00  0.00     0.230 C 
BRANCH   4   5
HETATM    5  N   UNL     1     -43.374  60.797 -56.070  1.00  0.00    -0.257 N 
HETATM    6  C   UNL     1     -42.278  60.094 -56.455  1.00  0.00     0.327 C 
HETATM    7  O   UNL     1     -41.297  60.501 -57.047  1.00  0.00    -0.247 OA
HETATM    8  N   UNL     1     -42.453  58.784 -56.076  1.00  0.00    -0.324 N 
HETATM    9  C   UNL     1     -43.768  58.517 -55.518  1.00  0.00     0.123 C 
HETATM   10  H   UNL     1     -41.781  58.079 -56.365  1.00  0.00     0.165 HD
HETATM   11  C   UNL     1     -44.331  59.951 -55.600  1.00  0.00     0.257 C 
HETATM   12  O   UNL     1     -45.469  60.270 -55.284  1.00  0.00    -0.270 OA
BRANCH   9  13
HETATM   13  C   UNL     1     -43.623  57.950 -54.065  1.00  0.00     0.027 C 
HETATM   14  C   UNL     1     -42.305  58.243 -53.331  1.00  0.00     0.035 C 
HETATM   15  C   UNL     1     -41.128  57.338 -53.674  1.00  0.00     0.235 C 
HETATM   16  N   UNL     1     -41.502  55.876 -53.712  1.00  0.00    -0.067 N 
HETATM   17  H   UNL     1     -41.556  55.567 -52.733  1.00  0.00     0.280 HD
HETATM   18  C   UNL     1     -42.812  55.534 -54.365  1.00  0.00     0.235 C 
HETATM   19  C   UNL     1     -43.926  56.449 -53.895  1.00  0.00     0.035 C 
BRANCH  16  20
HETATM   20  C   UNL     1     -40.403  55.042 -54.364  1.00  0.00     0.273 C 
BRANCH  20  21
HETATM   21  C   UNL     1     -40.254  53.663 -53.791  1.00  0.00    -0.030 A 
HETATM   22  C   UNL     1     -40.235  53.467 -52.403  1.00  0.00     0.048 A 
HETATM   23  C   UNL     1     -40.081  52.184 -51.880  1.00  0.00     0.102 A 
HETATM   24  C   UNL     1     -39.916  51.090 -52.732  1.00  0.00     0.102 A 
HETATM   25  O   UNL     1     -40.097  52.076 -50.514  1.00  0.00    -0.346 OA
HETATM   26  O   UNL     1     -39.729  49.810 -52.286  1.00  0.00    -0.346 OA
HETATM   27  C   UNL     1     -39.948  51.273 -54.112  1.00  0.00     0.040 A 
HETATM   28  C   UNL     1     -39.403  49.778 -50.890  1.00  0.00     0.202 C 
HETATM   29  C   UNL     1     -40.304  50.717 -50.104  1.00  0.00     0.202 C 
HETATM   30  C   UNL     1     -40.116  52.553 -54.641  1.00  0.00     0.012 A 
ENDBRANCH  20  21
ENDBRANCH  16  20
ENDBRANCH   9  13
BRANCH   9  31
HETATM   31  C   UNL     1     -44.635  57.667 -56.486  1.00  0.00     0.080 C 
BRANCH  31  32
HETATM   32  C   UNL     1     -44.058  57.450 -57.865  1.00  0.00    -0.052 A 
HETATM   33  C   UNL     1     -44.234  58.400 -58.878  1.00  0.00     0.049 A 
HETATM   34  C   UNL     1     -43.683  58.186 -60.139  1.00  0.00     0.116 A 
HETATM   35  F   UNL     1     -43.868  59.103 -61.097  1.00  0.00    -0.206 F 
HETATM   36  C   UNL     1     -42.945  57.043 -60.416  1.00  0.00     0.042 A 
HETATM   37  C   UNL     1     -42.752  56.096 -59.414  1.00  0.00     0.003 A 
HETATM   38  C   UNL     1     -43.305  56.298 -58.146  1.00  0.00     0.007 A 
ENDBRANCH  31  32
ENDBRANCH   9  31
ENDBRANCH   4   5
ENDBRANCH   3   4
TORSDOF 7
ENDMDL
MODEL 8
REMARK VINA RESULT:      -8.3      3.405      9.329
REMARK  7 active torsions:
REMARK  status: ('A' for Active; 'I' for Inactive)
REMARK    1  A    between atoms: C_3  and  C_4 
REMARK    2  A    between atoms: C_4  and  N_5 
REMARK    3  A    between atoms: C_9  and  C_10 
REMARK    4  A    between atoms: C_9  and  C_28 
REMARK    5  A    between atoms: N_13  and  C_15 
REMARK    6  A    between atoms: C_15  and  C_16 
REMARK    7  A    between atoms: C_28  and  C_29 
ROOT
HETATM    1  C   UNL     1     -43.205  55.646 -58.320  1.00  0.00     0.112 C 
HETATM    2  C   UNL     1     -42.979  56.926 -57.645  1.00  0.00    -0.109 C 
HETATM    3  C   UNL     1     -42.803  58.045 -57.001  1.00  0.00    -0.087 C 
ENDROOT
BRANCH   3   4
HETATM    4  C   UNL     1     -42.599  59.351 -56.249  1.00  0.00     0.230 C 
BRANCH   4   5
HETATM    5  N   UNL     1     -43.184  59.347 -54.935  1.00  0.00    -0.257 N 
HETATM    6  C   UNL     1     -44.519  59.416 -54.699  1.00  0.00     0.327 C 
HETATM    7  O   UNL     1     -45.425  59.386 -55.510  1.00  0.00    -0.247 OA
HETATM    8  N   UNL     1     -44.710  59.554 -53.344  1.00  0.00    -0.324 N 
HETATM    9  C   UNL     1     -43.471  59.714 -52.602  1.00  0.00     0.123 C 
HETATM   10  H   UNL     1     -45.642  59.724 -52.978  1.00  0.00     0.165 HD
HETATM   11  C   UNL     1     -42.493  59.601 -53.790  1.00  0.00     0.257 C 
HETATM   12  O   UNL     1     -41.279  59.720 -53.704  1.00  0.00    -0.270 OA
BRANCH   9  13
HETATM   13  C   UNL     1     -43.341  58.577 -51.533  1.00  0.00     0.027 C 
HETATM   14  C   UNL     1     -41.934  58.293 -50.985  1.00  0.00     0.035 C 
HETATM   15  C   UNL     1     -41.037  57.417 -51.851  1.00  0.00     0.235 C 
HETATM   16  N   UNL     1     -41.748  56.199 -52.388  1.00  0.00    -0.067 N 
HETATM   17  H   UNL     1     -41.790  55.524 -51.613  1.00  0.00     0.280 HD
HETATM   18  C   UNL     1     -43.152  56.403 -52.883  1.00  0.00     0.235 C 
HETATM   19  C   UNL     1     -43.975  57.223 -51.909  1.00  0.00     0.035 C 
BRANCH  16  20
HETATM   20  C   UNL     1     -40.936  55.529 -53.493  1.00  0.00     0.273 C 
BRANCH  20  21
HETATM   21  C   UNL     1     -40.617  54.085 -53.234  1.00  0.00    -0.030 A 
HETATM   22  C   UNL     1     -40.544  53.597 -51.921  1.00  0.00     0.048 A 
HETATM   23  C   UNL     1     -40.231  52.259 -51.690  1.00  0.00     0.102 A 
HETATM   24  C   UNL     1     -39.959  51.402 -52.759  1.00  0.00     0.102 A 
HETATM   25  O   UNL     1     -40.204  51.856 -50.381  1.00  0.00    -0.346 OA
HETATM   26  O   UNL     1     -39.616  50.087 -52.602  1.00  0.00    -0.346 OA
HETATM   27  C   UNL     1     -40.043  51.875 -54.067  1.00  0.00     0.040 A 
HETATM   28  C   UNL     1     -39.257  49.792 -51.246  1.00  0.00     0.202 C 
HETATM   29  C   UNL     1     -40.243  50.426 -50.277  1.00  0.00     0.202 C 
HETATM   30  C   UNL     1     -40.370  53.210 -54.305  1.00  0.00     0.012 A 
ENDBRANCH  20  21
ENDBRANCH  16  20
ENDBRANCH   9  13
BRANCH   9  31
HETATM   31  C   UNL     1     -43.314  61.162 -52.063  1.00  0.00     0.080 C 
BRANCH  31  32
HETATM   32  C   UNL     1     -44.279  61.564 -50.973  1.00  0.00    -0.052 A 
HETATM   33  C   UNL     1     -43.949  61.403 -49.622  1.00  0.00     0.049 A 
HETATM   34  C   UNL     1     -44.847  61.792 -48.632  1.00  0.00     0.116 A 
HETATM   35  F   UNL     1     -44.516  61.624 -47.345  1.00  0.00    -0.206 F 
HETATM   36  C   UNL     1     -46.076  62.351 -48.957  1.00  0.00     0.042 A 
HETATM   37  C   UNL     1     -46.412  62.527 -50.297  1.00  0.00     0.003 A 
HETATM   38  C   UNL     1     -45.520  62.136 -51.299  1.00  0.00     0.007 A 
ENDBRANCH  31  32
ENDBRANCH   9  31
ENDBRANCH   4   5
ENDBRANCH   3   4
TORSDOF 7
ENDMDL
MODEL 9
REMARK VINA RESULT:      -8.3      3.188      7.336
REMARK  7 active torsions:
REMARK  status: ('A' for Active; 'I' for Inactive)
REMARK    1  A    between atoms: C_3  and  C_4 
REMARK    2  A    between atoms: C_4  and  N_5 
REMARK    3  A    between atoms: C_9  and  C_10 
REMARK    4  A    between atoms: C_9  and  C_28 
REMARK    5  A    between atoms: N_13  and  C_15 
REMARK    6  A    between atoms: C_15  and  C_16 
REMARK    7  A    between atoms: C_28  and  C_29 
ROOT
HETATM    1  C   UNL     1     -45.638  61.873 -55.326  1.00  0.00     0.112 C 
HETATM    2  C   UNL     1     -45.391  60.483 -55.716  1.00  0.00    -0.109 C 
HETATM    3  C   UNL     1     -45.160  59.234 -56.010  1.00  0.00    -0.087 C 
ENDROOT
BRANCH   3   4
HETATM    4  C   UNL     1     -44.891  57.779 -56.354  1.00  0.00     0.230 C 
BRANCH   4   5
HETATM    5  N   UNL     1     -43.765  57.227 -55.646  1.00  0.00    -0.257 N 
HETATM    6  C   UNL     1     -42.657  56.731 -56.254  1.00  0.00     0.327 C 
HETATM    7  O   UNL     1     -42.376  56.759 -57.437  1.00  0.00    -0.247 OA
HETATM    8  N   UNL     1     -41.866  56.145 -55.293  1.00  0.00    -0.324 N 
HETATM    9  C   UNL     1     -42.487  56.110 -53.980  1.00  0.00     0.123 C 
HETATM   10  H   UNL     1     -41.036  55.627 -55.567  1.00  0.00     0.165 HD
HETATM   11  C   UNL     1     -43.799  56.836 -54.343  1.00  0.00     0.257 C 
HETATM   12  O   UNL     1     -44.724  57.029 -53.566  1.00  0.00    -0.270 OA
BRANCH   9  13
HETATM   13  C   UNL     1     -41.583  56.862 -52.945  1.00  0.00     0.027 C 
HETATM   14  C   UNL     1     -42.153  57.048 -51.529  1.00  0.00     0.035 C 
HETATM   15  C   UNL     1     -43.126  58.206 -51.342  1.00  0.00     0.235 C 
HETATM   16  N   UNL     1     -42.650  59.483 -51.989  1.00  0.00    -0.067 N 
HETATM   17  H   UNL     1     -41.938  59.878 -51.361  1.00  0.00     0.280 HD
HETATM   18  C   UNL     1     -42.029  59.356 -53.352  1.00  0.00     0.235 C 
HETATM   19  C   UNL     1     -41.024  58.222 -53.403  1.00  0.00     0.035 C 
BRANCH  16  20
HETATM   20  C   UNL     1     -43.773  60.515 -52.063  1.00  0.00     0.273 C 
BRANCH  20  21
HETATM   21  C   UNL     1     -44.143  61.117 -50.739  1.00  0.00    -0.030 A 
HETATM   22  C   UNL     1     -45.031  60.456 -49.879  1.00  0.00     0.048 A 
HETATM   23  C   UNL     1     -45.382  61.030 -48.659  1.00  0.00     0.102 A 
HETATM   24  C   UNL     1     -44.875  62.280 -48.296  1.00  0.00     0.102 A 
HETATM   25  O   UNL     1     -46.235  60.308 -47.867  1.00  0.00    -0.346 OA
HETATM   26  O   UNL     1     -45.202  62.915 -47.129  1.00  0.00    -0.346 OA
HETATM   27  C   UNL     1     -43.982  62.939 -49.137  1.00  0.00     0.040 A 
HETATM   28  C   UNL     1     -46.342  62.315 -46.500  1.00  0.00     0.202 C 
HETATM   29  C   UNL     1     -46.231  60.798 -46.519  1.00  0.00     0.202 C 
HETATM   30  C   UNL     1     -43.617  62.361 -50.354  1.00  0.00     0.012 A 
ENDBRANCH  20  21
ENDBRANCH  16  20
ENDBRANCH   9  13
BRANCH   9  31
HETATM   31  C   UNL     1     -42.900  54.665 -53.585  1.00  0.00     0.080 C 
BRANCH  31  32
HETATM   32  C   UNL     1     -41.763  53.710 -53.311  1.00  0.00    -0.052 A 
HETATM   33  C   UNL     1     -41.268  53.531 -52.014  1.00  0.00     0.049 A 
HETATM   34  C   UNL     1     -40.228  52.636 -51.780  1.00  0.00     0.116 A 
HETATM   35  F   UNL     1     -39.763  52.484 -50.533  1.00  0.00    -0.206 F 
HETATM   36  C   UNL     1     -39.667  51.901 -52.816  1.00  0.00     0.042 A 
HETATM   37  C   UNL     1     -40.158  52.060 -54.109  1.00  0.00     0.003 A 
HETATM   38  C   UNL     1     -41.199  52.960 -54.356  1.00  0.00     0.007 A 
ENDBRANCH  31  32
ENDBRANCH   9  31
ENDBRANCH   4   5
ENDBRANCH   3   4
TORSDOF 7
ENDMDL
MODEL 10
REMARK VINA RESULT:      -8.3      2.335      4.572
REMARK  7 active torsions:
REMARK  status: ('A' for Active; 'I' for Inactive)
REMARK    1  A    between atoms: C_3  and  C_4 
REMARK    2  A    between atoms: C_4  and  N_5 
REMARK    3  A    between atoms: C_9  and  C_10 
REMARK    4  A    between atoms: C_9  and  C_28 
REMARK    5  A    between atoms: N_13  and  C_15 
REMARK    6  A    between atoms: C_15  and  C_16 
REMARK    7  A    between atoms: C_28  and  C_29 
ROOT
HETATM    1  C   UNL     1     -39.797  50.962 -53.936  1.00  0.00     0.112 C 
HETATM    2  C   UNL     1     -40.329  52.220 -54.464  1.00  0.00    -0.109 C 
HETATM    3  C   UNL     1     -40.753  53.363 -54.925  1.00  0.00    -0.087 C 
ENDROOT
BRANCH   3   4
HETATM    4  C   UNL     1     -41.249  54.696 -55.461  1.00  0.00     0.230 C 
BRANCH   4   5
HETATM    5  N   UNL     1     -41.834  55.534 -54.448  1.00  0.00    -0.257 N 
HETATM    6  C   UNL     1     -41.121  56.367 -53.648  1.00  0.00     0.327 C 
HETATM    7  O   UNL     1     -39.935  56.629 -53.708  1.00  0.00    -0.247 OA
HETATM    8  N   UNL     1     -41.971  56.883 -52.699  1.00  0.00    -0.324 N 
HETATM    9  C   UNL     1     -43.303  56.305 -52.744  1.00  0.00     0.123 C 
HETATM   10  H   UNL     1     -41.601  57.453 -51.944  1.00  0.00     0.165 HD
HETATM   11  C   UNL     1     -43.088  55.364 -53.947  1.00  0.00     0.257 C 
HETATM   12  O   UNL     1     -43.928  54.587 -54.380  1.00  0.00    -0.270 OA
BRANCH   9  13
HETATM   13  C   UNL     1     -44.365  57.434 -52.973  1.00  0.00     0.027 C 
HETATM   14  C   UNL     1     -45.283  57.288 -54.197  1.00  0.00     0.035 C 
HETATM   15  C   UNL     1     -44.700  57.730 -55.534  1.00  0.00     0.235 C 
HETATM   16  N   UNL     1     -43.985  59.056 -55.453  1.00  0.00    -0.067 N 
HETATM   17  H   UNL     1     -44.716  59.778 -55.445  1.00  0.00     0.280 HD
HETATM   18  C   UNL     1     -43.117  59.280 -54.246  1.00  0.00     0.235 C 
HETATM   19  C   UNL     1     -43.825  58.877 -52.967  1.00  0.00     0.035 C 
BRANCH  16  20
HETATM   20  C   UNL     1     -43.149  59.309 -56.705  1.00  0.00     0.273 C 
BRANCH  20  21
HETATM   21  C   UNL     1     -43.394  58.331 -57.817  1.00  0.00    -0.030 A 
HETATM   22  C   UNL     1     -44.702  58.001 -58.199  1.00  0.00     0.048 A 
HETATM   23  C   UNL     1     -44.921  57.081 -59.222  1.00  0.00     0.102 A 
HETATM   24  C   UNL     1     -43.842  56.459 -59.854  1.00  0.00     0.102 A 
HETATM   25  O   UNL     1     -46.228  56.832 -59.550  1.00  0.00    -0.346 OA
HETATM   26  O   UNL     1     -43.985  55.525 -60.844  1.00  0.00    -0.346 OA
HETATM   27  C   UNL     1     -42.539  56.791 -59.492  1.00  0.00     0.040 A 
HETATM   28  C   UNL     1     -45.330  55.035 -60.919  1.00  0.00     0.202 C 
HETATM   29  C   UNL     1     -46.327  56.180 -60.824  1.00  0.00     0.202 C 
HETATM   30  C   UNL     1     -42.314  57.723 -58.478  1.00  0.00     0.012 A 
ENDBRANCH  20  21
ENDBRANCH  16  20
ENDBRANCH   9  13
BRANCH   9  31
HETATM   31  C   UNL     1     -43.562  55.379 -51.524  1.00  0.00     0.080 C 
BRANCH  31  32
HETATM   32  C   UNL     1     -42.331  54.828 -50.846  1.00  0.00    -0.052 A 
HETATM   33  C   UNL     1     -41.743  53.633 -51.276  1.00  0.00     0.049 A 
HETATM   34  C   UNL     1     -40.600  53.150 -50.644  1.00  0.00     0.116 A 
HETATM   35  F   UNL     1     -40.056  52.001 -51.066  1.00  0.00    -0.206 F 
HETATM   36  C   UNL     1     -40.018  53.838 -49.588  1.00  0.00     0.042 A 
HETATM   37  C   UNL     1     -40.585  55.034 -49.158  1.00  0.00     0.003 A 
HETATM   38  C   UNL     1     -41.736  55.526 -49.782  1.00  0.00     0.007 A 
ENDBRANCH  31  32
ENDBRANCH   9  31
ENDBRANCH   4   5
ENDBRANCH   3   4
TORSDOF 7
ENDMDL
