MODEL 1
REMARK VINA RESULT:      -7.5      0.000      0.000
REMARK  6 active torsions:
REMARK  status: ('A' for Active; 'I' for Inactive)
REMARK    1  A    between atoms: O_2  and  C_3 
REMARK    2  A    between atoms: C_3  and  C_4 
REMARK    3  A    between atoms: C_4  and  N_5 
REMARK       I    between atoms: N_5  and  C_6 
REMARK    4  A    between atoms: C_6  and  C_7 
REMARK    5  A    between atoms: C_12  and  C_13 
REMARK    6  A    between atoms: C_21  and  C_22 
ROOT
HETATM    1  C   UNL     1     -44.480  58.954 -52.721  1.00  0.00     0.170 A 
HETATM    2  N   UNL     1     -43.553  58.990 -51.732  1.00  0.00    -0.163 NA
HETATM    3  N   UNL     1     -42.876  57.841 -51.879  1.00  0.00    -0.238 N 
HETATM    4  C   UNL     1     -43.403  57.011 -52.833  1.00  0.00     0.145 A 
HETATM    5  N   UNL     1     -42.903  55.762 -53.029  1.00  0.00    -0.365 N 
HETATM    6  C   UNL     1     -42.077  55.155 -51.991  1.00  0.00     0.118 C 
HETATM    7  C   UNL     1     -41.079  56.199 -51.476  1.00  0.00     0.066 C 
HETATM    8  C   UNL     1     -41.819  57.448 -50.959  1.00  0.00     0.221 C 
HETATM    9  C   UNL     1     -44.417  57.723 -53.431  1.00  0.00     0.115 A 
HETATM   10 CL   UNL     1     -45.400  57.202 -54.713  1.00  0.00    -0.077 Cl
HETATM   11  H   UNL     1     -43.448  55.102 -53.588  1.00  0.00     0.162 HD
ENDROOT
BRANCH   1  12
HETATM   12  C   UNL     1     -45.398  60.084 -52.939  1.00  0.00     0.273 C 
HETATM   13  N   UNL     1     -46.045  60.490 -51.791  1.00  0.00    -0.353 N 
HETATM   14  H   UNL     1     -45.708  60.077 -50.924  1.00  0.00     0.162 HD
HETATM   15  O   UNL     1     -45.570  60.622 -54.028  1.00  0.00    -0.266 OA
BRANCH  13  16
HETATM   16  C   UNL     1     -46.816  61.714 -51.720  1.00  0.00     0.149 C 
BRANCH  16  17
HETATM   17  C   UNL     1     -46.629  62.416 -50.377  1.00  0.00     0.186 C 
BRANCH  17  18
HETATM   18  O   UNL     1     -46.311  61.444 -49.377  1.00  0.00    -0.394 OA
HETATM   19  C   UNL     1     -45.214  61.861 -48.575  1.00  0.00     0.201 C 
ENDBRANCH  17  18
ENDBRANCH  16  17
ENDBRANCH  13  16
ENDBRANCH   1  12
BRANCH   8  20
HETATM   20  C   UNL     1     -40.827  58.567 -50.726  1.00  0.00     0.409 C 
HETATM   21  F   UNL     1     -40.672  59.355 -51.813  1.00  0.00    -0.169 F 
HETATM   22  F   UNL     1     -41.142  59.352 -49.674  1.00  0.00    -0.169 F 
HETATM   23  F   UNL     1     -39.603  58.040 -50.449  1.00  0.00    -0.169 F 
ENDBRANCH   8  20
BRANCH   6  24
HETATM   24  C   UNL     1     -41.358  53.933 -52.532  1.00  0.00    -0.035 A 
HETATM   25  C   UNL     1     -40.452  53.203 -51.744  1.00  0.00     0.011 A 
HETATM   26  C   UNL     1     -39.816  52.068 -52.254  1.00  0.00     0.024 A 
HETATM   27  C   UNL     1     -40.087  51.647 -53.553  1.00  0.00     0.034 A 
HETATM   28 CL   UNL     1     -39.307  50.248 -54.181  1.00  0.00    -0.084 Cl
HETATM   29  C   UNL     1     -40.990  52.351 -54.346  1.00  0.00     0.024 A 
HETATM   30  C   UNL     1     -41.623  53.489 -53.838  1.00  0.00     0.011 A 
ENDBRANCH   6  24
TORSDOF 6
ENDMDL
MODEL 2
REMARK VINA RESULT:      -7.4      3.616      5.216
REMARK  6 active torsions:
REMARK  status: ('A' for Active; 'I' for Inactive)
REMARK    1  A    between atoms: O_2  and  C_3 
REMARK    2  A    between atoms: C_3  and  C_4 
REMARK    3  A    between atoms: C_4  and  N_5 
REMARK       I    between atoms: N_5  and  C_6 
REMARK    4  A    between atoms: C_6  and  C_7 
REMARK    5  A    between atoms: C_12  and  C_13 
REMARK    6  A    between atoms: C_21  and  C_22 
ROOT
HETATM    1  C   UNL     1     -42.806  57.826 -56.095  1.00  0.00     0.170 A 
HETATM    2  N   UNL     1     -42.529  58.363 -54.881  1.00  0.00    -0.163 NA
HETATM    3  N   UNL     1     -42.065  57.328 -54.164  1.00  0.00    -0.238 N 
HETATM    4  C   UNL     1     -42.148  56.126 -54.818  1.00  0.00     0.145 A 
HETATM    5  N   UNL     1     -41.824  54.965 -54.192  1.00  0.00    -0.365 N 
HETATM    6  C   UNL     1     -41.758  54.935 -52.735  1.00  0.00     0.118 C 
HETATM    7  C   UNL     1     -41.018  56.186 -52.245  1.00  0.00     0.066 C 
HETATM    8  C   UNL     1     -41.711  57.463 -52.760  1.00  0.00     0.221 C 
HETATM    9  C   UNL     1     -42.582  56.421 -56.090  1.00  0.00     0.115 A 
HETATM   10 CL   UNL     1     -42.832  55.316 -57.355  1.00  0.00    -0.077 Cl
HETATM   11  H   UNL     1     -42.098  54.082 -54.630  1.00  0.00     0.162 HD
ENDROOT
BRANCH   1  12
HETATM   12  C   UNL     1     -43.289  58.666 -57.203  1.00  0.00     0.273 C 
HETATM   13  N   UNL     1     -42.589  58.476 -58.375  1.00  0.00    -0.353 N 
HETATM   14  H   UNL     1     -41.943  57.689 -58.382  1.00  0.00     0.162 HD
HETATM   15  O   UNL     1     -44.224  59.454 -57.104  1.00  0.00    -0.266 OA
BRANCH  13  16
HETATM   16  C   UNL     1     -43.026  59.022 -59.644  1.00  0.00     0.149 C 
BRANCH  16  17
HETATM   17  C   UNL     1     -44.011  58.090 -60.346  1.00  0.00     0.186 C 
BRANCH  17  18
HETATM   18  O   UNL     1     -43.416  56.796 -60.486  1.00  0.00    -0.394 OA
HETATM   19  C   UNL     1     -44.401  55.784 -60.649  1.00  0.00     0.201 C 
ENDBRANCH  17  18
ENDBRANCH  16  17
ENDBRANCH  13  16
ENDBRANCH   1  12
BRANCH   8  20
HETATM   20  C   UNL     1     -40.818  58.659 -52.513  1.00  0.00     0.409 C 
HETATM   21  F   UNL     1     -39.867  58.800 -53.463  1.00  0.00    -0.169 F 
HETATM   22  F   UNL     1     -41.497  59.822 -52.416  1.00  0.00    -0.169 F 
HETATM   23  F   UNL     1     -40.166  58.504 -51.329  1.00  0.00    -0.169 F 
ENDBRANCH   8  20
BRANCH   6  24
HETATM   24  C   UNL     1     -41.067  53.670 -52.261  1.00  0.00    -0.035 A 
HETATM   25  C   UNL     1     -41.031  53.316 -50.901  1.00  0.00     0.011 A 
HETATM   26  C   UNL     1     -40.408  52.137 -50.486  1.00  0.00     0.024 A 
HETATM   27  C   UNL     1     -39.822  51.295 -51.427  1.00  0.00     0.034 A 
HETATM   28 CL   UNL     1     -39.058  49.840 -50.919  1.00  0.00    -0.084 Cl
HETATM   29  C   UNL     1     -39.856  51.623 -52.781  1.00  0.00     0.024 A 
HETATM   30  C   UNL     1     -40.476  52.805 -53.196  1.00  0.00     0.011 A 
ENDBRANCH   6  24
TORSDOF 6
ENDMDL
MODEL 3
REMARK VINA RESULT:      -7.3      3.010      3.752
REMARK  6 active torsions:
REMARK  status: ('A' for Active; 'I' for Inactive)
REMARK    1  A    between atoms: O_2  and  C_3 
REMARK    2  A    between atoms: C_3  and  C_4 
REMARK    3  A    between atoms: C_4  and  N_5 
REMARK       I    between atoms: N_5  and  C_6 
REMARK    4  A    between atoms: C_6  and  C_7 
REMARK    5  A    between atoms: C_12  and  C_13 
REMARK    6  A    between atoms: C_21  and  C_22 
ROOT
HETATM    1  C   UNL     1     -42.367  58.876 -53.204  1.00  0.00     0.170 A 
HETATM    2  N   UNL     1     -42.424  58.415 -54.478  1.00  0.00    -0.163 NA
HETATM    3  N   UNL     1     -42.017  57.139 -54.381  1.00  0.00    -0.238 N 
HETATM    4  C   UNL     1     -41.583  56.796 -53.127  1.00  0.00     0.145 A 
HETATM    5  N   UNL     1     -41.035  55.576 -52.886  1.00  0.00    -0.365 N 
HETATM    6  C   UNL     1     -40.554  54.776 -54.008  1.00  0.00     0.118 C 
HETATM    7  C   UNL     1     -41.590  54.831 -55.137  1.00  0.00     0.066 C 
HETATM    8  C   UNL     1     -41.865  56.289 -55.551  1.00  0.00     0.221 C 
HETATM    9  C   UNL     1     -41.840  57.886 -52.329  1.00  0.00     0.115 A 
HETATM   10 CL   UNL     1     -41.540  58.015 -50.663  1.00  0.00    -0.077 Cl
HETATM   11  H   UNL     1     -40.532  55.433 -52.007  1.00  0.00     0.162 HD
ENDROOT
BRANCH   1  12
HETATM   12  C   UNL     1     -42.801  60.244 -52.875  1.00  0.00     0.273 C 
HETATM   13  N   UNL     1     -43.941  60.282 -52.101  1.00  0.00    -0.353 N 
HETATM   14  H   UNL     1     -44.253  59.387 -51.727  1.00  0.00     0.162 HD
HETATM   15  O   UNL     1     -42.209  61.254 -53.241  1.00  0.00    -0.266 OA
BRANCH  13  16
HETATM   16  C   UNL     1     -44.419  61.497 -51.473  1.00  0.00     0.149 C 
BRANCH  16  17
HETATM   17  C   UNL     1     -45.852  61.340 -50.967  1.00  0.00     0.186 C 
BRANCH  17  18
HETATM   18  O   UNL     1     -45.878  60.365 -49.920  1.00  0.00    -0.394 OA
HETATM   19  C   UNL     1     -45.549  60.942 -48.663  1.00  0.00     0.201 C 
ENDBRANCH  17  18
ENDBRANCH  16  17
ENDBRANCH  13  16
ENDBRANCH   1  12
BRANCH   8  20
HETATM   20  C   UNL     1     -43.081  56.341 -56.451  1.00  0.00     0.409 C 
HETATM   21  F   UNL     1     -43.056  57.397 -57.294  1.00  0.00    -0.169 F 
HETATM   22  F   UNL     1     -43.254  55.219 -57.182  1.00  0.00    -0.169 F 
HETATM   23  F   UNL     1     -44.203  56.473 -55.693  1.00  0.00    -0.169 F 
ENDBRANCH   8  20
BRANCH   6  24
HETATM   24  C   UNL     1     -40.298  53.346 -53.569  1.00  0.00    -0.035 A 
HETATM   25  C   UNL     1     -40.251  52.289 -54.495  1.00  0.00     0.011 A 
HETATM   26  C   UNL     1     -39.994  50.982 -54.074  1.00  0.00     0.024 A 
HETATM   27  C   UNL     1     -39.771  50.721 -52.725  1.00  0.00     0.034 A 
HETATM   28 CL   UNL     1     -39.450  49.112 -52.205  1.00  0.00    -0.084 Cl
HETATM   29  C   UNL     1     -39.802  51.756 -51.794  1.00  0.00     0.024 A 
HETATM   30  C   UNL     1     -40.064  53.063 -52.214  1.00  0.00     0.011 A 
ENDBRANCH   6  24
TORSDOF 6
ENDMDL
MODEL 4
REMARK VINA RESULT:      -7.0      3.394      4.033
REMARK  6 active torsions:
REMARK  status: ('A' for Active; 'I' for Inactive)
REMARK    1  A    between atoms: O_2  and  C_3 
REMARK    2  A    between atoms: C_3  and  C_4 
REMARK    3  A    between atoms: C_4  and  N_5 
REMARK       I    between atoms: N_5  and  C_6 
REMARK    4  A    between atoms: C_6  and  C_7 
REMARK    5  A    between atoms: C_12  and  C_13 
REMARK    6  A    between atoms: C_21  and  C_22 
ROOT
HETATM    1  C   UNL     1     -42.266  58.938 -53.205  1.00  0.00     0.170 A 
HETATM    2  N   UNL     1     -42.384  58.451 -54.465  1.00  0.00    -0.163 NA
HETATM    3  N   UNL     1     -41.978  57.176 -54.361  1.00  0.00    -0.238 N 
HETATM    4  C   UNL     1     -41.486  56.855 -53.123  1.00  0.00     0.145 A 
HETATM    5  N   UNL     1     -40.931  55.638 -52.882  1.00  0.00    -0.365 N 
HETATM    6  C   UNL     1     -40.506  54.814 -54.009  1.00  0.00     0.118 C 
HETATM    7  C   UNL     1     -41.594  54.850 -55.090  1.00  0.00     0.066 C 
HETATM    8  C   UNL     1     -41.884  56.302 -55.520  1.00  0.00     0.221 C 
HETATM    9  C   UNL     1     -41.701  57.963 -52.335  1.00  0.00     0.115 A 
HETATM   10 CL   UNL     1     -41.322  58.124 -50.689  1.00  0.00    -0.077 Cl
HETATM   11  H   UNL     1     -40.388  55.511 -52.026  1.00  0.00     0.162 HD
ENDROOT
BRANCH   1  12
HETATM   12  C   UNL     1     -42.679  60.313 -52.883  1.00  0.00     0.273 C 
HETATM   13  N   UNL     1     -42.513  61.191 -53.933  1.00  0.00    -0.353 N 
HETATM   14  H   UNL     1     -42.279  60.769 -54.830  1.00  0.00     0.162 HD
HETATM   15  O   UNL     1     -43.134  60.652 -51.796  1.00  0.00    -0.266 OA
BRANCH  13  16
HETATM   16  C   UNL     1     -43.056  62.534 -53.922  1.00  0.00     0.149 C 
BRANCH  16  17
HETATM   17  C   UNL     1     -44.489  62.564 -54.449  1.00  0.00     0.186 C 
BRANCH  17  18
HETATM   18  O   UNL     1     -45.324  63.240 -53.504  1.00  0.00    -0.394 OA
HETATM   19  C   UNL     1     -44.558  63.851 -52.474  1.00  0.00     0.201 C 
ENDBRANCH  17  18
ENDBRANCH  16  17
ENDBRANCH  13  16
ENDBRANCH   1  12
BRANCH   8  20
HETATM   20  C   UNL     1     -43.141  56.341 -56.362  1.00  0.00     0.409 C 
HETATM   21  F   UNL     1     -43.341  55.193 -57.047  1.00  0.00    -0.169 F 
HETATM   22  F   UNL     1     -44.255  56.608 -55.648  1.00  0.00    -0.169 F 
HETATM   23  F   UNL     1     -43.039  57.334 -57.287  1.00  0.00    -0.169 F 
ENDBRANCH   8  20
BRANCH   6  24
HETATM   24  C   UNL     1     -40.235  53.393 -53.554  1.00  0.00    -0.035 A 
HETATM   25  C   UNL     1     -39.996  53.084 -52.204  1.00  0.00     0.011 A 
HETATM   26  C   UNL     1     -39.769  51.766 -51.801  1.00  0.00     0.024 A 
HETATM   27  C   UNL     1     -39.788  50.742 -52.743  1.00  0.00     0.034 A 
HETATM   28 CL   UNL     1     -39.513  49.117 -52.249  1.00  0.00    -0.084 Cl
HETATM   29  C   UNL     1     -40.034  51.025 -54.085  1.00  0.00     0.024 A 
HETATM   30  C   UNL     1     -40.257  52.344 -54.489  1.00  0.00     0.011 A 
ENDBRANCH   6  24
TORSDOF 6
ENDMDL
MODEL 5
REMARK VINA RESULT:      -7.0      3.651      4.791
REMARK  6 active torsions:
REMARK  status: ('A' for Active; 'I' for Inactive)
REMARK    1  A    between atoms: O_2  and  C_3 
REMARK    2  A    between atoms: C_3  and  C_4 
REMARK    3  A    between atoms: C_4  and  N_5 
REMARK       I    between atoms: N_5  and  C_6 
REMARK    4  A    between atoms: C_6  and  C_7 
REMARK    5  A    between atoms: C_12  and  C_13 
REMARK    6  A    between atoms: C_21  and  C_22 
ROOT
HETATM    1  C   UNL     1     -42.840  58.197 -56.218  1.00  0.00     0.170 A 
HETATM    2  N   UNL     1     -42.586  58.706 -54.987  1.00  0.00    -0.163 NA
HETATM    3  N   UNL     1     -42.126  57.656 -54.290  1.00  0.00    -0.238 N 
HETATM    4  C   UNL     1     -42.190  56.471 -54.975  1.00  0.00     0.145 A 
HETATM    5  N   UNL     1     -41.867  55.296 -54.373  1.00  0.00    -0.365 N 
HETATM    6  C   UNL     1     -41.825  55.229 -52.916  1.00  0.00     0.118 C 
HETATM    7  C   UNL     1     -41.101  56.472 -52.383  1.00  0.00     0.066 C 
HETATM    8  C   UNL     1     -41.795  57.757 -52.877  1.00  0.00     0.221 C 
HETATM    9  C   UNL     1     -42.606  56.794 -56.246  1.00  0.00     0.115 A 
HETATM   10 CL   UNL     1     -42.828  55.721 -57.542  1.00  0.00    -0.077 Cl
HETATM   11  H   UNL     1     -42.129  54.423 -54.837  1.00  0.00     0.162 HD
ENDROOT
BRANCH   1  12
HETATM   12  C   UNL     1     -43.311  59.063 -57.312  1.00  0.00     0.273 C 
HETATM   13  N   UNL     1     -42.380  59.227 -58.316  1.00  0.00    -0.353 N 
HETATM   14  H   UNL     1     -41.560  58.625 -58.262  1.00  0.00     0.162 HD
HETATM   15  O   UNL     1     -44.421  59.583 -57.340  1.00  0.00    -0.266 OA
BRANCH  13  16
HETATM   16  C   UNL     1     -42.701  59.846 -59.586  1.00  0.00     0.149 C 
BRANCH  16  17
HETATM   17  C   UNL     1     -42.295  61.317 -59.610  1.00  0.00     0.186 C 
BRANCH  17  18
HETATM   18  O   UNL     1     -40.940  61.440 -59.164  1.00  0.00    -0.394 OA
HETATM   19  C   UNL     1     -40.739  62.641 -58.431  1.00  0.00     0.201 C 
ENDBRANCH  17  18
ENDBRANCH  16  17
ENDBRANCH  13  16
ENDBRANCH   1  12
BRANCH   8  20
HETATM   20  C   UNL     1     -40.914  58.953 -52.585  1.00  0.00     0.409 C 
HETATM   21  F   UNL     1     -39.815  58.990 -53.371  1.00  0.00    -0.169 F 
HETATM   22  F   UNL     1     -41.559  60.133 -52.703  1.00  0.00    -0.169 F 
HETATM   23  F   UNL     1     -40.473  58.891 -51.300  1.00  0.00    -0.169 F 
ENDBRANCH   8  20
BRANCH   6  24
HETATM   24  C   UNL     1     -41.132  53.958 -52.463  1.00  0.00    -0.035 A 
HETATM   25  C   UNL     1     -41.020  53.625 -51.102  1.00  0.00     0.011 A 
HETATM   26  C   UNL     1     -40.397  52.439 -50.706  1.00  0.00     0.024 A 
HETATM   27  C   UNL     1     -39.888  51.570 -51.667  1.00  0.00     0.034 A 
HETATM   28 CL   UNL     1     -39.124  50.107 -51.181  1.00  0.00    -0.084 Cl
HETATM   29  C   UNL     1     -39.999  51.876 -53.021  1.00  0.00     0.024 A 
HETATM   30  C   UNL     1     -40.618  53.064 -53.418  1.00  0.00     0.011 A 
ENDBRANCH   6  24
TORSDOF 6
ENDMDL
MODEL 6
REMARK VINA RESULT:      -6.9      1.545      2.958
REMARK  6 active torsions:
REMARK  status: ('A' for Active; 'I' for Inactive)
REMARK    1  A    between atoms: O_2  and  C_3 
REMARK    2  A    between atoms: C_3  and  C_4 
REMARK    3  A    between atoms: C_4  and  N_5 
REMARK       I    between atoms: N_5  and  C_6 
REMARK    4  A    between atoms: C_6  and  C_7 
REMARK    5  A    between atoms: C_12  and  C_13 
REMARK    6  A    between atoms: C_21  and  C_22 
ROOT
HETATM    1  C   UNL     1     -44.516  59.069 -52.953  1.00  0.00     0.170 A 
HETATM    2  N   UNL     1     -43.601  59.112 -51.952  1.00  0.00    -0.163 NA
HETATM    3  N   UNL     1     -42.940  57.950 -52.065  1.00  0.00    -0.238 N 
HETATM    4  C   UNL     1     -43.467  57.107 -53.009  1.00  0.00     0.145 A 
HETATM    5  N   UNL     1     -42.984  55.847 -53.171  1.00  0.00    -0.365 N 
HETATM    6  C   UNL     1     -42.181  55.250 -52.108  1.00  0.00     0.118 C 
HETATM    7  C   UNL     1     -41.174  56.290 -51.602  1.00  0.00     0.066 C 
HETATM    8  C   UNL     1     -41.902  57.562 -51.122  1.00  0.00     0.221 C 
HETATM    9  C   UNL     1     -44.462  57.822 -53.636  1.00  0.00     0.115 A 
HETATM   10 CL   UNL     1     -45.436  57.288 -54.919  1.00  0.00    -0.077 Cl
HETATM   11  H   UNL     1     -43.531  55.184 -53.723  1.00  0.00     0.162 HD
ENDROOT
BRANCH   1  12
HETATM   12  C   UNL     1     -45.413  60.208 -53.208  1.00  0.00     0.273 C 
HETATM   13  N   UNL     1     -45.199  60.807 -54.431  1.00  0.00    -0.353 N 
HETATM   14  H   UNL     1     -44.571  60.312 -55.063  1.00  0.00     0.162 HD
HETATM   15  O   UNL     1     -46.273  60.587 -52.421  1.00  0.00    -0.266 OA
BRANCH  13  16
HETATM   16  C   UNL     1     -46.103  61.792 -54.988  1.00  0.00     0.149 C 
BRANCH  16  17
HETATM   17  C   UNL     1     -46.343  61.554 -56.477  1.00  0.00     0.186 C 
BRANCH  17  18
HETATM   18  O   UNL     1     -45.786  60.289 -56.848  1.00  0.00    -0.394 OA
HETATM   19  C   UNL     1     -46.715  59.507 -57.588  1.00  0.00     0.201 C 
ENDBRANCH  17  18
ENDBRANCH  16  17
ENDBRANCH  13  16
ENDBRANCH   1  12
BRANCH   8  20
HETATM   20  C   UNL     1     -40.896  58.670 -50.900  1.00  0.00     0.409 C 
HETATM   21  F   UNL     1     -39.672  58.199 -50.572  1.00  0.00    -0.169 F 
HETATM   22  F   UNL     1     -40.762  59.492 -51.962  1.00  0.00    -0.169 F 
HETATM   23  F   UNL     1     -41.303  59.454 -49.865  1.00  0.00    -0.169 F 
ENDBRANCH   8  20
BRANCH   6  24
HETATM   24  C   UNL     1     -41.474  54.007 -52.613  1.00  0.00    -0.035 A 
HETATM   25  C   UNL     1     -41.656  53.538 -53.926  1.00  0.00     0.011 A 
HETATM   26  C   UNL     1     -40.980  52.402 -54.379  1.00  0.00     0.024 A 
HETATM   27  C   UNL     1     -40.109  51.730 -53.528  1.00  0.00     0.034 A 
HETATM   28 CL   UNL     1     -39.272  50.334 -54.086  1.00  0.00    -0.084 Cl
HETATM   29  C   UNL     1     -39.907  52.184 -52.227  1.00  0.00     0.024 A 
HETATM   30  C   UNL     1     -40.586  53.318 -51.772  1.00  0.00     0.011 A 
ENDBRANCH   6  24
TORSDOF 6
ENDMDL
MODEL 7
REMARK VINA RESULT:      -6.8     18.244     20.070
REMARK  6 active torsions:
REMARK  status: ('A' for Active; 'I' for Inactive)
REMARK    1  A    between atoms: O_2  and  C_3 
REMARK    2  A    between atoms: C_3  and  C_4 
REMARK    3  A    between atoms: C_4  and  N_5 
REMARK       I    between atoms: N_5  and  C_6 
REMARK    4  A    between atoms: C_6  and  C_7 
REMARK    5  A    between atoms: C_12  and  C_13 
REMARK    6  A    between atoms: C_21  and  C_22 
ROOT
HETATM    1  C   UNL     1     -33.524  40.021 -50.184  1.00  0.00     0.170 A 
HETATM    2  N   UNL     1     -34.869  39.950 -50.026  1.00  0.00    -0.163 NA
HETATM    3  N   UNL     1     -35.356  40.280 -51.232  1.00  0.00    -0.238 N 
HETATM    4  C   UNL     1     -34.394  40.682 -52.122  1.00  0.00     0.145 A 
HETATM    5  N   UNL     1     -34.730  41.156 -53.351  1.00  0.00    -0.365 N 
HETATM    6  C   UNL     1     -36.099  41.600 -53.593  1.00  0.00     0.118 C 
HETATM    7  C   UNL     1     -37.068  40.580 -52.983  1.00  0.00     0.066 C 
HETATM    8  C   UNL     1     -36.785  40.394 -51.480  1.00  0.00     0.221 C 
HETATM    9  C   UNL     1     -33.190  40.481 -51.488  1.00  0.00     0.115 A 
HETATM   10 CL   UNL     1     -31.646  40.773 -52.131  1.00  0.00    -0.077 Cl
HETATM   11  H   UNL     1     -34.016  41.641 -53.898  1.00  0.00     0.162 HD
ENDROOT
BRANCH   1  12
HETATM   12  C   UNL     1     -32.613  39.664 -49.084  1.00  0.00     0.273 C 
HETATM   13  N   UNL     1     -32.943  38.476 -48.467  1.00  0.00    -0.353 N 
HETATM   14  H   UNL     1     -33.662  37.922 -48.929  1.00  0.00     0.162 HD
HETATM   15  O   UNL     1     -31.650  40.346 -48.748  1.00  0.00    -0.266 OA
BRANCH  13  16
HETATM   16  C   UNL     1     -32.068  37.820 -47.517  1.00  0.00     0.149 C 
BRANCH  16  17
HETATM   17  C   UNL     1     -32.719  37.706 -46.141  1.00  0.00     0.186 C 
BRANCH  17  18
HETATM   18  O   UNL     1     -31.761  38.053 -45.136  1.00  0.00    -0.394 OA
HETATM   19  C   UNL     1     -30.880  39.074 -45.586  1.00  0.00     0.201 C 
ENDBRANCH  17  18
ENDBRANCH  16  17
ENDBRANCH  13  16
ENDBRANCH   1  12
BRANCH   8  20
HETATM   20  C   UNL     1     -37.546  39.192 -50.965  1.00  0.00     0.409 C 
HETATM   21  F   UNL     1     -36.991  38.022 -51.352  1.00  0.00    -0.169 F 
HETATM   22  F   UNL     1     -37.675  39.175 -49.621  1.00  0.00    -0.169 F 
HETATM   23  F   UNL     1     -38.812  39.206 -51.464  1.00  0.00    -0.169 F 
ENDBRANCH   8  20
BRANCH   6  24
HETATM   24  C   UNL     1     -36.346  41.768 -55.080  1.00  0.00    -0.035 A 
HETATM   25  C   UNL     1     -35.333  42.206 -55.951  1.00  0.00     0.011 A 
HETATM   26  C   UNL     1     -35.574  42.334 -57.321  1.00  0.00     0.024 A 
HETATM   27  C   UNL     1     -36.828  42.017 -57.835  1.00  0.00     0.034 A 
HETATM   28 CL   UNL     1     -37.126  42.170 -59.523  1.00  0.00    -0.084 Cl
HETATM   29  C   UNL     1     -37.842  41.572 -56.991  1.00  0.00     0.024 A 
HETATM   30  C   UNL     1     -37.603  41.447 -55.620  1.00  0.00     0.011 A 
ENDBRANCH   6  24
TORSDOF 6
ENDMDL
MODEL 8
REMARK VINA RESULT:      -6.8      3.214      4.528
REMARK  6 active torsions:
REMARK  status: ('A' for Active; 'I' for Inactive)
REMARK    1  A    between atoms: O_2  and  C_3 
REMARK    2  A    between atoms: C_3  and  C_4 
REMARK    3  A    between atoms: C_4  and  N_5 
REMARK       I    between atoms: N_5  and  C_6 
REMARK    4  A    between atoms: C_6  and  C_7 
REMARK    5  A    between atoms: C_12  and  C_13 
REMARK    6  A    between atoms: C_21  and  C_22 
ROOT
HETATM    1  C   UNL     1     -42.452  59.667 -54.647  1.00  0.00     0.170 A 
HETATM    2  N   UNL     1     -42.335  59.846 -53.308  1.00  0.00    -0.163 NA
HETATM    3  N   UNL     1     -41.971  58.639 -52.849  1.00  0.00    -0.238 N 
HETATM    4  C   UNL     1     -41.971  57.663 -53.810  1.00  0.00     0.145 A 
HETATM    5  N   UNL     1     -41.734  56.363 -53.490  1.00  0.00    -0.365 N 
HETATM    6  C   UNL     1     -41.859  55.939 -52.099  1.00  0.00     0.118 C 
HETATM    7  C   UNL     1     -41.186  56.981 -51.198  1.00  0.00     0.066 C 
HETATM    8  C   UNL     1     -41.802  58.376 -51.428  1.00  0.00     0.221 C 
HETATM    9  C   UNL     1     -42.234  58.306 -54.998  1.00  0.00     0.115 A 
HETATM   10 CL   UNL     1     -42.320  57.595 -56.536  1.00  0.00    -0.077 Cl
HETATM   11  H   UNL     1     -41.952  55.643 -54.182  1.00  0.00     0.162 HD
ENDROOT
BRANCH   1  12
HETATM   12  C   UNL     1     -42.784  60.794 -55.535  1.00  0.00     0.273 C 
HETATM   13  N   UNL     1     -41.894  60.946 -56.577  1.00  0.00    -0.353 N 
HETATM   14  H   UNL     1     -41.221  60.191 -56.698  1.00  0.00     0.162 HD
HETATM   15  O   UNL     1     -43.756  61.524 -55.376  1.00  0.00    -0.266 OA
BRANCH  13  16
HETATM   16  C   UNL     1     -42.142  61.836 -57.692  1.00  0.00     0.149 C 
BRANCH  16  17
HETATM   17  C   UNL     1     -42.889  61.128 -58.820  1.00  0.00     0.186 C 
BRANCH  17  18
HETATM   18  O   UNL     1     -41.945  60.654 -59.785  1.00  0.00    -0.394 OA
HETATM   19  C   UNL     1     -42.016  59.242 -59.933  1.00  0.00     0.201 C 
ENDBRANCH  17  18
ENDBRANCH  16  17
ENDBRANCH  13  16
ENDBRANCH   1  12
BRANCH   8  20
HETATM   20  C   UNL     1     -40.946  59.426 -50.754  1.00  0.00     0.409 C 
HETATM   21  F   UNL     1     -39.753  59.592 -51.367  1.00  0.00    -0.169 F 
HETATM   22  F   UNL     1     -41.549  60.631 -50.666  1.00  0.00    -0.169 F 
HETATM   23  F   UNL     1     -40.679  59.045 -49.476  1.00  0.00    -0.169 F 
ENDBRANCH   8  20
BRANCH   6  24
HETATM   24  C   UNL     1     -41.239  54.568 -51.905  1.00  0.00    -0.035 A 
HETATM   25  C   UNL     1     -40.826  53.785 -52.998  1.00  0.00     0.011 A 
HETATM   26  C   UNL     1     -40.238  52.534 -52.798  1.00  0.00     0.024 A 
HETATM   27  C   UNL     1     -40.049  52.057 -51.505  1.00  0.00     0.034 A 
HETATM   28 CL   UNL     1     -39.320  50.518 -51.257  1.00  0.00    -0.084 Cl
HETATM   29  C   UNL     1     -40.441  52.821 -50.409  1.00  0.00     0.024 A 
HETATM   30  C   UNL     1     -41.033  54.071 -50.608  1.00  0.00     0.011 A 
ENDBRANCH   6  24
TORSDOF 6
ENDMDL
MODEL 9
REMARK VINA RESULT:      -6.7      6.617      9.154
REMARK  6 active torsions:
REMARK  status: ('A' for Active; 'I' for Inactive)
REMARK    1  A    between atoms: O_2  and  C_3 
REMARK    2  A    between atoms: C_3  and  C_4 
REMARK    3  A    between atoms: C_4  and  N_5 
REMARK       I    between atoms: N_5  and  C_6 
REMARK    4  A    between atoms: C_6  and  C_7 
REMARK    5  A    between atoms: C_12  and  C_13 
REMARK    6  A    between atoms: C_21  and  C_22 
ROOT
HETATM    1  C   UNL     1     -43.034  57.210 -55.260  1.00  0.00     0.170 A 
HETATM    2  N   UNL     1     -43.635  56.963 -56.450  1.00  0.00    -0.163 NA
HETATM    3  N   UNL     1     -43.122  57.892 -57.273  1.00  0.00    -0.238 N 
HETATM    4  C   UNL     1     -42.316  58.801 -56.639  1.00  0.00     0.145 A 
HETATM    5  N   UNL     1     -41.807  59.870 -57.307  1.00  0.00    -0.365 N 
HETATM    6  C   UNL     1     -42.409  60.272 -58.574  1.00  0.00     0.118 C 
HETATM    7  C   UNL     1     -42.669  59.020 -59.419  1.00  0.00     0.066 C 
HETATM    8  C   UNL     1     -43.561  58.022 -58.654  1.00  0.00     0.221 C 
HETATM    9  C   UNL     1     -42.200  58.360 -55.341  1.00  0.00     0.115 A 
HETATM   10 CL   UNL     1     -41.287  59.081 -54.105  1.00  0.00    -0.077 Cl
HETATM   11  H   UNL     1     -41.395  60.632 -56.764  1.00  0.00     0.162 HD
ENDROOT
BRANCH   1  12
HETATM   12  C   UNL     1     -43.289  56.352 -54.091  1.00  0.00     0.273 C 
HETATM   13  N   UNL     1     -42.565  55.179 -54.108  1.00  0.00    -0.353 N 
HETATM   14  H   UNL     1     -41.844  55.114 -54.824  1.00  0.00     0.162 HD
HETATM   15  O   UNL     1     -44.060  56.647 -53.185  1.00  0.00    -0.266 OA
BRANCH  13  16
HETATM   16  C   UNL     1     -42.484  54.294 -52.964  1.00  0.00     0.149 C 
BRANCH  16  17
HETATM   17  C   UNL     1     -41.043  54.120 -52.491  1.00  0.00     0.186 C 
BRANCH  17  18
HETATM   18  O   UNL     1     -40.675  52.742 -52.598  1.00  0.00    -0.394 OA
HETATM   19  C   UNL     1     -40.187  52.432 -53.897  1.00  0.00     0.201 C 
ENDBRANCH  17  18
ENDBRANCH  16  17
ENDBRANCH  13  16
ENDBRANCH   1  12
BRANCH   8  20
HETATM   20  C   UNL     1     -43.569  56.691 -59.374  1.00  0.00     0.409 C 
HETATM   21  F   UNL     1     -42.514  55.916 -59.041  1.00  0.00    -0.169 F 
HETATM   22  F   UNL     1     -44.698  55.980 -59.171  1.00  0.00    -0.169 F 
HETATM   23  F   UNL     1     -43.492  56.900 -60.716  1.00  0.00    -0.169 F 
ENDBRANCH   8  20
BRANCH   6  24
HETATM   24  C   UNL     1     -41.506  61.247 -59.305  1.00  0.00    -0.035 A 
HETATM   25  C   UNL     1     -40.522  61.989 -58.628  1.00  0.00     0.011 A 
HETATM   26  C   UNL     1     -39.685  62.866 -59.322  1.00  0.00     0.024 A 
HETATM   27  C   UNL     1     -39.819  63.005 -60.700  1.00  0.00     0.034 A 
HETATM   28 CL   UNL     1     -38.787  64.082 -61.557  1.00  0.00    -0.084 Cl
HETATM   29  C   UNL     1     -40.780  62.271 -61.391  1.00  0.00     0.024 A 
HETATM   30  C   UNL     1     -41.620  61.396 -60.696  1.00  0.00     0.011 A 
ENDBRANCH   6  24
TORSDOF 6
ENDMDL
MODEL 10
REMARK VINA RESULT:      -6.6      4.298      7.969
REMARK  6 active torsions:
REMARK  status: ('A' for Active; 'I' for Inactive)
REMARK    1  A    between atoms: O_2  and  C_3 
REMARK    2  A    between atoms: C_3  and  C_4 
REMARK    3  A    between atoms: C_4  and  N_5 
REMARK       I    between atoms: N_5  and  C_6 
REMARK    4  A    between atoms: C_6  and  C_7 
REMARK    5  A    between atoms: C_12  and  C_13 
REMARK    6  A    between atoms: C_21  and  C_22 
ROOT
HETATM    1  C   UNL     1     -42.505  55.117 -52.599  1.00  0.00     0.170 A 
HETATM    2  N   UNL     1     -42.869  56.371 -52.232  1.00  0.00    -0.163 NA
HETATM    3  N   UNL     1     -43.491  56.860 -53.316  1.00  0.00    -0.238 N 
HETATM    4  C   UNL     1     -43.433  56.029 -54.404  1.00  0.00     0.145 A 
HETATM    5  N   UNL     1     -43.917  56.421 -55.612  1.00  0.00    -0.365 N 
HETATM    6  C   UNL     1     -44.144  57.841 -55.861  1.00  0.00     0.118 C 
HETATM    7  C   UNL     1     -44.830  58.457 -54.636  1.00  0.00     0.066 C 
HETATM    8  C   UNL     1     -43.985  58.227 -53.368  1.00  0.00     0.221 C 
HETATM    9  C   UNL     1     -42.841  54.869 -53.959  1.00  0.00     0.115 A 
HETATM   10 CL   UNL     1     -42.542  53.470 -54.873  1.00  0.00    -0.077 Cl
HETATM   11  H   UNL     1     -43.667  55.873 -56.438  1.00  0.00     0.162 HD
ENDROOT
BRANCH   1  12
HETATM   12  C   UNL     1     -41.838  54.214 -51.647  1.00  0.00     0.273 C 
HETATM   13  N   UNL     1     -40.705  53.620 -52.162  1.00  0.00    -0.353 N 
HETATM   14  H   UNL     1     -40.383  53.983 -53.058  1.00  0.00     0.162 HD
HETATM   15  O   UNL     1     -42.239  54.009 -50.506  1.00  0.00    -0.266 OA
BRANCH  13  16
HETATM   16  C   UNL     1     -39.771  52.876 -51.342  1.00  0.00     0.149 C 
BRANCH  16  17
HETATM   17  C   UNL     1     -39.376  51.556 -51.999  1.00  0.00     0.186 C 
BRANCH  17  18
HETATM   18  O   UNL     1     -39.634  51.634 -53.405  1.00  0.00    -0.394 OA
HETATM   19  C   UNL     1     -39.887  50.350 -53.961  1.00  0.00     0.201 C 
ENDBRANCH  17  18
ENDBRANCH  16  17
ENDBRANCH  13  16
ENDBRANCH   1  12
BRANCH   8  20
HETATM   20  C   UNL     1     -44.801  58.581 -52.143  1.00  0.00     0.409 C 
HETATM   21  F   UNL     1     -45.455  57.515 -51.631  1.00  0.00    -0.169 F 
HETATM   22  F   UNL     1     -44.069  59.143 -51.157  1.00  0.00    -0.169 F 
HETATM   23  F   UNL     1     -45.750  59.497 -52.477  1.00  0.00    -0.169 F 
ENDBRANCH   8  20
BRANCH   6  24
HETATM   24  C   UNL     1     -44.982  58.032 -57.111  1.00  0.00    -0.035 A 
HETATM   25  C   UNL     1     -44.441  57.852 -58.396  1.00  0.00     0.011 A 
HETATM   26  C   UNL     1     -45.234  58.012 -59.534  1.00  0.00     0.024 A 
HETATM   27  C   UNL     1     -46.578  58.346 -59.399  1.00  0.00     0.034 A 
HETATM   28 CL   UNL     1     -47.558  58.540 -60.801  1.00  0.00    -0.084 Cl
HETATM   29  C   UNL     1     -47.137  58.519 -58.135  1.00  0.00     0.024 A 
HETATM   30  C   UNL     1     -46.342  58.362 -56.996  1.00  0.00     0.011 A 
ENDBRANCH   6  24
TORSDOF 6
ENDMDL
