MODEL 1
REMARK VINA RESULT:      -7.7      0.000      0.000
REMARK  10 active torsions:
REMARK  status: ('A' for Active; 'I' for Inactive)
REMARK    1  A    between atoms: C_4  and  N_5 
REMARK    2  A    between atoms: N_5  and  C_6 
REMARK    3  A    between atoms: C_6  and  N_7 
REMARK    4  A    between atoms: N_7  and  N_8 
REMARK       I    between atoms: N_8  and  C_9 
REMARK    5  A    between atoms: C_9  and  C_10 
REMARK    6  A    between atoms: C_10  and  O_11 
REMARK    7  A    between atoms: O_11  and  C_12 
REMARK    8  A    between atoms: C_22  and  C_23 
REMARK    9  A    between atoms: C_23  and  O_24 
REMARK   10  A    between atoms: C_27  and  C_28 
ROOT
HETATM    1  N   UNL     1     -41.733  59.979 -55.383  1.00  0.00    -0.228 NA
HETATM    2  H   UNL     1     -41.124  60.776 -55.549  1.00  0.00     0.136 HD
ENDROOT
BRANCH   1   3
HETATM    3  C   UNL     1     -42.219  59.443 -56.568  1.00  0.00     0.073 C 
HETATM    4  S   UNL     1     -41.736  60.375 -57.907  1.00  0.00    -0.081 SA
HETATM    5  C   UNL     1     -42.735  59.489 -58.970  1.00  0.00    -0.007 C 
HETATM    6  C   UNL     1     -42.865  59.941 -60.391  1.00  0.00     0.057 C 
HETATM    7  C   UNL     1     -43.314  58.402 -58.330  1.00  0.00     0.005 C 
HETATM    8  C   UNL     1     -42.926  58.309 -56.928  1.00  0.00     0.080 C 
BRANCH   7   9
HETATM    9  C   UNL     1     -44.247  57.531 -59.040  1.00  0.00    -0.024 A 
HETATM   10  C   UNL     1     -45.620  57.812 -58.993  1.00  0.00     0.012 A 
HETATM   11  C   UNL     1     -46.526  56.997 -59.672  1.00  0.00     0.001 A 
HETATM   12  C   UNL     1     -46.067  55.903 -60.403  1.00  0.00     0.000 A 
HETATM   13  C   UNL     1     -44.703  55.618 -60.453  1.00  0.00     0.001 A 
HETATM   14  C   UNL     1     -43.793  56.427 -59.769  1.00  0.00     0.012 A 
ENDBRANCH   7   9
BRANCH   8  15
HETATM   15  C   UNL     1     -43.205  57.191 -56.027  1.00  0.00     0.296 C 
HETATM   16  O   UNL     1     -44.119  57.189 -55.211  1.00  0.00    -0.259 OA
BRANCH  15  17
HETATM   17  O   UNL     1     -42.312  56.167 -56.154  1.00  0.00    -0.322 OA
HETATM   18  C   UNL     1     -42.902  54.893 -56.410  1.00  0.00     0.213 C 
ENDBRANCH  15  17
ENDBRANCH   8  15
ENDBRANCH   1   3
BRANCH   1  19
HETATM   19  C   UNL     1     -42.575  60.282 -54.335  1.00  0.00     0.170 C 
HETATM   20  S   UNL     1     -43.959  61.166 -54.695  1.00  0.00    -0.045 SA
BRANCH  19  21
HETATM   21  N   UNL     1     -42.263  59.780 -53.096  1.00  0.00    -0.278 N 
HETATM   22  H   UNL     1     -42.377  60.444 -52.321  1.00  0.00     0.189 HD
BRANCH  21  23
HETATM   23  N   UNL     1     -42.605  58.457 -52.760  1.00  0.00    -0.266 N 
HETATM   24  C   UNL     1     -41.661  57.457 -52.894  1.00  0.00     0.260 C 
HETATM   25  O   UNL     1     -40.583  57.601 -53.470  1.00  0.00    -0.269 OA
HETATM   26  H   UNL     1     -43.376  58.328 -52.105  1.00  0.00     0.190 HD
BRANCH  24  27
HETATM   27  C   UNL     1     -42.065  56.134 -52.246  1.00  0.00     0.280 C 
BRANCH  27  28
HETATM   28  O   UNL     1     -40.919  55.415 -51.800  1.00  0.00    -0.340 OA
BRANCH  28  29
HETATM   29  C   UNL     1     -40.636  54.225 -52.415  1.00  0.00     0.091 A 
HETATM   30  C   UNL     1     -40.205  53.171 -51.590  1.00  0.00     0.068 A 
HETATM   31 CL   UNL     1     -40.064  53.379 -49.877  1.00  0.00    -0.081 Cl
HETATM   32  C   UNL     1     -39.886  51.922 -52.126  1.00  0.00     0.046 A 
HETATM   33  C   UNL     1     -39.991  51.722 -53.499  1.00  0.00     0.012 A 
HETATM   34 BR   UNL     1     -39.564  50.037 -54.239  1.00  0.00    -0.051 Br
HETATM   35  C   UNL     1     -40.407  52.758 -54.334  1.00  0.00     0.022 A 
HETATM   36  C   UNL     1     -40.727  54.009 -53.794  1.00  0.00     0.040 A 
ENDBRANCH  28  29
ENDBRANCH  27  28
ENDBRANCH  24  27
ENDBRANCH  21  23
ENDBRANCH  19  21
ENDBRANCH   1  19
TORSDOF 10
ENDMDL
MODEL 2
REMARK VINA RESULT:      -7.3      3.353      6.987
REMARK  10 active torsions:
REMARK  status: ('A' for Active; 'I' for Inactive)
REMARK    1  A    between atoms: C_4  and  N_5 
REMARK    2  A    between atoms: N_5  and  C_6 
REMARK    3  A    between atoms: C_6  and  N_7 
REMARK    4  A    between atoms: N_7  and  N_8 
REMARK       I    between atoms: N_8  and  C_9 
REMARK    5  A    between atoms: C_9  and  C_10 
REMARK    6  A    between atoms: C_10  and  O_11 
REMARK    7  A    between atoms: O_11  and  C_12 
REMARK    8  A    between atoms: C_22  and  C_23 
REMARK    9  A    between atoms: C_23  and  O_24 
REMARK   10  A    between atoms: C_27  and  C_28 
ROOT
HETATM    1  N   UNL     1     -43.687  59.371 -51.465  1.00  0.00    -0.228 NA
HETATM    2  H   UNL     1     -43.240  59.512 -50.563  1.00  0.00     0.136 HD
ENDROOT
BRANCH   1   3
HETATM    3  C   UNL     1     -43.286  58.184 -52.062  1.00  0.00     0.073 C 
HETATM    4  S   UNL     1     -44.368  57.717 -53.291  1.00  0.00    -0.081 SA
HETATM    5  C   UNL     1     -43.602  56.205 -53.485  1.00  0.00    -0.007 C 
HETATM    6  C   UNL     1     -44.211  55.195 -54.406  1.00  0.00     0.057 C 
HETATM    7  C   UNL     1     -42.446  56.123 -52.721  1.00  0.00     0.005 C 
HETATM    8  C   UNL     1     -42.197  57.338 -51.955  1.00  0.00     0.080 C 
BRANCH   7   9
HETATM    9  C   UNL     1     -41.656  54.894 -52.698  1.00  0.00    -0.024 A 
HETATM   10  C   UNL     1     -40.920  54.529 -53.833  1.00  0.00     0.012 A 
HETATM   11  C   UNL     1     -40.153  53.363 -53.827  1.00  0.00     0.001 A 
HETATM   12  C   UNL     1     -40.113  52.562 -52.687  1.00  0.00     0.000 A 
HETATM   13  C   UNL     1     -40.843  52.920 -51.554  1.00  0.00     0.001 A 
HETATM   14  C   UNL     1     -41.618  54.082 -51.559  1.00  0.00     0.012 A 
ENDBRANCH   7   9
BRANCH   8  15
HETATM   15  C   UNL     1     -40.982  57.649 -51.202  1.00  0.00     0.296 C 
HETATM   16  O   UNL     1     -40.561  56.963 -50.278  1.00  0.00    -0.259 OA
BRANCH  15  17
HETATM   17  O   UNL     1     -40.389  58.812 -51.601  1.00  0.00    -0.322 OA
HETATM   18  C   UNL     1     -39.758  59.547 -50.553  1.00  0.00     0.213 C 
ENDBRANCH  15  17
ENDBRANCH   8  15
ENDBRANCH   1   3
BRANCH   1  19
HETATM   19  C   UNL     1     -43.664  60.564 -52.156  1.00  0.00     0.170 C 
HETATM   20  S   UNL     1     -45.016  61.555 -52.018  1.00  0.00    -0.045 SA
BRANCH  19  21
HETATM   21  N   UNL     1     -42.519  60.888 -52.839  1.00  0.00    -0.278 N 
HETATM   22  H   UNL     1     -41.671  60.411 -52.508  1.00  0.00     0.189 HD
BRANCH  21  23
HETATM   23  N   UNL     1     -42.553  61.076 -54.233  1.00  0.00    -0.266 N 
HETATM   24  C   UNL     1     -41.961  60.140 -55.059  1.00  0.00     0.260 C 
HETATM   25  O   UNL     1     -41.232  59.233 -54.660  1.00  0.00    -0.269 OA
HETATM   26  H   UNL     1     -43.296  61.667 -54.604  1.00  0.00     0.190 HD
BRANCH  24  27
HETATM   27  C   UNL     1     -42.302  60.317 -56.538  1.00  0.00     0.280 C 
BRANCH  27  28
HETATM   28  O   UNL     1     -41.533  59.430 -57.347  1.00  0.00    -0.340 OA
BRANCH  28  29
HETATM   29  C   UNL     1     -42.173  58.348 -57.888  1.00  0.00     0.091 A 
HETATM   30  C   UNL     1     -42.483  58.414 -59.258  1.00  0.00     0.068 A 
HETATM   31 CL   UNL     1     -42.048  59.795 -60.205  1.00  0.00    -0.081 Cl
HETATM   32  C   UNL     1     -43.141  57.362 -59.897  1.00  0.00     0.046 A 
HETATM   33  C   UNL     1     -43.502  56.236 -59.164  1.00  0.00     0.012 A 
HETATM   34 BR   UNL     1     -44.393  54.805 -60.017  1.00  0.00    -0.051 Br
HETATM   35  C   UNL     1     -43.213  56.158 -57.803  1.00  0.00     0.022 A 
HETATM   36  C   UNL     1     -42.552  57.213 -57.164  1.00  0.00     0.040 A 
ENDBRANCH  28  29
ENDBRANCH  27  28
ENDBRANCH  24  27
ENDBRANCH  21  23
ENDBRANCH  19  21
ENDBRANCH   1  19
TORSDOF 10
ENDMDL
MODEL 3
REMARK VINA RESULT:      -6.9      2.210      3.031
REMARK  10 active torsions:
REMARK  status: ('A' for Active; 'I' for Inactive)
REMARK    1  A    between atoms: C_4  and  N_5 
REMARK    2  A    between atoms: N_5  and  C_6 
REMARK    3  A    between atoms: C_6  and  N_7 
REMARK    4  A    between atoms: N_7  and  N_8 
REMARK       I    between atoms: N_8  and  C_9 
REMARK    5  A    between atoms: C_9  and  C_10 
REMARK    6  A    between atoms: C_10  and  O_11 
REMARK    7  A    between atoms: O_11  and  C_12 
REMARK    8  A    between atoms: C_22  and  C_23 
REMARK    9  A    between atoms: C_23  and  O_24 
REMARK   10  A    between atoms: C_27  and  C_28 
ROOT
HETATM    1  N   UNL     1     -44.133  60.700 -53.813  1.00  0.00    -0.228 NA
HETATM    2  H   UNL     1     -44.253  61.708 -53.748  1.00  0.00     0.136 HD
ENDROOT
BRANCH   1   3
HETATM    3  C   UNL     1     -43.992  60.279 -55.128  1.00  0.00     0.073 C 
HETATM    4  S   UNL     1     -45.014  61.157 -56.168  1.00  0.00    -0.081 SA
HETATM    5  C   UNL     1     -44.653  60.143 -57.491  1.00  0.00    -0.007 C 
HETATM    6  C   UNL     1     -45.398  60.331 -58.775  1.00  0.00     0.057 C 
HETATM    7  C   UNL     1     -43.650  59.237 -57.174  1.00  0.00     0.005 C 
HETATM    8  C   UNL     1     -43.180  59.384 -55.802  1.00  0.00     0.080 C 
BRANCH   7   9
HETATM    9  C   UNL     1     -43.215  58.237 -58.146  1.00  0.00    -0.024 A 
HETATM   10  C   UNL     1     -43.806  56.966 -58.136  1.00  0.00     0.012 A 
HETATM   11  C   UNL     1     -43.410  56.001 -59.062  1.00  0.00     0.001 A 
HETATM   12  C   UNL     1     -42.428  56.301 -60.005  1.00  0.00     0.000 A 
HETATM   13  C   UNL     1     -41.836  57.564 -60.020  1.00  0.00     0.001 A 
HETATM   14  C   UNL     1     -42.225  58.530 -59.090  1.00  0.00     0.012 A 
ENDBRANCH   7   9
BRANCH   8  15
HETATM   15  C   UNL     1     -42.017  58.721 -55.213  1.00  0.00     0.296 C 
HETATM   16  O   UNL     1     -41.801  57.518 -55.307  1.00  0.00    -0.259 OA
BRANCH  15  17
HETATM   17  O   UNL     1     -41.220  59.570 -54.502  1.00  0.00    -0.322 OA
HETATM   18  C   UNL     1     -40.842  59.091 -53.212  1.00  0.00     0.213 C 
ENDBRANCH  15  17
ENDBRANCH   8  15
ENDBRANCH   1   3
BRANCH   1  19
HETATM   19  C   UNL     1     -45.031  60.097 -52.959  1.00  0.00     0.170 C 
HETATM   20  S   UNL     1     -45.846  61.092 -51.876  1.00  0.00    -0.045 SA
BRANCH  19  21
HETATM   21  N   UNL     1     -45.249  58.749 -53.105  1.00  0.00    -0.278 N 
HETATM   22  H   UNL     1     -45.739  58.483 -53.967  1.00  0.00     0.189 HD
BRANCH  21  23
HETATM   23  N   UNL     1     -44.266  57.825 -52.705  1.00  0.00    -0.266 N 
HETATM   24  C   UNL     1     -44.398  57.176 -51.492  1.00  0.00     0.260 C 
HETATM   25  O   UNL     1     -45.223  57.483 -50.634  1.00  0.00    -0.269 OA
HETATM   26  H   UNL     1     -43.707  57.395 -53.441  1.00  0.00     0.190 HD
BRANCH  24  27
HETATM   27  C   UNL     1     -43.425  56.013 -51.304  1.00  0.00     0.280 C 
BRANCH  27  28
HETATM   28  O   UNL     1     -42.386  56.056 -52.278  1.00  0.00    -0.340 OA
BRANCH  28  29
HETATM   29  C   UNL     1     -41.779  54.875 -52.611  1.00  0.00     0.091 A 
HETATM   30  C   UNL     1     -42.251  54.223 -53.765  1.00  0.00     0.068 A 
HETATM   31 CL   UNL     1     -43.523  54.906 -54.718  1.00  0.00    -0.081 Cl
HETATM   32  C   UNL     1     -41.699  53.010 -54.181  1.00  0.00     0.046 A 
HETATM   33  C   UNL     1     -40.673  52.436 -53.437  1.00  0.00     0.012 A 
HETATM   34 BR   UNL     1     -39.917  50.794 -53.988  1.00  0.00    -0.051 Br
HETATM   35  C   UNL     1     -40.200  53.062 -52.285  1.00  0.00     0.022 A 
HETATM   36  C   UNL     1     -40.754  54.279 -51.871  1.00  0.00     0.040 A 
ENDBRANCH  28  29
ENDBRANCH  27  28
ENDBRANCH  24  27
ENDBRANCH  21  23
ENDBRANCH  19  21
ENDBRANCH   1  19
TORSDOF 10
ENDMDL
MODEL 4
REMARK VINA RESULT:      -6.9      2.169      3.016
REMARK  10 active torsions:
REMARK  status: ('A' for Active; 'I' for Inactive)
REMARK    1  A    between atoms: C_4  and  N_5 
REMARK    2  A    between atoms: N_5  and  C_6 
REMARK    3  A    between atoms: C_6  and  N_7 
REMARK    4  A    between atoms: N_7  and  N_8 
REMARK       I    between atoms: N_8  and  C_9 
REMARK    5  A    between atoms: C_9  and  C_10 
REMARK    6  A    between atoms: C_10  and  O_11 
REMARK    7  A    between atoms: O_11  and  C_12 
REMARK    8  A    between atoms: C_22  and  C_23 
REMARK    9  A    between atoms: C_23  and  O_24 
REMARK   10  A    between atoms: C_27  and  C_28 
ROOT
HETATM    1  N   UNL     1     -45.101  59.262 -52.619  1.00  0.00    -0.228 NA
HETATM    2  H   UNL     1     -45.812  58.554 -52.458  1.00  0.00     0.136 HD
ENDROOT
BRANCH   1   3
HETATM    3  C   UNL     1     -44.714  59.315 -53.951  1.00  0.00     0.073 C 
HETATM    4  S   UNL     1     -45.350  60.693 -54.722  1.00  0.00    -0.081 SA
HETATM    5  C   UNL     1     -44.823  60.162 -56.256  1.00  0.00    -0.007 C 
HETATM    6  C   UNL     1     -45.222  60.940 -57.470  1.00  0.00     0.057 C 
HETATM    7  C   UNL     1     -44.042  59.018 -56.153  1.00  0.00     0.005 C 
HETATM    8  C   UNL     1     -43.887  58.571 -54.775  1.00  0.00     0.080 C 
BRANCH   7   9
HETATM    9  C   UNL     1     -43.524  58.362 -57.351  1.00  0.00    -0.024 A 
HETATM   10  C   UNL     1     -44.271  57.339 -57.952  1.00  0.00     0.012 A 
HETATM   11  C   UNL     1     -43.796  56.706 -59.101  1.00  0.00     0.001 A 
HETATM   12  C   UNL     1     -42.579  57.094 -59.658  1.00  0.00     0.000 A 
HETATM   13  C   UNL     1     -41.831  58.110 -59.064  1.00  0.00     0.001 A 
HETATM   14  C   UNL     1     -42.299  58.742 -57.910  1.00  0.00     0.012 A 
ENDBRANCH   7   9
BRANCH   8  15
HETATM   15  C   UNL     1     -42.984  57.520 -54.305  1.00  0.00     0.296 C 
HETATM   16  O   UNL     1     -41.772  57.535 -54.487  1.00  0.00    -0.259 OA
BRANCH  15  17
HETATM   17  O   UNL     1     -43.636  56.493 -53.686  1.00  0.00    -0.322 OA
HETATM   18  C   UNL     1     -43.856  55.348 -54.509  1.00  0.00     0.213 C 
ENDBRANCH  15  17
ENDBRANCH   8  15
ENDBRANCH   1   3
BRANCH   1  19
HETATM   19  C   UNL     1     -44.170  59.185 -51.605  1.00  0.00     0.170 C 
HETATM   20  S   UNL     1     -43.396  60.612 -51.166  1.00  0.00    -0.045 SA
BRANCH  19  21
HETATM   21  N   UNL     1     -44.001  57.975 -50.980  1.00  0.00    -0.278 N 
HETATM   22  H   UNL     1     -44.727  57.278 -51.187  1.00  0.00     0.189 HD
BRANCH  21  23
HETATM   23  N   UNL     1     -42.714  57.424 -50.837  1.00  0.00    -0.266 N 
HETATM   24  C   UNL     1     -42.569  56.053 -50.748  1.00  0.00     0.260 C 
HETATM   25  O   UNL     1     -43.505  55.270 -50.594  1.00  0.00    -0.269 OA
HETATM   26  H   UNL     1     -41.930  57.987 -51.163  1.00  0.00     0.190 HD
BRANCH  24  27
HETATM   27  C   UNL     1     -41.123  55.575 -50.872  1.00  0.00     0.280 C 
BRANCH  27  28
HETATM   28  O   UNL     1     -40.832  55.174 -52.208  1.00  0.00    -0.340 OA
BRANCH  28  29
HETATM   29  C   UNL     1     -40.477  53.869 -52.416  1.00  0.00     0.091 A 
HETATM   30  C   UNL     1     -40.328  53.458 -53.753  1.00  0.00     0.068 A 
HETATM   31 CL   UNL     1     -40.565  54.568 -55.059  1.00  0.00    -0.081 Cl
HETATM   32  C   UNL     1     -39.976  52.144 -54.066  1.00  0.00     0.046 A 
HETATM   33  C   UNL     1     -39.776  51.228 -53.039  1.00  0.00     0.012 A 
HETATM   34 BR   UNL     1     -39.298  49.446 -53.447  1.00  0.00    -0.051 Br
HETATM   35  C   UNL     1     -39.929  51.614 -51.708  1.00  0.00     0.022 A 
HETATM   36  C   UNL     1     -40.281  52.932 -51.397  1.00  0.00     0.040 A 
ENDBRANCH  28  29
ENDBRANCH  27  28
ENDBRANCH  24  27
ENDBRANCH  21  23
ENDBRANCH  19  21
ENDBRANCH   1  19
TORSDOF 10
ENDMDL
MODEL 5
REMARK VINA RESULT:      -6.7      6.522      8.653
REMARK  10 active torsions:
REMARK  status: ('A' for Active; 'I' for Inactive)
REMARK    1  A    between atoms: C_4  and  N_5 
REMARK    2  A    between atoms: N_5  and  C_6 
REMARK    3  A    between atoms: C_6  and  N_7 
REMARK    4  A    between atoms: N_7  and  N_8 
REMARK       I    between atoms: N_8  and  C_9 
REMARK    5  A    between atoms: C_9  and  C_10 
REMARK    6  A    between atoms: C_10  and  O_11 
REMARK    7  A    between atoms: O_11  and  C_12 
REMARK    8  A    between atoms: C_22  and  C_23 
REMARK    9  A    between atoms: C_23  and  O_24 
REMARK   10  A    between atoms: C_27  and  C_28 
ROOT
HETATM    1  N   UNL     1     -44.692  58.914 -52.380  1.00  0.00    -0.228 NA
HETATM    2  H   UNL     1     -45.365  58.427 -51.794  1.00  0.00     0.136 HD
ENDROOT
BRANCH   1   3
HETATM    3  C   UNL     1     -43.951  58.035 -53.158  1.00  0.00     0.073 C 
HETATM    4  S   UNL     1     -44.321  58.214 -54.810  1.00  0.00    -0.081 SA
HETATM    5  C   UNL     1     -43.400  56.841 -55.235  1.00  0.00    -0.007 C 
HETATM    6  C   UNL     1     -43.432  56.356 -56.650  1.00  0.00     0.057 C 
HETATM    7  C   UNL     1     -42.702  56.344 -54.143  1.00  0.00     0.005 C 
HETATM    8  C   UNL     1     -42.944  57.114 -52.929  1.00  0.00     0.080 C 
BRANCH   7   9
HETATM    9  C   UNL     1     -41.886  55.139 -54.268  1.00  0.00    -0.024 A 
HETATM   10  C   UNL     1     -40.662  55.206 -54.948  1.00  0.00     0.012 A 
HETATM   11  C   UNL     1     -39.865  54.067 -55.071  1.00  0.00     0.001 A 
HETATM   12  C   UNL     1     -40.282  52.860 -54.513  1.00  0.00     0.000 A 
HETATM   13  C   UNL     1     -41.500  52.788 -53.836  1.00  0.00     0.001 A 
HETATM   14  C   UNL     1     -42.304  53.923 -53.716  1.00  0.00     0.012 A 
ENDBRANCH   7   9
BRANCH   8  15
HETATM   15  C   UNL     1     -42.228  56.973 -51.661  1.00  0.00     0.296 C 
HETATM   16  O   UNL     1     -42.649  56.322 -50.712  1.00  0.00    -0.259 OA
BRANCH  15  17
HETATM   17  O   UNL     1     -41.063  57.684 -51.623  1.00  0.00    -0.322 OA
HETATM   18  C   UNL     1     -40.803  58.330 -50.378  1.00  0.00     0.213 C 
ENDBRANCH  15  17
ENDBRANCH   8  15
ENDBRANCH   1   3
BRANCH   1  19
HETATM   19  C   UNL     1     -44.082  59.892 -51.625  1.00  0.00     0.170 C 
HETATM   20  S   UNL     1     -43.416  61.196 -52.453  1.00  0.00    -0.045 SA
BRANCH  19  21
HETATM   21  N   UNL     1     -44.130  59.770 -50.258  1.00  0.00    -0.278 N 
HETATM   22  H   UNL     1     -43.224  59.872 -49.785  1.00  0.00     0.189 HD
BRANCH  21  23
HETATM   23  N   UNL     1     -45.208  60.311 -49.535  1.00  0.00    -0.266 N 
HETATM   24  C   UNL     1     -45.122  61.603 -49.051  1.00  0.00     0.260 C 
HETATM   25  O   UNL     1     -44.086  62.266 -49.042  1.00  0.00    -0.269 OA
HETATM   26  H   UNL     1     -46.128  59.901 -49.696  1.00  0.00     0.190 HD
BRANCH  24  27
HETATM   27  C   UNL     1     -46.446  62.158 -48.529  1.00  0.00     0.280 C 
BRANCH  27  28
HETATM   28  O   UNL     1     -46.790  61.565 -47.280  1.00  0.00    -0.340 OA
BRANCH  28  29
HETATM   29  C   UNL     1     -45.981  61.830 -46.208  1.00  0.00     0.091 A 
HETATM   30  C   UNL     1     -46.087  63.110 -45.634  1.00  0.00     0.068 A 
HETATM   31 CL   UNL     1     -47.209  64.274 -46.253  1.00  0.00    -0.081 Cl
HETATM   32  C   UNL     1     -45.299  63.475 -44.542  1.00  0.00     0.046 A 
HETATM   33  C   UNL     1     -44.390  62.561 -44.020  1.00  0.00     0.012 A 
HETATM   34 BR   UNL     1     -43.316  63.043 -42.541  1.00  0.00    -0.051 Br
HETATM   35  C   UNL     1     -44.262  61.292 -44.582  1.00  0.00     0.022 A 
HETATM   36  C   UNL     1     -45.055  60.927 -45.676  1.00  0.00     0.040 A 
ENDBRANCH  28  29
ENDBRANCH  27  28
ENDBRANCH  24  27
ENDBRANCH  21  23
ENDBRANCH  19  21
ENDBRANCH   1  19
TORSDOF 10
ENDMDL
MODEL 6
REMARK VINA RESULT:      -6.7      2.827      4.714
REMARK  10 active torsions:
REMARK  status: ('A' for Active; 'I' for Inactive)
REMARK    1  A    between atoms: C_4  and  N_5 
REMARK    2  A    between atoms: N_5  and  C_6 
REMARK    3  A    between atoms: C_6  and  N_7 
REMARK    4  A    between atoms: N_7  and  N_8 
REMARK       I    between atoms: N_8  and  C_9 
REMARK    5  A    between atoms: C_9  and  C_10 
REMARK    6  A    between atoms: C_10  and  O_11 
REMARK    7  A    between atoms: O_11  and  C_12 
REMARK    8  A    between atoms: C_22  and  C_23 
REMARK    9  A    between atoms: C_23  and  O_24 
REMARK   10  A    between atoms: C_27  and  C_28 
ROOT
HETATM    1  N   UNL     1     -42.505  61.247 -54.516  1.00  0.00    -0.228 NA
HETATM    2  H   UNL     1     -42.503  61.859 -55.328  1.00  0.00     0.136 HD
ENDROOT
BRANCH   1   3
HETATM    3  C   UNL     1     -42.269  59.924 -54.863  1.00  0.00     0.073 C 
HETATM    4  S   UNL     1     -42.744  59.616 -56.468  1.00  0.00    -0.081 SA
HETATM    5  C   UNL     1     -42.494  57.937 -56.292  1.00  0.00    -0.007 C 
HETATM    6  C   UNL     1     -42.889  57.023 -57.409  1.00  0.00     0.057 C 
HETATM    7  C   UNL     1     -41.914  57.640 -55.067  1.00  0.00     0.005 C 
HETATM    8  C   UNL     1     -41.682  58.829 -54.256  1.00  0.00     0.080 C 
BRANCH   7   9
HETATM    9  C   UNL     1     -41.656  56.254 -54.683  1.00  0.00    -0.024 A 
HETATM   10  C   UNL     1     -42.715  55.460 -54.222  1.00  0.00     0.012 A 
HETATM   11  C   UNL     1     -42.489  54.131 -53.859  1.00  0.00     0.001 A 
HETATM   12  C   UNL     1     -41.209  53.589 -53.960  1.00  0.00     0.000 A 
HETATM   13  C   UNL     1     -40.151  54.375 -54.417  1.00  0.00     0.001 A 
HETATM   14  C   UNL     1     -40.371  55.707 -54.775  1.00  0.00     0.012 A 
ENDBRANCH   7   9
BRANCH   8  15
HETATM   15  C   UNL     1     -40.925  58.886 -53.006  1.00  0.00     0.296 C 
HETATM   16  O   UNL     1     -39.769  58.495 -52.893  1.00  0.00    -0.259 OA
BRANCH  15  17
HETATM   17  O   UNL     1     -41.655  59.374 -51.961  1.00  0.00    -0.322 OA
HETATM   18  C   UNL     1     -40.887  60.049 -50.965  1.00  0.00     0.213 C 
ENDBRANCH  15  17
ENDBRANCH   8  15
ENDBRANCH   1   3
BRANCH   1  19
HETATM   19  C   UNL     1     -43.565  61.599 -53.707  1.00  0.00     0.170 C 
HETATM   20  S   UNL     1     -43.548  63.148 -53.053  1.00  0.00    -0.045 SA
BRANCH  19  21
HETATM   21  N   UNL     1     -44.585  60.693 -53.557  1.00  0.00    -0.278 N 
HETATM   22  H   UNL     1     -44.754  60.095 -54.375  1.00  0.00     0.189 HD
BRANCH  21  23
HETATM   23  N   UNL     1     -44.774  60.034 -52.328  1.00  0.00    -0.266 N 
HETATM   24  C   UNL     1     -44.879  58.657 -52.305  1.00  0.00     0.260 C 
HETATM   25  O   UNL     1     -45.008  57.960 -53.310  1.00  0.00    -0.269 OA
HETATM   26  H   UNL     1     -44.469  60.524 -51.487  1.00  0.00     0.190 HD
BRANCH  24  27
HETATM   27  C   UNL     1     -44.806  58.054 -50.903  1.00  0.00     0.280 C 
BRANCH  27  28
HETATM   28  O   UNL     1     -44.671  56.637 -50.964  1.00  0.00    -0.340 OA
BRANCH  28  29
HETATM   29  C   UNL     1     -43.431  56.107 -50.724  1.00  0.00     0.091 A 
HETATM   30  C   UNL     1     -43.363  54.714 -50.537  1.00  0.00     0.068 A 
HETATM   31 CL   UNL     1     -44.784  53.731 -50.633  1.00  0.00    -0.081 Cl
HETATM   32  C   UNL     1     -42.145  54.083 -50.280  1.00  0.00     0.046 A 
HETATM   33  C   UNL     1     -40.985  54.846 -50.200  1.00  0.00     0.012 A 
HETATM   34 BR   UNL     1     -39.329  54.004 -49.852  1.00  0.00    -0.051 Br
HETATM   35  C   UNL     1     -41.034  56.228 -50.371  1.00  0.00     0.022 A 
HETATM   36  C   UNL     1     -42.256  56.859 -50.631  1.00  0.00     0.040 A 
ENDBRANCH  28  29
ENDBRANCH  27  28
ENDBRANCH  24  27
ENDBRANCH  21  23
ENDBRANCH  19  21
ENDBRANCH   1  19
TORSDOF 10
ENDMDL
MODEL 7
REMARK VINA RESULT:      -6.7      3.517      7.237
REMARK  10 active torsions:
REMARK  status: ('A' for Active; 'I' for Inactive)
REMARK    1  A    between atoms: C_4  and  N_5 
REMARK    2  A    between atoms: N_5  and  C_6 
REMARK    3  A    between atoms: C_6  and  N_7 
REMARK    4  A    between atoms: N_7  and  N_8 
REMARK       I    between atoms: N_8  and  C_9 
REMARK    5  A    between atoms: C_9  and  C_10 
REMARK    6  A    between atoms: C_10  and  O_11 
REMARK    7  A    between atoms: O_11  and  C_12 
REMARK    8  A    between atoms: C_22  and  C_23 
REMARK    9  A    between atoms: C_23  and  O_24 
REMARK   10  A    between atoms: C_27  and  C_28 
ROOT
HETATM    1  N   UNL     1     -44.051  60.912 -51.821  1.00  0.00    -0.228 NA
HETATM    2  H   UNL     1     -43.926  61.722 -51.218  1.00  0.00     0.136 HD
ENDROOT
BRANCH   1   3
HETATM    3  C   UNL     1     -43.212  59.866 -51.463  1.00  0.00     0.073 C 
HETATM    4  S   UNL     1     -41.747  60.446 -50.817  1.00  0.00    -0.081 SA
HETATM    5  C   UNL     1     -41.060  58.884 -50.793  1.00  0.00    -0.007 C 
HETATM    6  C   UNL     1     -39.620  58.730 -50.418  1.00  0.00     0.057 C 
HETATM    7  C   UNL     1     -41.995  57.916 -51.136  1.00  0.00     0.005 C 
HETATM    8  C   UNL     1     -43.304  58.486 -51.433  1.00  0.00     0.080 C 
BRANCH   7   9
HETATM    9  C   UNL     1     -41.610  56.510 -51.227  1.00  0.00    -0.024 A 
HETATM   10  C   UNL     1     -41.321  55.957 -52.482  1.00  0.00     0.012 A 
HETATM   11  C   UNL     1     -40.943  54.618 -52.589  1.00  0.00     0.001 A 
HETATM   12  C   UNL     1     -40.849  53.828 -51.445  1.00  0.00     0.000 A 
HETATM   13  C   UNL     1     -41.137  54.372 -50.193  1.00  0.00     0.001 A 
HETATM   14  C   UNL     1     -41.522  55.710 -50.083  1.00  0.00     0.012 A 
ENDBRANCH   7   9
BRANCH   8  15
HETATM   15  C   UNL     1     -44.543  57.737 -51.643  1.00  0.00     0.296 C 
HETATM   16  O   UNL     1     -45.021  56.969 -50.816  1.00  0.00    -0.259 OA
BRANCH  15  17
HETATM   17  O   UNL     1     -45.088  57.942 -52.877  1.00  0.00    -0.322 OA
HETATM   18  C   UNL     1     -44.561  57.105 -53.906  1.00  0.00     0.213 C 
ENDBRANCH  15  17
ENDBRANCH   8  15
ENDBRANCH   1   3
BRANCH   1  19
HETATM   19  C   UNL     1     -44.136  61.349 -53.126  1.00  0.00     0.170 C 
HETATM   20  S   UNL     1     -45.673  61.447 -53.802  1.00  0.00    -0.045 SA
BRANCH  19  21
HETATM   21  N   UNL     1     -42.977  61.740 -53.749  1.00  0.00    -0.278 N 
HETATM   22  H   UNL     1     -42.117  61.526 -53.230  1.00  0.00     0.189 HD
BRANCH  21  23
HETATM   23  N   UNL     1     -42.843  61.612 -55.143  1.00  0.00    -0.266 N 
HETATM   24  C   UNL     1     -42.193  60.510 -55.665  1.00  0.00     0.260 C 
HETATM   25  O   UNL     1     -41.547  59.709 -54.990  1.00  0.00    -0.269 OA
HETATM   26  H   UNL     1     -43.517  62.111 -55.723  1.00  0.00     0.190 HD
BRANCH  24  27
HETATM   27  C   UNL     1     -42.354  60.354 -57.176  1.00  0.00     0.280 C 
BRANCH  27  28
HETATM   28  O   UNL     1     -41.576  59.263 -57.661  1.00  0.00    -0.340 OA
BRANCH  28  29
HETATM   29  C   UNL     1     -42.245  58.153 -58.104  1.00  0.00     0.091 A 
HETATM   30  C   UNL     1     -42.500  58.077 -59.486  1.00  0.00     0.068 A 
HETATM   31 CL   UNL     1     -41.966  59.323 -60.561  1.00  0.00    -0.081 Cl
HETATM   32  C   UNL     1     -43.182  56.989 -60.031  1.00  0.00     0.046 A 
HETATM   33  C   UNL     1     -43.622  55.969 -59.193  1.00  0.00     0.012 A 
HETATM   34 BR   UNL     1     -44.546  54.489 -59.918  1.00  0.00    -0.051 Br
HETATM   35  C   UNL     1     -43.388  56.033 -57.821  1.00  0.00     0.022 A 
HETATM   36  C   UNL     1     -42.703  57.125 -57.276  1.00  0.00     0.040 A 
ENDBRANCH  28  29
ENDBRANCH  27  28
ENDBRANCH  24  27
ENDBRANCH  21  23
ENDBRANCH  19  21
ENDBRANCH   1  19
TORSDOF 10
ENDMDL
MODEL 8
REMARK VINA RESULT:      -6.5      3.612      7.950
REMARK  10 active torsions:
REMARK  status: ('A' for Active; 'I' for Inactive)
REMARK    1  A    between atoms: C_4  and  N_5 
REMARK    2  A    between atoms: N_5  and  C_6 
REMARK    3  A    between atoms: C_6  and  N_7 
REMARK    4  A    between atoms: N_7  and  N_8 
REMARK       I    between atoms: N_8  and  C_9 
REMARK    5  A    between atoms: C_9  and  C_10 
REMARK    6  A    between atoms: C_10  and  O_11 
REMARK    7  A    between atoms: O_11  and  C_12 
REMARK    8  A    between atoms: C_22  and  C_23 
REMARK    9  A    between atoms: C_23  and  O_24 
REMARK   10  A    between atoms: C_27  and  C_28 
ROOT
HETATM    1  N   UNL     1     -43.224  58.726 -52.229  1.00  0.00    -0.228 NA
HETATM    2  H   UNL     1     -42.479  59.197 -51.724  1.00  0.00     0.136 HD
ENDROOT
BRANCH   1   3
HETATM    3  C   UNL     1     -43.044  57.349 -52.254  1.00  0.00     0.073 C 
HETATM    4  S   UNL     1     -44.183  56.563 -51.263  1.00  0.00    -0.081 SA
HETATM    5  C   UNL     1     -43.405  55.055 -51.450  1.00  0.00    -0.007 C 
HETATM    6  C   UNL     1     -43.890  53.884 -50.654  1.00  0.00     0.057 C 
HETATM    7  C   UNL     1     -42.375  55.130 -52.377  1.00  0.00     0.005 C 
HETATM    8  C   UNL     1     -42.225  56.468 -52.936  1.00  0.00     0.080 C 
BRANCH   7   9
HETATM    9  C   UNL     1     -41.540  53.965 -52.657  1.00  0.00    -0.024 A 
HETATM   10  C   UNL     1     -40.630  53.522 -51.688  1.00  0.00     0.012 A 
HETATM   11  C   UNL     1     -39.830  52.406 -51.934  1.00  0.00     0.001 A 
HETATM   12  C   UNL     1     -39.938  51.724 -53.145  1.00  0.00     0.000 A 
HETATM   13  C   UNL     1     -40.841  52.161 -54.114  1.00  0.00     0.001 A 
HETATM   14  C   UNL     1     -41.639  53.281 -53.874  1.00  0.00     0.012 A 
ENDBRANCH   7   9
BRANCH   8  15
HETATM   15  C   UNL     1     -41.368  56.842 -54.062  1.00  0.00     0.296 C 
HETATM   16  O   UNL     1     -40.149  56.943 -53.983  1.00  0.00    -0.259 OA
BRANCH  15  17
HETATM   17  O   UNL     1     -42.069  57.116 -55.200  1.00  0.00    -0.322 OA
HETATM   18  C   UNL     1     -42.305  55.986 -56.039  1.00  0.00     0.213 C 
ENDBRANCH  15  17
ENDBRANCH   8  15
ENDBRANCH   1   3
BRANCH   1  19
HETATM   19  C   UNL     1     -43.488  59.435 -53.381  1.00  0.00     0.170 C 
HETATM   20  S   UNL     1     -42.423  60.673 -53.779  1.00  0.00    -0.045 SA
BRANCH  19  21
HETATM   21  N   UNL     1     -44.550  59.033 -54.152  1.00  0.00    -0.278 N 
HETATM   22  H   UNL     1     -45.425  59.544 -53.980  1.00  0.00     0.189 HD
BRANCH  21  23
HETATM   23  N   UNL     1     -44.356  58.686 -55.502  1.00  0.00    -0.266 N 
HETATM   24  C   UNL     1     -44.659  59.602 -56.490  1.00  0.00     0.260 C 
HETATM   25  O   UNL     1     -45.272  60.650 -56.291  1.00  0.00    -0.269 OA
HETATM   26  H   UNL     1     -43.679  57.949 -55.698  1.00  0.00     0.190 HD
BRANCH  24  27
HETATM   27  C   UNL     1     -44.151  59.209 -57.876  1.00  0.00     0.280 C 
BRANCH  27  28
HETATM   28  O   UNL     1     -44.517  57.868 -58.190  1.00  0.00    -0.340 OA
BRANCH  28  29
HETATM   29  C   UNL     1     -45.490  57.680 -59.135  1.00  0.00     0.091 A 
HETATM   30  C   UNL     1     -45.497  56.441 -59.801  1.00  0.00     0.068 A 
HETATM   31 CL   UNL     1     -44.337  55.215 -59.415  1.00  0.00    -0.081 Cl
HETATM   32  C   UNL     1     -46.445  56.159 -60.785  1.00  0.00     0.046 A 
HETATM   33  C   UNL     1     -47.392  57.123 -61.116  1.00  0.00     0.012 A 
HETATM   34 BR   UNL     1     -48.683  56.755 -62.447  1.00  0.00    -0.051 Br
HETATM   35  C   UNL     1     -47.395  58.360 -60.475  1.00  0.00     0.022 A 
HETATM   36  C   UNL     1     -46.443  58.640 -59.488  1.00  0.00     0.040 A 
ENDBRANCH  28  29
ENDBRANCH  27  28
ENDBRANCH  24  27
ENDBRANCH  21  23
ENDBRANCH  19  21
ENDBRANCH   1  19
TORSDOF 10
ENDMDL
MODEL 9
REMARK VINA RESULT:      -6.5      3.507      7.130
REMARK  10 active torsions:
REMARK  status: ('A' for Active; 'I' for Inactive)
REMARK    1  A    between atoms: C_4  and  N_5 
REMARK    2  A    between atoms: N_5  and  C_6 
REMARK    3  A    between atoms: C_6  and  N_7 
REMARK    4  A    between atoms: N_7  and  N_8 
REMARK       I    between atoms: N_8  and  C_9 
REMARK    5  A    between atoms: C_9  and  C_10 
REMARK    6  A    between atoms: C_10  and  O_11 
REMARK    7  A    between atoms: O_11  and  C_12 
REMARK    8  A    between atoms: C_22  and  C_23 
REMARK    9  A    between atoms: C_23  and  O_24 
REMARK   10  A    between atoms: C_27  and  C_28 
ROOT
HETATM    1  N   UNL     1     -42.417  60.509 -53.193  1.00  0.00    -0.228 NA
HETATM    2  H   UNL     1     -41.574  61.060 -53.053  1.00  0.00     0.136 HD
ENDROOT
BRANCH   1   3
HETATM    3  C   UNL     1     -42.190  59.154 -52.990  1.00  0.00     0.073 C 
HETATM    4  S   UNL     1     -41.897  58.821 -51.347  1.00  0.00    -0.081 SA
HETATM    5  C   UNL     1     -41.466  57.204 -51.682  1.00  0.00    -0.007 C 
HETATM    6  C   UNL     1     -40.940  56.348 -50.573  1.00  0.00     0.057 C 
HETATM    7  C   UNL     1     -41.688  56.888 -53.015  1.00  0.00     0.005 C 
HETATM    8  C   UNL     1     -42.218  58.015 -53.774  1.00  0.00     0.080 C 
BRANCH   7   9
HETATM    9  C   UNL     1     -41.342  55.568 -53.535  1.00  0.00    -0.024 A 
HETATM   10  C   UNL     1     -42.008  54.438 -53.039  1.00  0.00     0.012 A 
HETATM   11  C   UNL     1     -41.697  53.169 -53.529  1.00  0.00     0.001 A 
HETATM   12  C   UNL     1     -40.724  53.022 -54.517  1.00  0.00     0.000 A 
HETATM   13  C   UNL     1     -40.057  54.143 -55.013  1.00  0.00     0.001 A 
HETATM   14  C   UNL     1     -40.361  55.414 -54.521  1.00  0.00     0.012 A 
ENDBRANCH   7   9
BRANCH   8  15
HETATM   15  C   UNL     1     -42.731  57.968 -55.143  1.00  0.00     0.296 C 
HETATM   16  O   UNL     1     -42.047  58.205 -56.133  1.00  0.00    -0.259 OA
BRANCH  15  17
HETATM   17  O   UNL     1     -44.064  57.683 -55.205  1.00  0.00    -0.322 OA
HETATM   18  C   UNL     1     -44.679  57.991 -56.455  1.00  0.00     0.213 C 
ENDBRANCH  15  17
ENDBRANCH   8  15
ENDBRANCH   1   3
BRANCH   1  19
HETATM   19  C   UNL     1     -43.055  60.967 -54.326  1.00  0.00     0.170 C 
HETATM   20  S   UNL     1     -44.721  61.172 -54.237  1.00  0.00    -0.045 SA
BRANCH  19  21
HETATM   21  N   UNL     1     -42.279  61.292 -55.411  1.00  0.00    -0.278 N 
HETATM   22  H   UNL     1     -41.348  60.859 -55.420  1.00  0.00     0.189 HD
BRANCH  21  23
HETATM   23  N   UNL     1     -42.859  61.410 -56.688  1.00  0.00    -0.266 N 
HETATM   24  C   UNL     1     -42.091  61.160 -57.809  1.00  0.00     0.260 C 
HETATM   25  O   UNL     1     -40.869  61.022 -57.788  1.00  0.00    -0.269 OA
HETATM   26  H   UNL     1     -43.872  61.313 -56.748  1.00  0.00     0.190 HD
BRANCH  24  27
HETATM   27  C   UNL     1     -42.898  61.056 -59.102  1.00  0.00     0.280 C 
BRANCH  27  28
HETATM   28  O   UNL     1     -42.306  60.117 -59.996  1.00  0.00    -0.340 OA
BRANCH  28  29
HETATM   29  C   UNL     1     -42.763  58.827 -59.957  1.00  0.00     0.091 A 
HETATM   30  C   UNL     1     -44.091  58.613 -60.370  1.00  0.00     0.068 A 
HETATM   31 CL   UNL     1     -45.077  59.924 -60.920  1.00  0.00    -0.081 Cl
HETATM   32  C   UNL     1     -44.648  57.333 -60.358  1.00  0.00     0.046 A 
HETATM   33  C   UNL     1     -43.880  56.258 -59.924  1.00  0.00     0.012 A 
HETATM   34 BR   UNL     1     -44.623  54.520 -59.903  1.00  0.00    -0.051 Br
HETATM   35  C   UNL     1     -42.567  56.453 -59.501  1.00  0.00     0.022 A 
HETATM   36  C   UNL     1     -42.009  57.736 -59.515  1.00  0.00     0.040 A 
ENDBRANCH  28  29
ENDBRANCH  27  28
ENDBRANCH  24  27
ENDBRANCH  21  23
ENDBRANCH  19  21
ENDBRANCH   1  19
TORSDOF 10
ENDMDL
MODEL 10
REMARK VINA RESULT:      -6.5      2.866      5.523
REMARK  10 active torsions:
REMARK  status: ('A' for Active; 'I' for Inactive)
REMARK    1  A    between atoms: C_4  and  N_5 
REMARK    2  A    between atoms: N_5  and  C_6 
REMARK    3  A    between atoms: C_6  and  N_7 
REMARK    4  A    between atoms: N_7  and  N_8 
REMARK       I    between atoms: N_8  and  C_9 
REMARK    5  A    between atoms: C_9  and  C_10 
REMARK    6  A    between atoms: C_10  and  O_11 
REMARK    7  A    between atoms: O_11  and  C_12 
REMARK    8  A    between atoms: C_22  and  C_23 
REMARK    9  A    between atoms: C_23  and  O_24 
REMARK   10  A    between atoms: C_27  and  C_28 
ROOT
HETATM    1  N   UNL     1     -42.439  58.496 -56.884  1.00  0.00    -0.228 NA
HETATM    2  H   UNL     1     -41.613  57.973 -56.605  1.00  0.00     0.136 HD
ENDROOT
BRANCH   1   3
HETATM    3  C   UNL     1     -42.914  59.300 -55.857  1.00  0.00     0.073 C 
HETATM    4  S   UNL     1     -43.094  60.913 -56.373  1.00  0.00    -0.081 SA
HETATM    5  C   UNL     1     -43.426  61.454 -54.788  1.00  0.00    -0.007 C 
HETATM    6  C   UNL     1     -43.559  62.922 -54.536  1.00  0.00     0.057 C 
HETATM    7  C   UNL     1     -43.542  60.389 -53.905  1.00  0.00     0.005 C 
HETATM    8  C   UNL     1     -43.343  59.100 -54.557  1.00  0.00     0.080 C 
BRANCH   7   9
HETATM    9  C   UNL     1     -43.777  60.624 -52.483  1.00  0.00    -0.024 A 
HETATM   10  C   UNL     1     -42.681  60.785 -51.624  1.00  0.00     0.012 A 
HETATM   11  C   UNL     1     -42.886  61.020 -50.263  1.00  0.00     0.001 A 
HETATM   12  C   UNL     1     -44.182  61.099 -49.756  1.00  0.00     0.000 A 
HETATM   13  C   UNL     1     -45.276  60.938 -50.607  1.00  0.00     0.001 A 
HETATM   14  C   UNL     1     -45.076  60.697 -51.968  1.00  0.00     0.012 A 
ENDBRANCH   7   9
BRANCH   8  15
HETATM   15  C   UNL     1     -43.580  57.786 -53.960  1.00  0.00     0.296 C 
HETATM   16  O   UNL     1     -44.478  57.031 -54.314  1.00  0.00    -0.259 OA
BRANCH  15  17
HETATM   17  O   UNL     1     -42.728  57.505 -52.932  1.00  0.00    -0.322 OA
HETATM   18  C   UNL     1     -41.354  57.417 -53.306  1.00  0.00     0.213 C 
ENDBRANCH  15  17
ENDBRANCH   8  15
ENDBRANCH   1   3
BRANCH   1  19
HETATM   19  C   UNL     1     -43.277  57.651 -57.579  1.00  0.00     0.170 C 
HETATM   20  S   UNL     1     -44.143  58.313 -58.859  1.00  0.00    -0.045 SA
BRANCH  19  21
HETATM   21  N   UNL     1     -43.286  56.324 -57.227  1.00  0.00    -0.278 N 
HETATM   22  H   UNL     1     -43.579  55.682 -57.974  1.00  0.00     0.189 HD
BRANCH  21  23
HETATM   23  N   UNL     1     -42.274  55.803 -56.400  1.00  0.00    -0.266 N 
HETATM   24  C   UNL     1     -42.496  54.623 -55.716  1.00  0.00     0.260 C 
HETATM   25  O   UNL     1     -43.595  54.077 -55.625  1.00  0.00    -0.269 OA
HETATM   26  H   UNL     1     -41.316  56.087 -56.603  1.00  0.00     0.190 HD
BRANCH  24  27
HETATM   27  C   UNL     1     -41.239  54.030 -55.081  1.00  0.00     0.280 C 
BRANCH  27  28
HETATM   28  O   UNL     1     -41.576  53.013 -54.141  1.00  0.00    -0.340 OA
BRANCH  28  29
HETATM   29  C   UNL     1     -41.364  53.279 -52.815  1.00  0.00     0.091 A 
HETATM   30  C   UNL     1     -40.259  52.653 -52.211  1.00  0.00     0.068 A 
HETATM   31 CL   UNL     1     -39.214  51.617 -53.122  1.00  0.00    -0.081 Cl
HETATM   32  C   UNL     1     -39.966  52.857 -50.862  1.00  0.00     0.046 A 
HETATM   33  C   UNL     1     -40.786  53.686 -50.103  1.00  0.00     0.012 A 
HETATM   34 BR   UNL     1     -40.402  53.971 -48.275  1.00  0.00    -0.051 Br
HETATM   35  C   UNL     1     -41.892  54.306 -50.681  1.00  0.00     0.022 A 
HETATM   36  C   UNL     1     -42.183  54.102 -52.035  1.00  0.00     0.040 A 
ENDBRANCH  28  29
ENDBRANCH  27  28
ENDBRANCH  24  27
ENDBRANCH  21  23
ENDBRANCH  19  21
ENDBRANCH   1  19
TORSDOF 10
ENDMDL
