MODEL 1
REMARK VINA RESULT:      -7.9      0.000      0.000
REMARK  6 active torsions:
REMARK  status: ('A' for Active; 'I' for Inactive)
REMARK    1  A    between atoms: C_2  and  C_3 
REMARK    2  A    between atoms: C_2  and  C_18 
REMARK       I    between atoms: C_3  and  N_4 
REMARK    3  A    between atoms: N_4  and  C_5 
REMARK    4  A    between atoms: C_9  and  C_10 
REMARK    5  A    between atoms: C_18  and  C_19 
REMARK    6  A    between atoms: C_22  and  O_23 
ROOT
HETATM    1  C   UNL     1     -42.417  54.970 -55.919  1.00  0.00     0.227 C 
HETATM    2  N   UNL     1     -42.062  55.934 -56.852  1.00  0.00    -0.312 N 
HETATM    3  O   UNL     1     -43.354  54.185 -56.061  1.00  0.00    -0.273 OA
HETATM    4  H   UNL     1     -41.271  56.543 -56.673  1.00  0.00     0.170 HD
ENDROOT
BRANCH   2   5
HETATM    5  C   UNL     1     -42.809  56.159 -57.989  1.00  0.00     0.126 A 
HETATM    6  N   UNL     1     -42.429  55.802 -59.253  1.00  0.00    -0.262 N 
HETATM    7  H   UNL     1     -41.557  55.347 -59.518  1.00  0.00     0.191 HD
HETATM    8  N   UNL     1     -43.348  56.084 -60.191  1.00  0.00    -0.172 NA
HETATM    9  C   UNL     1     -44.360  56.656 -59.516  1.00  0.00     0.092 A 
HETATM   10  C   UNL     1     -44.047  56.736 -58.128  1.00  0.00     0.084 A 
BRANCH   9  11
HETATM   11  C   UNL     1     -45.584  57.085 -60.195  1.00  0.00     0.012 A 
HETATM   12  C   UNL     1     -45.917  58.430 -60.336  1.00  0.00     0.130 A 
HETATM   13  N   UNL     1     -47.047  58.888 -60.935  1.00  0.00    -0.272 NA
HETATM   14  C   UNL     1     -47.892  57.955 -61.423  1.00  0.00     0.116 A 
HETATM   15  C   UNL     1     -47.659  56.593 -61.342  1.00  0.00     0.020 A 
HETATM   16  C   UNL     1     -46.489  56.157 -60.721  1.00  0.00     0.017 A 
ENDBRANCH   9  11
ENDBRANCH   2   5
BRANCH   1  17
HETATM   17  C   UNL     1     -41.513  54.976 -54.691  1.00  0.00     0.078 C 
HETATM   18  C   UNL     1     -41.264  56.420 -54.248  1.00  0.00     0.020 C 
BRANCH  17  19
HETATM   19  C   UNL     1     -40.201  54.228 -54.985  1.00  0.00     0.052 C 
BRANCH  19  20
HETATM   20  C   UNL     1     -40.077  52.953 -54.184  1.00  0.00    -0.057 A 
HETATM   21  C   UNL     1     -40.109  52.999 -52.784  1.00  0.00     0.010 A 
HETATM   22  C   UNL     1     -39.964  51.829 -52.036  1.00  0.00     0.037 A 
HETATM   23  C   UNL     1     -39.785  50.597 -52.668  1.00  0.00     0.068 A 
HETATM   24  C   UNL     1     -39.760  50.545 -54.061  1.00  0.00     0.037 A 
HETATM   25  C   UNL     1     -39.905  51.716 -54.814  1.00  0.00     0.010 A 
BRANCH  23  26
HETATM   26  O   UNL     1     -39.649  49.536 -51.816  1.00  0.00    -0.356 OA
HETATM   27  C   UNL     1     -39.871  49.788 -50.435  1.00  0.00     0.210 C 
ENDBRANCH  23  26
ENDBRANCH  19  20
ENDBRANCH  17  19
ENDBRANCH   1  17
TORSDOF 6
ENDMDL
MODEL 2
REMARK VINA RESULT:      -7.8      2.898      9.555
REMARK  6 active torsions:
REMARK  status: ('A' for Active; 'I' for Inactive)
REMARK    1  A    between atoms: C_2  and  C_3 
REMARK    2  A    between atoms: C_2  and  C_18 
REMARK       I    between atoms: C_3  and  N_4 
REMARK    3  A    between atoms: N_4  and  C_5 
REMARK    4  A    between atoms: C_9  and  C_10 
REMARK    5  A    between atoms: C_18  and  C_19 
REMARK    6  A    between atoms: C_22  and  O_23 
ROOT
HETATM    1  C   UNL     1     -42.785  56.857 -55.836  1.00  0.00     0.227 C 
HETATM    2  N   UNL     1     -41.538  56.248 -55.852  1.00  0.00    -0.312 N 
HETATM    3  O   UNL     1     -43.626  56.684 -54.955  1.00  0.00    -0.273 OA
HETATM    4  H   UNL     1     -40.890  56.443 -56.607  1.00  0.00     0.170 HD
ENDROOT
BRANCH   2   5
HETATM    5  C   UNL     1     -41.175  55.305 -54.914  1.00  0.00     0.126 A 
HETATM    6  N   UNL     1     -41.163  55.515 -53.563  1.00  0.00    -0.262 N 
HETATM    7  H   UNL     1     -41.400  56.381 -53.082  1.00  0.00     0.191 HD
HETATM    8  N   UNL     1     -40.819  54.429 -52.852  1.00  0.00    -0.172 NA
HETATM    9  C   UNL     1     -40.587  53.478 -53.773  1.00  0.00     0.092 A 
HETATM   10  C   UNL     1     -40.785  54.000 -55.085  1.00  0.00     0.084 A 
BRANCH   9  11
HETATM   11  C   UNL     1     -40.210  52.117 -53.388  1.00  0.00     0.012 A 
HETATM   12  C   UNL     1     -39.803  51.803 -52.094  1.00  0.00     0.130 A 
HETATM   13  N   UNL     1     -39.421  50.566 -51.682  1.00  0.00    -0.272 NA
HETATM   14  C   UNL     1     -39.447  49.586 -52.610  1.00  0.00     0.116 A 
HETATM   15  C   UNL     1     -39.839  49.785 -53.923  1.00  0.00     0.020 A 
HETATM   16  C   UNL     1     -40.225  51.067 -54.312  1.00  0.00     0.017 A 
ENDBRANCH   9  11
ENDBRANCH   2   5
BRANCH   1  17
HETATM   17  C   UNL     1     -43.007  57.778 -57.031  1.00  0.00     0.078 C 
HETATM   18  C   UNL     1     -42.112  59.013 -56.897  1.00  0.00     0.020 C 
BRANCH  17  19
HETATM   19  C   UNL     1     -44.495  58.154 -57.151  1.00  0.00     0.052 C 
BRANCH  19  20
HETATM   20  C   UNL     1     -45.137  57.563 -58.385  1.00  0.00    -0.057 A 
HETATM   21  C   UNL     1     -46.436  57.939 -58.748  1.00  0.00     0.010 A 
HETATM   22  C   UNL     1     -47.047  57.374 -59.869  1.00  0.00     0.037 A 
HETATM   23  C   UNL     1     -46.376  56.428 -60.646  1.00  0.00     0.068 A 
HETATM   24  C   UNL     1     -45.079  56.056 -60.293  1.00  0.00     0.037 A 
HETATM   25  C   UNL     1     -44.463  56.620 -59.169  1.00  0.00     0.010 A 
BRANCH  23  26
HETATM   26  O   UNL     1     -47.092  55.953 -61.709  1.00  0.00    -0.356 OA
HETATM   27  C   UNL     1     -48.261  56.678 -62.072  1.00  0.00     0.210 C 
ENDBRANCH  23  26
ENDBRANCH  19  20
ENDBRANCH  17  19
ENDBRANCH   1  17
TORSDOF 6
ENDMDL
MODEL 3
REMARK VINA RESULT:      -7.6      2.032      2.602
REMARK  6 active torsions:
REMARK  status: ('A' for Active; 'I' for Inactive)
REMARK    1  A    between atoms: C_2  and  C_3 
REMARK    2  A    between atoms: C_2  and  C_18 
REMARK       I    between atoms: C_3  and  N_4 
REMARK    3  A    between atoms: N_4  and  C_5 
REMARK    4  A    between atoms: C_9  and  C_10 
REMARK    5  A    between atoms: C_18  and  C_19 
REMARK    6  A    between atoms: C_22  and  O_23 
ROOT
HETATM    1  C   UNL     1     -43.202  56.094 -54.623  1.00  0.00     0.227 C 
HETATM    2  N   UNL     1     -42.389  56.065 -55.747  1.00  0.00    -0.312 N 
HETATM    3  O   UNL     1     -44.376  56.463 -54.630  1.00  0.00    -0.273 OA
HETATM    4  H   UNL     1     -41.432  55.740 -55.670  1.00  0.00     0.170 HD
ENDROOT
BRANCH   2   5
HETATM    5  C   UNL     1     -42.812  56.551 -56.966  1.00  0.00     0.126 A 
HETATM    6  N   UNL     1     -43.779  55.973 -57.742  1.00  0.00    -0.262 N 
HETATM    7  H   UNL     1     -44.291  55.118 -57.535  1.00  0.00     0.191 HD
HETATM    8  N   UNL     1     -44.050  56.660 -58.864  1.00  0.00    -0.172 NA
HETATM    9  C   UNL     1     -43.222  57.719 -58.825  1.00  0.00     0.092 A 
HETATM   10  C   UNL     1     -42.415  57.673 -57.650  1.00  0.00     0.084 A 
BRANCH   9  11
HETATM   11  C   UNL     1     -43.236  58.738 -59.875  1.00  0.00     0.012 A 
HETATM   12  C   UNL     1     -44.424  59.261 -60.380  1.00  0.00     0.130 A 
HETATM   13  N   UNL     1     -44.501  60.190 -61.368  1.00  0.00    -0.272 NA
HETATM   14  C   UNL     1     -43.331  60.625 -61.880  1.00  0.00     0.116 A 
HETATM   15  C   UNL     1     -42.093  60.178 -61.450  1.00  0.00     0.020 A 
HETATM   16  C   UNL     1     -42.050  59.224 -60.435  1.00  0.00     0.017 A 
ENDBRANCH   9  11
ENDBRANCH   2   5
BRANCH   1  17
HETATM   17  C   UNL     1     -42.488  55.610 -53.365  1.00  0.00     0.078 C 
HETATM   18  C   UNL     1     -42.673  56.638 -52.246  1.00  0.00     0.020 C 
BRANCH  17  19
HETATM   19  C   UNL     1     -41.003  55.339 -53.661  1.00  0.00     0.052 C 
BRANCH  19  20
HETATM   20  C   UNL     1     -40.603  53.919 -53.334  1.00  0.00    -0.057 A 
HETATM   21  C   UNL     1     -40.357  53.549 -52.006  1.00  0.00     0.010 A 
HETATM   22  C   UNL     1     -39.958  52.246 -51.699  1.00  0.00     0.037 A 
HETATM   23  C   UNL     1     -39.799  51.293 -52.707  1.00  0.00     0.068 A 
HETATM   24  C   UNL     1     -40.050  51.656 -54.030  1.00  0.00     0.037 A 
HETATM   25  C   UNL     1     -40.450  52.961 -54.342  1.00  0.00     0.010 A 
BRANCH  23  26
HETATM   26  O   UNL     1     -39.398  50.062 -52.268  1.00  0.00    -0.356 OA
HETATM   27  C   UNL     1     -39.566  49.788 -50.883  1.00  0.00     0.210 C 
ENDBRANCH  23  26
ENDBRANCH  19  20
ENDBRANCH  17  19
ENDBRANCH   1  17
TORSDOF 6
ENDMDL
MODEL 4
REMARK VINA RESULT:      -7.6      5.112      9.416
REMARK  6 active torsions:
REMARK  status: ('A' for Active; 'I' for Inactive)
REMARK    1  A    between atoms: C_2  and  C_3 
REMARK    2  A    between atoms: C_2  and  C_18 
REMARK       I    between atoms: C_3  and  N_4 
REMARK    3  A    between atoms: N_4  and  C_5 
REMARK    4  A    between atoms: C_9  and  C_10 
REMARK    5  A    between atoms: C_18  and  C_19 
REMARK    6  A    between atoms: C_22  and  O_23 
ROOT
HETATM    1  C   UNL     1     -42.526  57.531 -54.018  1.00  0.00     0.227 C 
HETATM    2  N   UNL     1     -41.317  56.997 -53.593  1.00  0.00    -0.312 N 
HETATM    3  O   UNL     1     -43.401  56.885 -54.592  1.00  0.00    -0.273 OA
HETATM    4  H   UNL     1     -40.644  57.588 -53.117  1.00  0.00     0.170 HD
ENDROOT
BRANCH   2   5
HETATM    5  C   UNL     1     -40.954  55.698 -53.875  1.00  0.00     0.126 A 
HETATM    6  N   UNL     1     -40.520  55.258 -55.095  1.00  0.00    -0.262 N 
HETATM    7  H   UNL     1     -40.424  55.816 -55.941  1.00  0.00     0.191 HD
HETATM    8  N   UNL     1     -40.179  53.959 -55.109  1.00  0.00    -0.172 NA
HETATM    9  C   UNL     1     -40.411  53.532 -53.856  1.00  0.00     0.092 A 
HETATM   10  C   UNL     1     -40.917  54.598 -53.055  1.00  0.00     0.084 A 
BRANCH   9  11
HETATM   11  C   UNL     1     -40.130  52.153 -53.455  1.00  0.00     0.012 A 
HETATM   12  C   UNL     1     -39.760  51.822 -52.154  1.00  0.00     0.130 A 
HETATM   13  N   UNL     1     -39.466  50.566 -51.728  1.00  0.00    -0.272 NA
HETATM   14  C   UNL     1     -39.548  49.583 -52.649  1.00  0.00     0.116 A 
HETATM   15  C   UNL     1     -39.911  49.796 -53.968  1.00  0.00     0.020 A 
HETATM   16  C   UNL     1     -40.206  51.098 -54.371  1.00  0.00     0.017 A 
ENDBRANCH   9  11
ENDBRANCH   2   5
BRANCH   1  17
HETATM   17  C   UNL     1     -42.663  59.014 -53.691  1.00  0.00     0.078 C 
HETATM   18  C   UNL     1     -41.910  59.840 -54.736  1.00  0.00     0.020 C 
BRANCH  17  19
HETATM   19  C   UNL     1     -42.166  59.298 -52.262  1.00  0.00     0.052 C 
BRANCH  19  20
HETATM   20  C   UNL     1     -43.282  59.741 -51.345  1.00  0.00    -0.057 A 
HETATM   21  C   UNL     1     -43.072  60.791 -50.442  1.00  0.00     0.010 A 
HETATM   22  C   UNL     1     -44.089  61.185 -49.570  1.00  0.00     0.037 A 
HETATM   23  C   UNL     1     -45.328  60.543 -49.582  1.00  0.00     0.068 A 
HETATM   24  C   UNL     1     -45.544  59.501 -50.485  1.00  0.00     0.037 A 
HETATM   25  C   UNL     1     -44.527  59.103 -51.361  1.00  0.00     0.010 A 
BRANCH  23  26
HETATM   26  O   UNL     1     -46.228  61.024 -48.673  1.00  0.00    -0.356 OA
HETATM   27  C   UNL     1     -46.420  62.433 -48.643  1.00  0.00     0.210 C 
ENDBRANCH  23  26
ENDBRANCH  19  20
ENDBRANCH  17  19
ENDBRANCH   1  17
TORSDOF 6
ENDMDL
MODEL 5
REMARK VINA RESULT:      -7.5      2.944      3.727
REMARK  6 active torsions:
REMARK  status: ('A' for Active; 'I' for Inactive)
REMARK    1  A    between atoms: C_2  and  C_3 
REMARK    2  A    between atoms: C_2  and  C_18 
REMARK       I    between atoms: C_3  and  N_4 
REMARK    3  A    between atoms: N_4  and  C_5 
REMARK    4  A    between atoms: C_9  and  C_10 
REMARK    5  A    between atoms: C_18  and  C_19 
REMARK    6  A    between atoms: C_22  and  O_23 
ROOT
HETATM    1  C   UNL     1     -43.430  55.907 -52.591  1.00  0.00     0.227 C 
HETATM    2  N   UNL     1     -43.754  55.423 -53.850  1.00  0.00    -0.312 N 
HETATM    3  O   UNL     1     -43.377  57.102 -52.303  1.00  0.00    -0.273 OA
HETATM    4  H   UNL     1     -43.787  54.423 -54.014  1.00  0.00     0.170 HD
ENDROOT
BRANCH   2   5
HETATM    5  C   UNL     1     -43.948  56.263 -54.926  1.00  0.00     0.126 A 
HETATM    6  N   UNL     1     -44.962  57.176 -55.029  1.00  0.00    -0.262 N 
HETATM    7  H   UNL     1     -45.699  57.341 -54.348  1.00  0.00     0.191 HD
HETATM    8  N   UNL     1     -44.911  57.912 -56.151  1.00  0.00    -0.172 NA
HETATM    9  C   UNL     1     -43.832  57.455 -56.811  1.00  0.00     0.092 A 
HETATM   10  C   UNL     1     -43.210  56.404 -56.076  1.00  0.00     0.084 A 
BRANCH   9  11
HETATM   11  C   UNL     1     -43.416  58.035 -58.089  1.00  0.00     0.012 A 
HETATM   12  C   UNL     1     -43.920  59.250 -58.547  1.00  0.00     0.130 A 
HETATM   13  N   UNL     1     -43.590  59.827 -59.732  1.00  0.00    -0.272 NA
HETATM   14  C   UNL     1     -42.707  59.159 -60.503  1.00  0.00     0.116 A 
HETATM   15  C   UNL     1     -42.139  57.948 -60.144  1.00  0.00     0.020 A 
HETATM   16  C   UNL     1     -42.500  57.384 -58.921  1.00  0.00     0.017 A 
ENDBRANCH   9  11
ENDBRANCH   2   5
BRANCH   1  17
HETATM   17  C   UNL     1     -43.152  54.795 -51.585  1.00  0.00     0.078 C 
HETATM   18  C   UNL     1     -44.054  54.975 -50.362  1.00  0.00     0.020 C 
BRANCH  17  19
HETATM   19  C   UNL     1     -41.661  54.776 -51.204  1.00  0.00     0.052 C 
BRANCH  19  20
HETATM   20  C   UNL     1     -40.914  53.645 -51.872  1.00  0.00    -0.057 A 
HETATM   21  C   UNL     1     -40.882  53.554 -53.270  1.00  0.00     0.010 A 
HETATM   22  C   UNL     1     -40.220  52.495 -53.893  1.00  0.00     0.037 A 
HETATM   23  C   UNL     1     -39.579  51.511 -53.138  1.00  0.00     0.068 A 
HETATM   24  C   UNL     1     -39.601  51.601 -51.746  1.00  0.00     0.037 A 
HETATM   25  C   UNL     1     -40.265  52.662 -51.117  1.00  0.00     0.010 A 
BRANCH  23  26
HETATM   26  O   UNL     1     -38.977  50.530 -53.875  1.00  0.00    -0.356 OA
HETATM   27  C   UNL     1     -39.826  49.711 -54.669  1.00  0.00     0.210 C 
ENDBRANCH  23  26
ENDBRANCH  19  20
ENDBRANCH  17  19
ENDBRANCH   1  17
TORSDOF 6
ENDMDL
MODEL 6
REMARK VINA RESULT:      -7.4      2.278      2.963
REMARK  6 active torsions:
REMARK  status: ('A' for Active; 'I' for Inactive)
REMARK    1  A    between atoms: C_2  and  C_3 
REMARK    2  A    between atoms: C_2  and  C_18 
REMARK       I    between atoms: C_3  and  N_4 
REMARK    3  A    between atoms: N_4  and  C_5 
REMARK    4  A    between atoms: C_9  and  C_10 
REMARK    5  A    between atoms: C_18  and  C_19 
REMARK    6  A    between atoms: C_22  and  O_23 
ROOT
HETATM    1  C   UNL     1     -42.716  55.513 -56.402  1.00  0.00     0.227 C 
HETATM    2  N   UNL     1     -42.147  56.726 -56.764  1.00  0.00    -0.312 N 
HETATM    3  O   UNL     1     -43.286  54.757 -57.186  1.00  0.00    -0.273 OA
HETATM    4  H   UNL     1     -41.684  57.295 -56.064  1.00  0.00     0.170 HD
ENDROOT
BRANCH   2   5
HETATM    5  C   UNL     1     -42.267  57.236 -58.039  1.00  0.00     0.126 A 
HETATM    6  N   UNL     1     -42.213  56.490 -59.184  1.00  0.00    -0.262 N 
HETATM    7  H   UNL     1     -42.065  55.485 -59.246  1.00  0.00     0.191 HD
HETATM    8  N   UNL     1     -42.404  57.207 -60.303  1.00  0.00    -0.172 NA
HETATM    9  C   UNL     1     -42.578  58.469 -59.874  1.00  0.00     0.092 A 
HETATM   10  C   UNL     1     -42.480  58.527 -58.453  1.00  0.00     0.084 A 
BRANCH   9  11
HETATM   11  C   UNL     1     -42.848  59.563 -60.808  1.00  0.00     0.012 A 
HETATM   12  C   UNL     1     -44.138  59.864 -61.239  1.00  0.00     0.130 A 
HETATM   13  N   UNL     1     -44.448  60.850 -62.120  1.00  0.00    -0.272 NA
HETATM   14  C   UNL     1     -43.418  61.580 -62.597  1.00  0.00     0.116 A 
HETATM   15  C   UNL     1     -42.098  61.371 -62.234  1.00  0.00     0.020 A 
HETATM   16  C   UNL     1     -41.815  60.350 -61.327  1.00  0.00     0.017 A 
ENDBRANCH   9  11
ENDBRANCH   2   5
BRANCH   1  17
HETATM   17  C   UNL     1     -42.553  55.205 -54.917  1.00  0.00     0.078 C 
HETATM   18  C   UNL     1     -43.403  56.178 -54.097  1.00  0.00     0.020 C 
BRANCH  17  19
HETATM   19  C   UNL     1     -41.068  55.257 -54.517  1.00  0.00     0.052 C 
BRANCH  19  20
HETATM   20  C   UNL     1     -40.613  53.987 -53.836  1.00  0.00    -0.057 A 
HETATM   21  C   UNL     1     -40.292  52.858 -54.601  1.00  0.00     0.010 A 
HETATM   22  C   UNL     1     -39.901  51.671 -53.978  1.00  0.00     0.037 A 
HETATM   23  C   UNL     1     -39.821  51.589 -52.586  1.00  0.00     0.068 A 
HETATM   24  C   UNL     1     -40.132  52.713 -51.821  1.00  0.00     0.037 A 
HETATM   25  C   UNL     1     -40.525  53.904 -52.443  1.00  0.00     0.010 A 
BRANCH  23  26
HETATM   26  O   UNL     1     -39.432  50.368 -52.109  1.00  0.00    -0.356 OA
HETATM   27  C   UNL     1     -39.734  50.085 -50.749  1.00  0.00     0.210 C 
ENDBRANCH  23  26
ENDBRANCH  19  20
ENDBRANCH  17  19
ENDBRANCH   1  17
TORSDOF 6
ENDMDL
MODEL 7
REMARK VINA RESULT:      -7.4      5.012      7.846
REMARK  6 active torsions:
REMARK  status: ('A' for Active; 'I' for Inactive)
REMARK    1  A    between atoms: C_2  and  C_3 
REMARK    2  A    between atoms: C_2  and  C_18 
REMARK       I    between atoms: C_3  and  N_4 
REMARK    3  A    between atoms: N_4  and  C_5 
REMARK    4  A    between atoms: C_9  and  C_10 
REMARK    5  A    between atoms: C_18  and  C_19 
REMARK    6  A    between atoms: C_22  and  O_23 
ROOT
HETATM    1  C   UNL     1     -41.649  57.520 -53.865  1.00  0.00     0.227 C 
HETATM    2  N   UNL     1     -42.245  56.341 -54.287  1.00  0.00    -0.312 N 
HETATM    3  O   UNL     1     -40.449  57.639 -53.623  1.00  0.00    -0.273 OA
HETATM    4  H   UNL     1     -43.241  56.317 -54.477  1.00  0.00     0.170 HD
ENDROOT
BRANCH   2   5
HETATM    5  C   UNL     1     -41.541  55.159 -54.375  1.00  0.00     0.126 A 
HETATM    6  N   UNL     1     -40.646  54.858 -55.364  1.00  0.00    -0.262 N 
HETATM    7  H   UNL     1     -40.398  55.446 -56.157  1.00  0.00     0.191 HD
HETATM    8  N   UNL     1     -40.050  53.664 -55.206  1.00  0.00    -0.172 NA
HETATM    9  C   UNL     1     -40.585  53.162 -54.079  1.00  0.00     0.092 A 
HETATM   10  C   UNL     1     -41.542  54.071 -53.538  1.00  0.00     0.084 A 
BRANCH   9  11
HETATM   11  C   UNL     1     -40.164  51.866 -53.546  1.00  0.00     0.012 A 
HETATM   12  C   UNL     1     -40.083  50.730 -54.346  1.00  0.00     0.130 A 
HETATM   13  N   UNL     1     -39.721  49.497 -53.905  1.00  0.00    -0.272 NA
HETATM   14  C   UNL     1     -39.421  49.390 -52.594  1.00  0.00     0.116 A 
HETATM   15  C   UNL     1     -39.463  50.453 -51.708  1.00  0.00     0.020 A 
HETATM   16  C   UNL     1     -39.839  51.705 -52.195  1.00  0.00     0.017 A 
ENDBRANCH   9  11
ENDBRANCH   2   5
BRANCH   1  17
HETATM   17  C   UNL     1     -42.643  58.671 -53.736  1.00  0.00     0.078 C 
HETATM   18  C   UNL     1     -41.892  60.003 -53.803  1.00  0.00     0.020 C 
BRANCH  17  19
HETATM   19  C   UNL     1     -43.460  58.532 -52.440  1.00  0.00     0.052 C 
BRANCH  19  20
HETATM   20  C   UNL     1     -42.937  57.431 -51.548  1.00  0.00    -0.057 A 
HETATM   21  C   UNL     1     -43.697  56.272 -51.345  1.00  0.00     0.010 A 
HETATM   22  C   UNL     1     -43.233  55.263 -50.498  1.00  0.00     0.037 A 
HETATM   23  C   UNL     1     -42.008  55.392 -49.841  1.00  0.00     0.068 A 
HETATM   24  C   UNL     1     -41.244  56.540 -50.045  1.00  0.00     0.037 A 
HETATM   25  C   UNL     1     -41.706  57.554 -50.894  1.00  0.00     0.010 A 
BRANCH  23  26
HETATM   26  O   UNL     1     -41.680  54.335 -49.037  1.00  0.00    -0.356 OA
HETATM   27  C   UNL     1     -40.296  54.032 -48.907  1.00  0.00     0.210 C 
ENDBRANCH  23  26
ENDBRANCH  19  20
ENDBRANCH  17  19
ENDBRANCH   1  17
TORSDOF 6
ENDMDL
MODEL 8
REMARK VINA RESULT:      -7.4      3.188      8.901
REMARK  6 active torsions:
REMARK  status: ('A' for Active; 'I' for Inactive)
REMARK    1  A    between atoms: C_2  and  C_3 
REMARK    2  A    between atoms: C_2  and  C_18 
REMARK       I    between atoms: C_3  and  N_4 
REMARK    3  A    between atoms: N_4  and  C_5 
REMARK    4  A    between atoms: C_9  and  C_10 
REMARK    5  A    between atoms: C_18  and  C_19 
REMARK    6  A    between atoms: C_22  and  O_23 
ROOT
HETATM    1  C   UNL     1     -42.648  57.440 -54.799  1.00  0.00     0.227 C 
HETATM    2  N   UNL     1     -42.958  56.117 -55.078  1.00  0.00    -0.312 N 
HETATM    3  O   UNL     1     -41.528  57.834 -54.474  1.00  0.00    -0.273 OA
HETATM    4  H   UNL     1     -43.902  55.865 -55.348  1.00  0.00     0.170 HD
ENDROOT
BRANCH   2   5
HETATM    5  C   UNL     1     -42.039  55.102 -54.912  1.00  0.00     0.126 A 
HETATM    6  N   UNL     1     -40.831  55.035 -55.551  1.00  0.00    -0.262 N 
HETATM    7  H   UNL     1     -40.466  55.700 -56.229  1.00  0.00     0.191 HD
HETATM    8  N   UNL     1     -40.090  53.975 -55.188  1.00  0.00    -0.172 NA
HETATM    9  C   UNL     1     -40.846  53.321 -54.289  1.00  0.00     0.092 A 
HETATM   10  C   UNL     1     -42.089  53.994 -54.103  1.00  0.00     0.084 A 
BRANCH   9  11
HETATM   11  C   UNL     1     -40.366  52.107 -53.627  1.00  0.00     0.012 A 
HETATM   12  C   UNL     1     -39.988  52.098 -52.286  1.00  0.00     0.130 A 
HETATM   13  N   UNL     1     -39.515  51.010 -51.624  1.00  0.00    -0.272 NA
HETATM   14  C   UNL     1     -39.415  49.867 -52.334  1.00  0.00     0.116 A 
HETATM   15  C   UNL     1     -39.767  49.761 -53.669  1.00  0.00     0.020 A 
HETATM   16  C   UNL     1     -40.249  50.897 -54.318  1.00  0.00     0.017 A 
ENDBRANCH   9  11
ENDBRANCH   2   5
BRANCH   1  17
HETATM   17  C   UNL     1     -43.848  58.371 -54.945  1.00  0.00     0.078 C 
HETATM   18  C   UNL     1     -45.139  57.552 -54.882  1.00  0.00     0.020 C 
BRANCH  17  19
HETATM   19  C   UNL     1     -43.743  59.183 -56.248  1.00  0.00     0.052 C 
BRANCH  19  20
HETATM   20  C   UNL     1     -43.848  58.310 -57.477  1.00  0.00    -0.057 A 
HETATM   21  C   UNL     1     -42.687  57.856 -58.115  1.00  0.00     0.010 A 
HETATM   22  C   UNL     1     -42.776  57.075 -59.269  1.00  0.00     0.037 A 
HETATM   23  C   UNL     1     -44.019  56.733 -59.804  1.00  0.00     0.068 A 
HETATM   24  C   UNL     1     -45.178  57.176 -59.167  1.00  0.00     0.037 A 
HETATM   25  C   UNL     1     -45.093  57.960 -58.010  1.00  0.00     0.010 A 
BRANCH  23  26
HETATM   26  O   UNL     1     -43.961  55.971 -60.938  1.00  0.00    -0.356 OA
HETATM   27  C   UNL     1     -45.045  55.081 -61.170  1.00  0.00     0.210 C 
ENDBRANCH  23  26
ENDBRANCH  19  20
ENDBRANCH  17  19
ENDBRANCH   1  17
TORSDOF 6
ENDMDL
MODEL 9
REMARK VINA RESULT:      -7.4      2.875     10.099
REMARK  6 active torsions:
REMARK  status: ('A' for Active; 'I' for Inactive)
REMARK    1  A    between atoms: C_2  and  C_3 
REMARK    2  A    between atoms: C_2  and  C_18 
REMARK       I    between atoms: C_3  and  N_4 
REMARK    3  A    between atoms: N_4  and  C_5 
REMARK    4  A    between atoms: C_9  and  C_10 
REMARK    5  A    between atoms: C_18  and  C_19 
REMARK    6  A    between atoms: C_22  and  O_23 
ROOT
HETATM    1  C   UNL     1     -43.445  56.755 -57.664  1.00  0.00     0.227 C 
HETATM    2  N   UNL     1     -43.160  55.436 -57.341  1.00  0.00    -0.312 N 
HETATM    3  O   UNL     1     -43.466  57.676 -56.848  1.00  0.00    -0.273 OA
HETATM    4  H   UNL     1     -43.152  54.728 -58.067  1.00  0.00     0.170 HD
ENDROOT
BRANCH   2   5
HETATM    5  C   UNL     1     -42.972  55.028 -56.037  1.00  0.00     0.126 A 
HETATM    6  N   UNL     1     -43.906  55.141 -55.044  1.00  0.00    -0.262 N 
HETATM    7  H   UNL     1     -44.835  55.546 -55.130  1.00  0.00     0.191 HD
HETATM    8  N   UNL     1     -43.505  54.629 -53.869  1.00  0.00    -0.172 NA
HETATM    9  C   UNL     1     -42.261  54.175 -54.100  1.00  0.00     0.092 A 
HETATM   10  C   UNL     1     -41.886  54.426 -55.452  1.00  0.00     0.084 A 
BRANCH   9  11
HETATM   11  C   UNL     1     -41.484  53.509 -53.054  1.00  0.00     0.012 A 
HETATM   12  C   UNL     1     -41.703  53.757 -51.701  1.00  0.00     0.130 A 
HETATM   13  N   UNL     1     -41.001  53.188 -50.687  1.00  0.00    -0.272 NA
HETATM   14  C   UNL     1     -40.029  52.320 -51.038  1.00  0.00     0.116 A 
HETATM   15  C   UNL     1     -39.730  51.996 -52.350  1.00  0.00     0.020 A 
HETATM   16  C   UNL     1     -40.469  52.599 -53.367  1.00  0.00     0.017 A 
ENDBRANCH   9  11
ENDBRANCH   2   5
BRANCH   1  17
HETATM   17  C   UNL     1     -43.725  56.951 -59.150  1.00  0.00     0.078 C 
HETATM   18  C   UNL     1     -42.401  57.083 -59.906  1.00  0.00     0.020 C 
BRANCH  17  19
HETATM   19  C   UNL     1     -44.638  58.171 -59.368  1.00  0.00     0.052 C 
BRANCH  19  20
HETATM   20  C   UNL     1     -45.856  57.833 -60.195  1.00  0.00    -0.057 A 
HETATM   21  C   UNL     1     -46.691  58.856 -60.663  1.00  0.00     0.010 A 
HETATM   22  C   UNL     1     -47.836  58.550 -61.402  1.00  0.00     0.037 A 
HETATM   23  C   UNL     1     -48.167  57.224 -61.687  1.00  0.00     0.068 A 
HETATM   24  C   UNL     1     -47.335  56.202 -61.229  1.00  0.00     0.037 A 
HETATM   25  C   UNL     1     -46.186  56.506 -60.488  1.00  0.00     0.010 A 
BRANCH  23  26
HETATM   26  O   UNL     1     -49.316  57.067 -62.411  1.00  0.00    -0.356 OA
HETATM   27  C   UNL     1     -49.982  58.254 -62.824  1.00  0.00     0.210 C 
ENDBRANCH  23  26
ENDBRANCH  19  20
ENDBRANCH  17  19
ENDBRANCH   1  17
TORSDOF 6
ENDMDL
MODEL 10
REMARK VINA RESULT:      -7.4     14.986     18.934
REMARK  6 active torsions:
REMARK  status: ('A' for Active; 'I' for Inactive)
REMARK    1  A    between atoms: C_2  and  C_3 
REMARK    2  A    between atoms: C_2  and  C_18 
REMARK       I    between atoms: C_3  and  N_4 
REMARK    3  A    between atoms: N_4  and  C_5 
REMARK    4  A    between atoms: C_9  and  C_10 
REMARK    5  A    between atoms: C_18  and  C_19 
REMARK    6  A    between atoms: C_22  and  O_23 
ROOT
HETATM    1  C   UNL     1     -35.563  42.052 -54.048  1.00  0.00     0.227 C 
HETATM    2  N   UNL     1     -34.567  41.090 -54.138  1.00  0.00    -0.312 N 
HETATM    3  O   UNL     1     -35.797  42.710 -53.035  1.00  0.00    -0.273 OA
HETATM    4  H   UNL     1     -34.424  40.590 -55.008  1.00  0.00     0.170 HD
ENDROOT
BRANCH   2   5
HETATM    5  C   UNL     1     -33.812  40.717 -53.045  1.00  0.00     0.126 A 
HETATM    6  N   UNL     1     -32.482  40.995 -52.887  1.00  0.00    -0.262 N 
HETATM    7  H   UNL     1     -31.883  41.487 -53.547  1.00  0.00     0.191 HD
HETATM    8  N   UNL     1     -31.980  40.570 -51.716  1.00  0.00    -0.172 NA
HETATM    9  C   UNL     1     -33.016  39.984 -51.092  1.00  0.00     0.092 A 
HETATM   10  C   UNL     1     -34.184  40.043 -51.909  1.00  0.00     0.084 A 
BRANCH   9  11
HETATM   11  C   UNL     1     -32.877  39.412 -49.752  1.00  0.00     0.012 A 
HETATM   12  C   UNL     1     -33.842  38.570 -49.205  1.00  0.00     0.130 A 
HETATM   13  N   UNL     1     -33.779  38.028 -47.961  1.00  0.00    -0.272 NA
HETATM   14  C   UNL     1     -32.693  38.338 -47.221  1.00  0.00     0.116 A 
HETATM   15  C   UNL     1     -31.672  39.160 -47.667  1.00  0.00     0.020 A 
HETATM   16  C   UNL     1     -31.768  39.700 -48.949  1.00  0.00     0.017 A 
ENDBRANCH   9  11
ENDBRANCH   2   5
BRANCH   1  17
HETATM   17  C   UNL     1     -36.341  42.219 -55.349  1.00  0.00     0.078 C 
HETATM   18  C   UNL     1     -37.440  41.157 -55.426  1.00  0.00     0.020 C 
BRANCH  17  19
HETATM   19  C   UNL     1     -35.389  42.154 -56.556  1.00  0.00     0.052 C 
BRANCH  19  20
HETATM   20  C   UNL     1     -36.047  41.544 -57.772  1.00  0.00    -0.057 A 
HETATM   21  C   UNL     1     -35.820  40.199 -58.092  1.00  0.00     0.010 A 
HETATM   22  C   UNL     1     -36.400  39.636 -59.230  1.00  0.00     0.037 A 
HETATM   23  C   UNL     1     -37.215  40.401 -60.067  1.00  0.00     0.068 A 
HETATM   24  C   UNL     1     -37.450  41.739 -59.749  1.00  0.00     0.037 A 
HETATM   25  C   UNL     1     -36.870  42.306 -58.608  1.00  0.00     0.010 A 
BRANCH  23  26
HETATM   26  O   UNL     1     -37.711  39.728 -61.149  1.00  0.00    -0.356 OA
HETATM   27  C   UNL     1     -38.470  38.555 -60.883  1.00  0.00     0.210 C 
ENDBRANCH  23  26
ENDBRANCH  19  20
ENDBRANCH  17  19
ENDBRANCH   1  17
TORSDOF 6
ENDMDL
