MODEL 1
REMARK VINA RESULT:      -9.5      0.000      0.000
REMARK  6 active torsions:
REMARK  status: ('A' for Active; 'I' for Inactive)
REMARK    1  A    between atoms: C_2  and  C_3 
REMARK    2  A    between atoms: C_5  and  N_6 
REMARK       I    between atoms: N_6  and  C_7 
REMARK    3  A    between atoms: C_7  and  C_8 
REMARK    4  A    between atoms: N_11  and  C_12 
REMARK    5  A    between atoms: C_18  and  C_19 
REMARK    6  A    between atoms: C_28  and  O_29 
ROOT
HETATM    1  C   UNL     1     -42.452  57.368 -54.591  1.00  0.00     0.081 C 
HETATM    2  C   UNL     1     -42.270  57.429 -53.063  1.00  0.00     0.034 C 
HETATM    3  C   UNL     1     -42.380  56.064 -52.376  1.00  0.00     0.125 C 
HETATM    4  N   UNL     1     -41.482  55.081 -53.001  1.00  0.00    -0.364 N 
HETATM    5  C   UNL     1     -41.694  54.955 -54.455  1.00  0.00     0.125 C 
HETATM    6  C   UNL     1     -41.509  56.298 -55.144  1.00  0.00     0.034 C 
ENDROOT
BRANCH   1   7
HETATM    7  C   UNL     1     -43.911  57.128 -54.971  1.00  0.00     0.226 C 
HETATM    8  N   UNL     1     -44.356  57.082 -56.255  1.00  0.00    -0.324 N 
HETATM    9  H   UNL     1     -45.307  56.725 -56.274  1.00  0.00     0.169 HD
HETATM   10  O   UNL     1     -44.762  56.934 -54.094  1.00  0.00    -0.273 OA
BRANCH   8  11
HETATM   11  C   UNL     1     -43.804  57.297 -57.533  1.00  0.00     0.068 A 
HETATM   12  C   UNL     1     -43.591  58.537 -58.136  1.00  0.00     0.040 A 
HETATM   13  C   UNL     1     -42.908  58.667 -59.368  1.00  0.00    -0.048 A 
HETATM   14  C   UNL     1     -42.469  57.487 -59.995  1.00  0.00     0.011 A 
HETATM   15  C   UNL     1     -42.739  56.234 -59.447  1.00  0.00     0.039 A 
HETATM   16  C   UNL     1     -43.418  56.153 -58.241  1.00  0.00     0.092 A 
BRANCH  13  17
HETATM   17  C   UNL     1     -42.570  60.055 -59.950  1.00  0.00    -0.024 C 
HETATM   18  C   UNL     1     -43.895  60.813 -60.168  1.00  0.00     0.019 C 
HETATM   19  C   UNL     1     -41.826  59.975 -61.304  1.00  0.00     0.019 C 
HETATM   20  C   UNL     1     -41.672  60.890 -59.008  1.00  0.00     0.019 C 
ENDBRANCH  13  17
BRANCH  16  21
HETATM   21  O   UNL     1     -43.687  54.905 -57.744  1.00  0.00    -0.358 OA
HETATM   22  H   UNL     1     -43.840  54.339 -58.522  1.00  0.00     0.218 HD
ENDBRANCH  16  21
ENDBRANCH   8  11
ENDBRANCH   1   7
BRANCH   4  23
HETATM   23  C   UNL     1     -40.997  53.960 -52.314  1.00  0.00     0.146 A 
HETATM   24  N   UNL     1     -40.722  52.888 -53.024  1.00  0.00    -0.146 NA
HETATM   25  N   UNL     1     -40.251  51.821 -52.334  1.00  0.00    -0.188 N 
HETATM   26  C   UNL     1     -40.033  51.733 -50.980  1.00  0.00     0.175 A 
HETATM   27  C   UNL     1     -39.891  50.603 -52.838  1.00  0.00     0.258 A 
HETATM   28  C   UNL     1     -40.310  52.876 -50.211  1.00  0.00     0.058 A 
HETATM   29  N   UNL     1     -39.579  50.537 -50.678  1.00  0.00    -0.128 NA
HETATM   30  C   UNL     1     -40.772  53.975 -50.821  1.00  0.00     0.056 A 
HETATM   31  N   UNL     1     -39.488  49.820 -51.850  1.00  0.00    -0.123 NA
BRANCH  27  32
HETATM   32  C   UNL     1     -39.977  50.324 -54.278  1.00  0.00     0.454 C 
HETATM   33  F   UNL     1     -41.187  49.821 -54.642  1.00  0.00    -0.163 F 
HETATM   34  F   UNL     1     -39.793  51.441 -55.035  1.00  0.00    -0.163 F 
HETATM   35  F   UNL     1     -39.039  49.430 -54.696  1.00  0.00    -0.163 F 
ENDBRANCH  27  32
ENDBRANCH   4  23
TORSDOF 6
ENDMDL
MODEL 2
REMARK VINA RESULT:      -8.9      3.659      8.333
REMARK  6 active torsions:
REMARK  status: ('A' for Active; 'I' for Inactive)
REMARK    1  A    between atoms: C_2  and  C_3 
REMARK    2  A    between atoms: C_5  and  N_6 
REMARK       I    between atoms: N_6  and  C_7 
REMARK    3  A    between atoms: C_7  and  C_8 
REMARK    4  A    between atoms: N_11  and  C_12 
REMARK    5  A    between atoms: C_18  and  C_19 
REMARK    6  A    between atoms: C_28  and  O_29 
ROOT
HETATM    1  C   UNL     1     -42.827  57.422 -51.691  1.00  0.00     0.081 C 
HETATM    2  C   UNL     1     -42.154  56.819 -52.938  1.00  0.00     0.034 C 
HETATM    3  C   UNL     1     -43.114  56.605 -54.113  1.00  0.00     0.125 C 
HETATM    4  N   UNL     1     -43.854  57.836 -54.426  1.00  0.00    -0.364 N 
HETATM    5  C   UNL     1     -44.568  58.388 -53.258  1.00  0.00     0.125 C 
HETATM    6  C   UNL     1     -43.599  58.672 -52.121  1.00  0.00     0.034 C 
ENDROOT
BRANCH   1   7
HETATM    7  C   UNL     1     -43.706  56.397 -50.979  1.00  0.00     0.226 C 
HETATM    8  N   UNL     1     -43.307  55.128 -50.700  1.00  0.00    -0.324 N 
HETATM    9  H   UNL     1     -43.968  54.694 -50.063  1.00  0.00     0.169 HD
HETATM   10  O   UNL     1     -44.842  56.705 -50.596  1.00  0.00    -0.273 OA
BRANCH   8  11
HETATM   11  C   UNL     1     -42.180  54.330 -50.981  1.00  0.00     0.068 A 
HETATM   12  C   UNL     1     -41.901  53.703 -52.195  1.00  0.00     0.040 A 
HETATM   13  C   UNL     1     -40.679  53.029 -52.431  1.00  0.00    -0.048 A 
HETATM   14  C   UNL     1     -39.749  52.983 -51.377  1.00  0.00     0.011 A 
HETATM   15  C   UNL     1     -40.041  53.536 -50.131  1.00  0.00     0.039 A 
HETATM   16  C   UNL     1     -41.253  54.181 -49.942  1.00  0.00     0.092 A 
BRANCH  13  17
HETATM   17  C   UNL     1     -40.340  52.457 -53.823  1.00  0.00    -0.024 C 
HETATM   18  C   UNL     1     -39.941  53.634 -54.735  1.00  0.00     0.019 C 
HETATM   19  C   UNL     1     -41.531  51.716 -54.475  1.00  0.00     0.019 C 
HETATM   20  C   UNL     1     -39.169  51.448 -53.779  1.00  0.00     0.019 C 
ENDBRANCH  13  17
BRANCH  16  21
HETATM   21  O   UNL     1     -41.515  54.693 -48.699  1.00  0.00    -0.358 OA
HETATM   22  H   UNL     1     -41.740  53.927 -48.141  1.00  0.00     0.218 HD
ENDBRANCH  16  21
ENDBRANCH   8  11
ENDBRANCH   1   7
BRANCH   4  23
HETATM   23  C   UNL     1     -44.387  58.092 -55.696  1.00  0.00     0.146 A 
HETATM   24  N   UNL     1     -44.054  57.273 -56.669  1.00  0.00    -0.146 NA
HETATM   25  N   UNL     1     -44.588  57.542 -57.885  1.00  0.00    -0.188 N 
HETATM   26  C   UNL     1     -45.433  58.575 -58.214  1.00  0.00     0.175 A 
HETATM   27  C   UNL     1     -44.401  56.843 -59.044  1.00  0.00     0.258 A 
HETATM   28  C   UNL     1     -45.808  59.450 -57.182  1.00  0.00     0.058 A 
HETATM   29  N   UNL     1     -45.733  58.514 -59.493  1.00  0.00    -0.128 NA
HETATM   30  C   UNL     1     -45.328  59.246 -55.949  1.00  0.00     0.056 A 
HETATM   31  N   UNL     1     -45.082  57.421 -60.020  1.00  0.00    -0.123 NA
BRANCH  27  32
HETATM   32  C   UNL     1     -43.552  55.644 -59.076  1.00  0.00     0.454 C 
HETATM   33  F   UNL     1     -43.897  54.785 -60.072  1.00  0.00    -0.163 F 
HETATM   34  F   UNL     1     -42.239  55.943 -59.279  1.00  0.00    -0.163 F 
HETATM   35  F   UNL     1     -43.599  54.938 -57.914  1.00  0.00    -0.163 F 
ENDBRANCH  27  32
ENDBRANCH   4  23
TORSDOF 6
ENDMDL
MODEL 3
REMARK VINA RESULT:      -8.9      1.248      1.734
REMARK  6 active torsions:
REMARK  status: ('A' for Active; 'I' for Inactive)
REMARK    1  A    between atoms: C_2  and  C_3 
REMARK    2  A    between atoms: C_5  and  N_6 
REMARK       I    between atoms: N_6  and  C_7 
REMARK    3  A    between atoms: C_7  and  C_8 
REMARK    4  A    between atoms: N_11  and  C_12 
REMARK    5  A    between atoms: C_18  and  C_19 
REMARK    6  A    between atoms: C_28  and  O_29 
ROOT
HETATM    1  C   UNL     1     -43.659  58.606 -55.126  1.00  0.00     0.081 C 
HETATM    2  C   UNL     1     -43.844  58.634 -53.598  1.00  0.00     0.034 C 
HETATM    3  C   UNL     1     -43.663  57.267 -52.931  1.00  0.00     0.125 C 
HETATM    4  N   UNL     1     -42.386  56.651 -53.321  1.00  0.00    -0.364 N 
HETATM    5  C   UNL     1     -42.224  56.547 -54.783  1.00  0.00     0.125 C 
HETATM    6  C   UNL     1     -42.328  57.917 -55.435  1.00  0.00     0.034 C 
ENDROOT
BRANCH   1   7
HETATM    7  C   UNL     1     -44.846  57.943 -55.822  1.00  0.00     0.226 C 
HETATM    8  N   UNL     1     -44.873  57.651 -57.149  1.00  0.00    -0.324 N 
HETATM    9  H   UNL     1     -45.667  57.050 -57.350  1.00  0.00     0.169 HD
HETATM   10  O   UNL     1     -45.847  57.615 -55.173  1.00  0.00    -0.273 OA
BRANCH   8  11
HETATM   11  C   UNL     1     -44.037  57.881 -58.259  1.00  0.00     0.068 A 
HETATM   12  C   UNL     1     -43.795  59.115 -58.863  1.00  0.00     0.040 A 
HETATM   13  C   UNL     1     -42.837  59.274 -59.892  1.00  0.00    -0.048 A 
HETATM   14  C   UNL     1     -42.144  58.126 -60.318  1.00  0.00     0.011 A 
HETATM   15  C   UNL     1     -42.427  56.872 -59.782  1.00  0.00     0.039 A 
HETATM   16  C   UNL     1     -43.379  56.760 -58.780  1.00  0.00     0.092 A 
BRANCH  13  17
HETATM   17  C   UNL     1     -42.494  60.670 -60.453  1.00  0.00    -0.024 C 
HETATM   18  C   UNL     1     -43.759  61.545 -60.352  1.00  0.00     0.019 C 
HETATM   19  C   UNL     1     -42.045  60.630 -61.933  1.00  0.00     0.019 C 
HETATM   20  C   UNL     1     -41.353  61.359 -59.669  1.00  0.00     0.019 C 
ENDBRANCH  13  17
BRANCH  16  21
HETATM   21  O   UNL     1     -43.647  55.508 -58.292  1.00  0.00    -0.358 OA
HETATM   22  H   UNL     1     -43.132  55.430 -57.470  1.00  0.00     0.218 HD
ENDBRANCH  16  21
ENDBRANCH   8  11
ENDBRANCH   1   7
BRANCH   4  23
HETATM   23  C   UNL     1     -41.733  55.700 -52.524  1.00  0.00     0.146 A 
HETATM   24  N   UNL     1     -41.321  54.599 -53.111  1.00  0.00    -0.146 NA
HETATM   25  N   UNL     1     -40.690  53.700 -52.317  1.00  0.00    -0.188 N 
HETATM   26  C   UNL     1     -40.437  53.810 -50.971  1.00  0.00     0.175 A 
HETATM   27  C   UNL     1     -40.169  52.492 -52.687  1.00  0.00     0.258 A 
HETATM   28  C   UNL     1     -40.860  54.987 -50.334  1.00  0.00     0.058 A 
HETATM   29  N   UNL     1     -39.811  52.734 -50.547  1.00  0.00    -0.128 NA
HETATM   30  C   UNL     1     -41.485  55.929 -51.052  1.00  0.00     0.056 A 
HETATM   31  N   UNL     1     -39.641  51.899 -51.628  1.00  0.00    -0.123 NA
BRANCH  27  32
HETATM   32  C   UNL     1     -40.242  52.030 -54.080  1.00  0.00     0.454 C 
HETATM   33  F   UNL     1     -39.803  52.965 -54.965  1.00  0.00    -0.163 F 
HETATM   34  F   UNL     1     -39.483  50.921 -54.299  1.00  0.00    -0.163 F 
HETATM   35  F   UNL     1     -41.507  51.698 -54.456  1.00  0.00    -0.163 F 
ENDBRANCH  27  32
ENDBRANCH   4  23
TORSDOF 6
ENDMDL
MODEL 4
REMARK VINA RESULT:      -8.8      2.253      3.200
REMARK  6 active torsions:
REMARK  status: ('A' for Active; 'I' for Inactive)
REMARK    1  A    between atoms: C_2  and  C_3 
REMARK    2  A    between atoms: C_5  and  N_6 
REMARK       I    between atoms: N_6  and  C_7 
REMARK    3  A    between atoms: C_7  and  C_8 
REMARK    4  A    between atoms: N_11  and  C_12 
REMARK    5  A    between atoms: C_18  and  C_19 
REMARK    6  A    between atoms: C_28  and  O_29 
ROOT
HETATM    1  C   UNL     1     -44.915  58.347 -53.652  1.00  0.00     0.081 C 
HETATM    2  C   UNL     1     -44.785  56.947 -54.280  1.00  0.00     0.034 C 
HETATM    3  C   UNL     1     -43.465  56.243 -53.945  1.00  0.00     0.125 C 
HETATM    4  N   UNL     1     -43.229  56.222 -52.494  1.00  0.00    -0.364 N 
HETATM    5  C   UNL     1     -43.276  57.565 -51.886  1.00  0.00     0.125 C 
HETATM    6  C   UNL     1     -44.616  58.231 -52.156  1.00  0.00     0.034 C 
ENDROOT
BRANCH   1   7
HETATM    7  C   UNL     1     -44.022  59.363 -54.359  1.00  0.00     0.226 C 
HETATM    8  N   UNL     1     -43.995  59.532 -55.707  1.00  0.00    -0.324 N 
HETATM    9  H   UNL     1     -43.481  60.378 -55.936  1.00  0.00     0.169 HD
HETATM   10  O   UNL     1     -43.284  60.110 -53.704  1.00  0.00    -0.273 OA
BRANCH   8  11
HETATM   11  C   UNL     1     -44.580  58.903 -56.824  1.00  0.00     0.068 A 
HETATM   12  C   UNL     1     -43.953  57.991 -57.674  1.00  0.00     0.040 A 
HETATM   13  C   UNL     1     -44.656  57.307 -58.693  1.00  0.00    -0.048 A 
HETATM   14  C   UNL     1     -46.023  57.599 -58.849  1.00  0.00     0.011 A 
HETATM   15  C   UNL     1     -46.649  58.564 -58.062  1.00  0.00     0.039 A 
HETATM   16  C   UNL     1     -45.921  59.216 -57.079  1.00  0.00     0.092 A 
BRANCH  13  17
HETATM   17  C   UNL     1     -43.972  56.208 -59.533  1.00  0.00    -0.024 C 
HETATM   18  C   UNL     1     -42.641  56.776 -60.062  1.00  0.00     0.019 C 
HETATM   19  C   UNL     1     -44.826  55.756 -60.742  1.00  0.00     0.019 C 
HETATM   20  C   UNL     1     -43.673  54.933 -58.710  1.00  0.00     0.019 C 
ENDBRANCH  13  17
BRANCH  16  21
HETATM   21  O   UNL     1     -46.563  60.174 -56.340  1.00  0.00    -0.358 OA
HETATM   22  H   UNL     1     -46.516  59.869 -55.416  1.00  0.00     0.218 HD
ENDBRANCH  16  21
ENDBRANCH   8  11
ENDBRANCH   1   7
BRANCH   4  23
HETATM   23  C   UNL     1     -42.423  55.255 -51.876  1.00  0.00     0.146 A 
HETATM   24  N   UNL     1     -41.837  54.370 -52.653  1.00  0.00    -0.146 NA
HETATM   25  N   UNL     1     -41.061  53.451 -52.029  1.00  0.00    -0.188 N 
HETATM   26  C   UNL     1     -40.823  53.339 -50.680  1.00  0.00     0.175 A 
HETATM   27  C   UNL     1     -40.349  52.439 -52.608  1.00  0.00     0.258 A 
HETATM   28  C   UNL     1     -41.431  54.286 -49.841  1.00  0.00     0.058 A 
HETATM   29  N   UNL     1     -40.025  52.319 -50.452  1.00  0.00    -0.128 NA
HETATM   30  C   UNL     1     -42.208  55.233 -50.382  1.00  0.00     0.056 A 
HETATM   31  N   UNL     1     -39.724  51.748 -51.669  1.00  0.00    -0.123 NA
BRANCH  27  32
HETATM   32  C   UNL     1     -40.352  52.249 -54.065  1.00  0.00     0.454 C 
HETATM   33  F   UNL     1     -41.606  52.105 -54.572  1.00  0.00    -0.163 F 
HETATM   34  F   UNL     1     -39.800  53.304 -54.727  1.00  0.00    -0.163 F 
HETATM   35  F   UNL     1     -39.644  51.153 -54.452  1.00  0.00    -0.163 F 
ENDBRANCH  27  32
ENDBRANCH   4  23
TORSDOF 6
ENDMDL
MODEL 5
REMARK VINA RESULT:      -8.7      7.453     10.887
REMARK  6 active torsions:
REMARK  status: ('A' for Active; 'I' for Inactive)
REMARK    1  A    between atoms: C_2  and  C_3 
REMARK    2  A    between atoms: C_5  and  N_6 
REMARK       I    between atoms: N_6  and  C_7 
REMARK    3  A    between atoms: C_7  and  C_8 
REMARK    4  A    between atoms: N_11  and  C_12 
REMARK    5  A    between atoms: C_18  and  C_19 
REMARK    6  A    between atoms: C_28  and  O_29 
ROOT
HETATM    1  C   UNL     1     -43.631  58.739 -52.130  1.00  0.00     0.081 C 
HETATM    2  C   UNL     1     -44.807  58.408 -51.193  1.00  0.00     0.034 C 
HETATM    3  C   UNL     1     -45.284  59.603 -50.359  1.00  0.00     0.125 C 
HETATM    4  N   UNL     1     -45.567  60.766 -51.213  1.00  0.00    -0.364 N 
HETATM    5  C   UNL     1     -44.423  61.144 -52.064  1.00  0.00     0.125 C 
HETATM    6  C   UNL     1     -44.002  59.979 -52.946  1.00  0.00     0.034 C 
ENDROOT
BRANCH   1   7
HETATM    7  C   UNL     1     -42.327  58.907 -51.353  1.00  0.00     0.226 C 
HETATM    8  N   UNL     1     -41.445  57.897 -51.137  1.00  0.00    -0.324 N 
HETATM    9  H   UNL     1     -40.575  58.275 -50.772  1.00  0.00     0.169 HD
HETATM   10  O   UNL     1     -42.007  60.014 -50.902  1.00  0.00    -0.273 OA
BRANCH   8  11
HETATM   11  C   UNL     1     -41.402  56.511 -51.387  1.00  0.00     0.068 A 
HETATM   12  C   UNL     1     -41.465  55.901 -52.640  1.00  0.00     0.040 A 
HETATM   13  C   UNL     1     -41.281  54.508 -52.809  1.00  0.00    -0.048 A 
HETATM   14  C   UNL     1     -41.058  53.737 -51.653  1.00  0.00     0.011 A 
HETATM   15  C   UNL     1     -41.068  54.317 -50.385  1.00  0.00     0.039 A 
HETATM   16  C   UNL     1     -41.260  55.685 -50.265  1.00  0.00     0.092 A 
BRANCH  13  17
HETATM   17  C   UNL     1     -41.224  53.876 -54.215  1.00  0.00    -0.024 C 
HETATM   18  C   UNL     1     -40.130  54.606 -55.019  1.00  0.00     0.019 C 
HETATM   19  C   UNL     1     -42.561  54.001 -54.984  1.00  0.00     0.019 C 
HETATM   20  C   UNL     1     -40.884  52.368 -54.173  1.00  0.00     0.019 C 
ENDBRANCH  13  17
BRANCH  16  21
HETATM   21  O   UNL     1     -41.287  56.215 -49.003  1.00  0.00    -0.358 OA
HETATM   22  H   UNL     1     -40.410  56.616 -48.867  1.00  0.00     0.218 HD
ENDBRANCH  16  21
ENDBRANCH   8  11
ENDBRANCH   1   7
BRANCH   4  23
HETATM   23  C   UNL     1     -46.460  61.779 -50.834  1.00  0.00     0.146 A 
HETATM   24  N   UNL     1     -46.591  62.019 -49.548  1.00  0.00    -0.146 NA
HETATM   25  N   UNL     1     -47.457  63.006 -49.212  1.00  0.00    -0.188 N 
HETATM   26  C   UNL     1     -48.213  63.777 -50.062  1.00  0.00     0.175 A 
HETATM   27  C   UNL     1     -47.763  63.445 -47.954  1.00  0.00     0.258 A 
HETATM   28  C   UNL     1     -48.072  63.540 -51.439  1.00  0.00     0.058 A 
HETATM   29  N   UNL     1     -48.939  64.625 -49.367  1.00  0.00    -0.128 NA
HETATM   30  C   UNL     1     -47.229  62.586 -51.852  1.00  0.00     0.056 A 
HETATM   31  N   UNL     1     -48.657  64.417 -48.035  1.00  0.00    -0.123 NA
BRANCH  27  32
HETATM   32  C   UNL     1     -47.127  62.853 -46.770  1.00  0.00     0.454 C 
HETATM   33  F   UNL     1     -47.359  61.516 -46.665  1.00  0.00    -0.163 F 
HETATM   34  F   UNL     1     -45.774  62.998 -46.780  1.00  0.00    -0.163 F 
HETATM   35  F   UNL     1     -47.556  63.418 -45.608  1.00  0.00    -0.163 F 
ENDBRANCH  27  32
ENDBRANCH   4  23
TORSDOF 6
ENDMDL
MODEL 6
REMARK VINA RESULT:      -8.6      4.093      8.232
REMARK  6 active torsions:
REMARK  status: ('A' for Active; 'I' for Inactive)
REMARK    1  A    between atoms: C_2  and  C_3 
REMARK    2  A    between atoms: C_5  and  N_6 
REMARK       I    between atoms: N_6  and  C_7 
REMARK    3  A    between atoms: C_7  and  C_8 
REMARK    4  A    between atoms: N_11  and  C_12 
REMARK    5  A    between atoms: C_18  and  C_19 
REMARK    6  A    between atoms: C_28  and  O_29 
ROOT
HETATM    1  C   UNL     1     -44.187  58.317 -52.044  1.00  0.00     0.081 C 
HETATM    2  C   UNL     1     -45.132  59.348 -52.689  1.00  0.00     0.034 C 
HETATM    3  C   UNL     1     -44.932  59.504 -54.200  1.00  0.00     0.125 C 
HETATM    4  N   UNL     1     -44.990  58.202 -54.880  1.00  0.00    -0.364 N 
HETATM    5  C   UNL     1     -44.037  57.223 -54.324  1.00  0.00     0.125 C 
HETATM    6  C   UNL     1     -44.287  57.013 -52.838  1.00  0.00     0.034 C 
ENDROOT
BRANCH   1   7
HETATM    7  C   UNL     1     -42.759  58.848 -51.952  1.00  0.00     0.226 C 
HETATM    8  N   UNL     1     -41.661  58.048 -51.903  1.00  0.00    -0.324 N 
HETATM    9  H   UNL     1     -40.824  58.608 -52.036  1.00  0.00     0.169 HD
HETATM   10  O   UNL     1     -42.543  60.066 -51.944  1.00  0.00    -0.273 OA
BRANCH   8  11
HETATM   11  C   UNL     1     -41.412  56.664 -51.823  1.00  0.00     0.068 A 
HETATM   12  C   UNL     1     -41.327  55.781 -52.901  1.00  0.00     0.040 A 
HETATM   13  C   UNL     1     -40.941  54.430 -52.738  1.00  0.00    -0.048 A 
HETATM   14  C   UNL     1     -40.671  53.984 -51.432  1.00  0.00     0.011 A 
HETATM   15  C   UNL     1     -40.824  54.829 -50.334  1.00  0.00     0.039 A 
HETATM   16  C   UNL     1     -41.211  56.144 -50.538  1.00  0.00     0.092 A 
BRANCH  13  17
HETATM   17  C   UNL     1     -40.728  53.510 -53.958  1.00  0.00    -0.024 C 
HETATM   18  C   UNL     1     -42.115  53.127 -54.511  1.00  0.00     0.019 C 
HETATM   19  C   UNL     1     -39.967  52.210 -53.605  1.00  0.00     0.019 C 
HETATM   20  C   UNL     1     -39.920  54.196 -55.084  1.00  0.00     0.019 C 
ENDBRANCH  13  17
BRANCH  16  21
HETATM   21  O   UNL     1     -41.375  56.939 -49.435  1.00  0.00    -0.358 OA
HETATM   22  H   UNL     1     -42.308  56.839 -49.174  1.00  0.00     0.218 HD
ENDBRANCH  16  21
ENDBRANCH   8  11
ENDBRANCH   1   7
BRANCH   4  23
HETATM   23  C   UNL     1     -45.343  58.072 -56.231  1.00  0.00     0.146 A 
HETATM   24  N   UNL     1     -44.429  57.606 -57.053  1.00  0.00    -0.146 NA
HETATM   25  N   UNL     1     -44.800  57.488 -58.351  1.00  0.00    -0.188 N 
HETATM   26  C   UNL     1     -46.020  57.802 -58.902  1.00  0.00     0.175 A 
HETATM   27  C   UNL     1     -44.040  57.028 -59.390  1.00  0.00     0.258 A 
HETATM   28  C   UNL     1     -47.009  58.287 -58.032  1.00  0.00     0.058 A 
HETATM   29  N   UNL     1     -46.000  57.559 -60.194  1.00  0.00    -0.128 NA
HETATM   30  C   UNL     1     -46.723  58.426 -56.731  1.00  0.00     0.056 A 
HETATM   31  N   UNL     1     -44.751  57.070 -60.505  1.00  0.00    -0.123 NA
BRANCH  27  32
HETATM   32  C   UNL     1     -42.658  56.580 -59.177  1.00  0.00     0.454 C 
HETATM   33  F   UNL     1     -42.567  55.581 -58.257  1.00  0.00    -0.163 F 
HETATM   34  F   UNL     1     -42.088  56.095 -60.314  1.00  0.00    -0.163 F 
HETATM   35  F   UNL     1     -41.843  57.583 -58.748  1.00  0.00    -0.163 F 
ENDBRANCH  27  32
ENDBRANCH   4  23
TORSDOF 6
ENDMDL
MODEL 7
REMARK VINA RESULT:      -8.6      3.458      8.115
REMARK  6 active torsions:
REMARK  status: ('A' for Active; 'I' for Inactive)
REMARK    1  A    between atoms: C_2  and  C_3 
REMARK    2  A    between atoms: C_5  and  N_6 
REMARK       I    between atoms: N_6  and  C_7 
REMARK    3  A    between atoms: C_7  and  C_8 
REMARK    4  A    between atoms: N_11  and  C_12 
REMARK    5  A    between atoms: C_18  and  C_19 
REMARK    6  A    between atoms: C_28  and  O_29 
ROOT
HETATM    1  C   UNL     1     -42.635  57.737 -51.263  1.00  0.00     0.081 C 
HETATM    2  C   UNL     1     -41.495  57.227 -52.165  1.00  0.00     0.034 C 
HETATM    3  C   UNL     1     -41.868  57.165 -53.650  1.00  0.00     0.125 C 
HETATM    4  N   UNL     1     -42.408  58.451 -54.116  1.00  0.00    -0.364 N 
HETATM    5  C   UNL     1     -43.550  58.919 -53.308  1.00  0.00     0.125 C 
HETATM    6  C   UNL     1     -43.155  59.053 -51.845  1.00  0.00     0.034 C 
ENDROOT
BRANCH   1   7
HETATM    7  C   UNL     1     -43.730  56.687 -51.098  1.00  0.00     0.226 C 
HETATM    8  N   UNL     1     -43.492  55.349 -51.072  1.00  0.00    -0.324 N 
HETATM    9  H   UNL     1     -44.327  54.859 -50.765  1.00  0.00     0.169 HD
HETATM   10  O   UNL     1     -44.910  57.031 -50.951  1.00  0.00    -0.273 OA
BRANCH   8  11
HETATM   11  C   UNL     1     -42.376  54.510 -51.257  1.00  0.00     0.068 A 
HETATM   12  C   UNL     1     -42.018  53.869 -52.443  1.00  0.00     0.040 A 
HETATM   13  C   UNL     1     -40.806  53.150 -52.574  1.00  0.00    -0.048 A 
HETATM   14  C   UNL     1     -39.971  53.073 -51.444  1.00  0.00     0.011 A 
HETATM   15  C   UNL     1     -40.347  53.641 -50.228  1.00  0.00     0.039 A 
HETATM   16  C   UNL     1     -41.547  54.330 -50.142  1.00  0.00     0.092 A 
BRANCH  13  17
HETATM   17  C   UNL     1     -40.371  52.562 -53.932  1.00  0.00    -0.024 C 
HETATM   18  C   UNL     1     -41.551  51.745 -54.495  1.00  0.00     0.019 C 
HETATM   19  C   UNL     1     -39.143  51.628 -53.817  1.00  0.00     0.019 C 
HETATM   20  C   UNL     1     -39.993  53.655 -54.958  1.00  0.00     0.019 C 
ENDBRANCH  13  17
BRANCH  16  21
HETATM   21  O   UNL     1     -41.894  54.854 -48.926  1.00  0.00    -0.358 OA
HETATM   22  H   UNL     1     -42.236  55.747 -49.112  1.00  0.00     0.218 HD
ENDBRANCH  16  21
ENDBRANCH   8  11
ENDBRANCH   1   7
BRANCH   4  23
HETATM   23  C   UNL     1     -42.354  58.849 -55.459  1.00  0.00     0.146 A 
HETATM   24  N   UNL     1     -42.581  57.930 -56.372  1.00  0.00    -0.146 NA
HETATM   25  N   UNL     1     -42.526  58.344 -57.661  1.00  0.00    -0.188 N 
HETATM   26  C   UNL     1     -42.257  59.611 -58.119  1.00  0.00     0.175 A 
HETATM   27  C   UNL     1     -42.728  57.588 -58.782  1.00  0.00     0.258 A 
HETATM   28  C   UNL     1     -42.027  60.605 -57.155  1.00  0.00     0.058 A 
HETATM   29  N   UNL     1     -42.285  59.624 -59.433  1.00  0.00    -0.128 NA
HETATM   30  C   UNL     1     -42.071  60.277 -55.857  1.00  0.00     0.056 A 
HETATM   31  N   UNL     1     -42.581  58.347 -59.855  1.00  0.00    -0.123 NA
BRANCH  27  32
HETATM   32  C   UNL     1     -43.056  56.160 -58.683  1.00  0.00     0.454 C 
HETATM   33  F   UNL     1     -42.463  55.559 -57.616  1.00  0.00    -0.163 F 
HETATM   34  F   UNL     1     -44.392  55.943 -58.538  1.00  0.00    -0.163 F 
HETATM   35  F   UNL     1     -42.681  55.458 -59.787  1.00  0.00    -0.163 F 
ENDBRANCH  27  32
ENDBRANCH   4  23
TORSDOF 6
ENDMDL
MODEL 8
REMARK VINA RESULT:      -8.3      7.136     10.172
REMARK  6 active torsions:
REMARK  status: ('A' for Active; 'I' for Inactive)
REMARK    1  A    between atoms: C_2  and  C_3 
REMARK    2  A    between atoms: C_5  and  N_6 
REMARK       I    between atoms: N_6  and  C_7 
REMARK    3  A    between atoms: C_7  and  C_8 
REMARK    4  A    between atoms: N_11  and  C_12 
REMARK    5  A    between atoms: C_18  and  C_19 
REMARK    6  A    between atoms: C_28  and  O_29 
ROOT
HETATM    1  C   UNL     1     -43.860  59.389 -53.144  1.00  0.00     0.081 C 
HETATM    2  C   UNL     1     -44.336  58.708 -51.847  1.00  0.00     0.034 C 
HETATM    3  C   UNL     1     -44.442  59.663 -50.654  1.00  0.00     0.125 C 
HETATM    4  N   UNL     1     -45.253  60.843 -50.988  1.00  0.00    -0.364 N 
HETATM    5  C   UNL     1     -44.766  61.552 -52.186  1.00  0.00     0.125 C 
HETATM    6  C   UNL     1     -44.735  60.620 -53.388  1.00  0.00     0.034 C 
ENDROOT
BRANCH   1   7
HETATM    7  C   UNL     1     -42.371  59.721 -53.087  1.00  0.00     0.226 C 
HETATM    8  N   UNL     1     -41.402  58.796 -52.859  1.00  0.00    -0.324 N 
HETATM    9  H   UNL     1     -40.491  59.200 -53.053  1.00  0.00     0.169 HD
HETATM   10  O   UNL     1     -41.980  60.879 -53.279  1.00  0.00    -0.273 OA
BRANCH   8  11
HETATM   11  C   UNL     1     -41.359  57.425 -52.534  1.00  0.00     0.068 A 
HETATM   12  C   UNL     1     -41.381  56.366 -53.442  1.00  0.00     0.040 A 
HETATM   13  C   UNL     1     -41.199  55.023 -53.035  1.00  0.00    -0.048 A 
HETATM   14  C   UNL     1     -41.023  54.778 -51.661  1.00  0.00     0.011 A 
HETATM   15  C   UNL     1     -41.075  55.815 -50.730  1.00  0.00     0.039 A 
HETATM   16  C   UNL     1     -41.262  57.115 -51.172  1.00  0.00     0.092 A 
BRANCH  13  17
HETATM   17  C   UNL     1     -41.096  53.883 -54.069  1.00  0.00    -0.024 C 
HETATM   18  C   UNL     1     -42.478  53.718 -54.731  1.00  0.00     0.019 C 
HETATM   19  C   UNL     1     -40.694  52.530 -53.436  1.00  0.00     0.019 C 
HETATM   20  C   UNL     1     -40.052  54.177 -55.172  1.00  0.00     0.019 C 
ENDBRANCH  13  17
BRANCH  16  21
HETATM   21  O   UNL     1     -41.332  58.105 -50.228  1.00  0.00    -0.358 OA
HETATM   22  H   UNL     1     -41.992  58.740 -50.559  1.00  0.00     0.218 HD
ENDBRANCH  16  21
ENDBRANCH   8  11
ENDBRANCH   1   7
BRANCH   4  23
HETATM   23  C   UNL     1     -45.927  61.594 -50.015  1.00  0.00     0.146 A 
HETATM   24  N   UNL     1     -45.644  61.346 -48.756  1.00  0.00    -0.146 NA
HETATM   25  N   UNL     1     -46.307  62.090 -47.838  1.00  0.00    -0.188 N 
HETATM   26  C   UNL     1     -47.242  63.069 -48.075  1.00  0.00     0.175 A 
HETATM   27  C   UNL     1     -46.187  62.026 -46.478  1.00  0.00     0.258 A 
HETATM   28  C   UNL     1     -47.543  63.355 -49.417  1.00  0.00     0.058 A 
HETATM   29  N   UNL     1     -47.669  63.563 -46.935  1.00  0.00    -0.128 NA
HETATM   30  C   UNL     1     -46.923  62.667 -50.385  1.00  0.00     0.056 A 
HETATM   31  N   UNL     1     -47.005  62.905 -45.923  1.00  0.00    -0.123 NA
BRANCH  27  32
HETATM   32  C   UNL     1     -45.254  61.085 -45.844  1.00  0.00     0.454 C 
HETATM   33  F   UNL     1     -44.143  60.861 -46.597  1.00  0.00    -0.163 F 
HETATM   34  F   UNL     1     -44.804  61.532 -44.639  1.00  0.00    -0.163 F 
HETATM   35  F   UNL     1     -45.818  59.869 -45.605  1.00  0.00    -0.163 F 
ENDBRANCH  27  32
ENDBRANCH   4  23
TORSDOF 6
ENDMDL
MODEL 9
REMARK VINA RESULT:      -8.1      6.508      9.985
REMARK  6 active torsions:
REMARK  status: ('A' for Active; 'I' for Inactive)
REMARK    1  A    between atoms: C_2  and  C_3 
REMARK    2  A    between atoms: C_5  and  N_6 
REMARK       I    between atoms: N_6  and  C_7 
REMARK    3  A    between atoms: C_7  and  C_8 
REMARK    4  A    between atoms: N_11  and  C_12 
REMARK    5  A    between atoms: C_18  and  C_19 
REMARK    6  A    between atoms: C_28  and  O_29 
ROOT
HETATM    1  C   UNL     1     -44.068  58.010 -53.560  1.00  0.00     0.081 C 
HETATM    2  C   UNL     1     -44.210  57.765 -52.046  1.00  0.00     0.034 C 
HETATM    3  C   UNL     1     -44.253  59.052 -51.216  1.00  0.00     0.125 C 
HETATM    4  N   UNL     1     -45.277  59.977 -51.724  1.00  0.00    -0.364 N 
HETATM    5  C   UNL     1     -45.112  60.283 -53.158  1.00  0.00     0.125 C 
HETATM    6  C   UNL     1     -45.147  59.008 -53.987  1.00  0.00     0.034 C 
ENDROOT
BRANCH   1   7
HETATM    7  C   UNL     1     -42.658  58.468 -53.923  1.00  0.00     0.226 C 
HETATM    8  N   UNL     1     -41.579  57.642 -53.937  1.00  0.00    -0.324 N 
HETATM    9  H   UNL     1     -40.797  58.109 -54.386  1.00  0.00     0.169 HD
HETATM   10  O   UNL     1     -42.447  59.642 -54.252  1.00  0.00    -0.273 OA
BRANCH   8  11
HETATM   11  C   UNL     1     -41.318  56.301 -53.591  1.00  0.00     0.068 A 
HETATM   12  C   UNL     1     -41.059  55.821 -52.307  1.00  0.00     0.040 A 
HETATM   13  C   UNL     1     -40.939  54.438 -52.031  1.00  0.00    -0.048 A 
HETATM   14  C   UNL     1     -41.061  53.547 -53.113  1.00  0.00     0.011 A 
HETATM   15  C   UNL     1     -41.243  54.011 -54.414  1.00  0.00     0.039 A 
HETATM   16  C   UNL     1     -41.348  55.375 -54.640  1.00  0.00     0.092 A 
BRANCH  13  17
HETATM   17  C   UNL     1     -40.783  53.924 -50.585  1.00  0.00    -0.024 C 
HETATM   18  C   UNL     1     -42.064  54.294 -49.810  1.00  0.00     0.019 C 
HETATM   19  C   UNL     1     -39.572  54.548 -49.852  1.00  0.00     0.019 C 
HETATM   20  C   UNL     1     -40.592  52.391 -50.519  1.00  0.00     0.019 C 
ENDBRANCH  13  17
BRANCH  16  21
HETATM   21  O   UNL     1     -41.502  55.796 -55.934  1.00  0.00    -0.358 OA
HETATM   22  H   UNL     1     -41.181  55.064 -56.490  1.00  0.00     0.218 HD
ENDBRANCH  16  21
ENDBRANCH   8  11
ENDBRANCH   1   7
BRANCH   4  23
HETATM   23  C   UNL     1     -45.881  60.951 -50.916  1.00  0.00     0.146 A 
HETATM   24  N   UNL     1     -45.711  60.848 -49.616  1.00  0.00    -0.146 NA
HETATM   25  N   UNL     1     -46.302  61.805 -48.861  1.00  0.00    -0.188 N 
HETATM   26  C   UNL     1     -47.060  62.865 -49.299  1.00  0.00     0.175 A 
HETATM   27  C   UNL     1     -46.271  61.921 -47.499  1.00  0.00     0.258 A 
HETATM   28  C   UNL     1     -47.237  62.994 -50.686  1.00  0.00     0.058 A 
HETATM   29  N   UNL     1     -47.470  63.574 -48.271  1.00  0.00    -0.128 NA
HETATM   30  C   UNL     1     -46.677  62.091 -51.502  1.00  0.00     0.056 A 
HETATM   31  N   UNL     1     -46.974  62.980 -47.132  1.00  0.00    -0.123 NA
BRANCH  27  32
HETATM   32  C   UNL     1     -45.532  60.956 -46.674  1.00  0.00     0.454 C 
HETATM   33  F   UNL     1     -44.218  60.871 -47.017  1.00  0.00    -0.163 F 
HETATM   34  F   UNL     1     -45.552  61.280 -45.352  1.00  0.00    -0.163 F 
HETATM   35  F   UNL     1     -46.041  59.696 -46.759  1.00  0.00    -0.163 F 
ENDBRANCH  27  32
ENDBRANCH   4  23
TORSDOF 6
ENDMDL
MODEL 10
REMARK VINA RESULT:      -8.0     15.130     18.355
REMARK  6 active torsions:
REMARK  status: ('A' for Active; 'I' for Inactive)
REMARK    1  A    between atoms: C_2  and  C_3 
REMARK    2  A    between atoms: C_5  and  N_6 
REMARK       I    between atoms: N_6  and  C_7 
REMARK    3  A    between atoms: C_7  and  C_8 
REMARK    4  A    between atoms: N_11  and  C_12 
REMARK    5  A    between atoms: C_18  and  C_19 
REMARK    6  A    between atoms: C_28  and  O_29 
ROOT
HETATM    1  C   UNL     1     -36.019  40.612 -56.000  1.00  0.00     0.081 C 
HETATM    2  C   UNL     1     -36.614  39.197 -56.131  1.00  0.00     0.034 C 
HETATM    3  C   UNL     1     -37.534  39.027 -57.345  1.00  0.00     0.125 C 
HETATM    4  N   UNL     1     -36.868  39.464 -58.581  1.00  0.00    -0.364 N 
HETATM    5  C   UNL     1     -36.357  40.845 -58.499  1.00  0.00     0.125 C 
HETATM    6  C   UNL     1     -35.384  40.991 -57.339  1.00  0.00     0.034 C 
ENDROOT
BRANCH   1   7
HETATM    7  C   UNL     1     -37.067  41.618 -55.533  1.00  0.00     0.226 C 
HETATM    8  N   UNL     1     -37.283  41.929 -54.228  1.00  0.00    -0.324 N 
HETATM    9  H   UNL     1     -37.881  42.748 -54.165  1.00  0.00     0.169 HD
HETATM   10  O   UNL     1     -37.763  42.225 -56.357  1.00  0.00    -0.273 OA
BRANCH   8  11
HETATM   11  C   UNL     1     -36.809  41.476 -52.981  1.00  0.00     0.068 A 
HETATM   12  C   UNL     1     -37.371  40.459 -52.209  1.00  0.00     0.040 A 
HETATM   13  C   UNL     1     -36.751  39.978 -51.031  1.00  0.00    -0.048 A 
HETATM   14  C   UNL     1     -35.546  40.587 -50.636  1.00  0.00     0.011 A 
HETATM   15  C   UNL     1     -35.008  41.656 -51.351  1.00  0.00     0.039 A 
HETATM   16  C   UNL     1     -35.652  42.100 -52.496  1.00  0.00     0.092 A 
BRANCH  13  17
HETATM   17  C   UNL     1     -37.323  38.766 -50.267  1.00  0.00    -0.024 C 
HETATM   18  C   UNL     1     -37.201  39.057 -48.759  1.00  0.00     0.019 C 
HETATM   19  C   UNL     1     -36.568  37.451 -50.574  1.00  0.00     0.019 C 
HETATM   20  C   UNL     1     -38.810  38.503 -50.602  1.00  0.00     0.019 C 
ENDBRANCH  13  17
BRANCH  16  21
HETATM   21  O   UNL     1     -35.108  43.167 -53.159  1.00  0.00    -0.358 OA
HETATM   22  H   UNL     1     -35.407  43.958 -52.676  1.00  0.00     0.218 HD
ENDBRANCH  16  21
ENDBRANCH   8  11
ENDBRANCH   1   7
BRANCH   4  23
HETATM   23  C   UNL     1     -37.231  38.977 -59.844  1.00  0.00     0.146 A 
HETATM   24  N   UNL     1     -38.474  38.578 -60.005  1.00  0.00    -0.146 NA
HETATM   25  N   UNL     1     -38.797  38.117 -61.237  1.00  0.00    -0.188 N 
HETATM   26  C   UNL     1     -37.974  38.016 -62.333  1.00  0.00     0.175 A 
HETATM   27  C   UNL     1     -40.014  37.653 -61.654  1.00  0.00     0.258 A 
HETATM   28  C   UNL     1     -36.648  38.452 -62.179  1.00  0.00     0.058 A 
HETATM   29  N   UNL     1     -38.643  37.516 -63.347  1.00  0.00    -0.128 NA
HETATM   30  C   UNL     1     -36.252  38.929 -60.992  1.00  0.00     0.056 A 
HETATM   31  N   UNL     1     -39.932  37.285 -62.922  1.00  0.00    -0.123 NA
BRANCH  27  32
HETATM   32  C   UNL     1     -41.165  37.621 -60.741  1.00  0.00     0.454 C 
HETATM   33  F   UNL     1     -41.582  38.864 -60.381  1.00  0.00    -0.163 F 
HETATM   34  F   UNL     1     -42.248  37.008 -61.293  1.00  0.00    -0.163 F 
HETATM   35  F   UNL     1     -40.900  36.947 -59.589  1.00  0.00    -0.163 F 
ENDBRANCH  27  32
ENDBRANCH   4  23
TORSDOF 6
ENDMDL
