MODEL 1
REMARK VINA RESULT:      -9.0      0.000      0.000
REMARK  6 active torsions:
REMARK  status: ('A' for Active; 'I' for Inactive)
REMARK    1  A    between atoms: C_2  and  C_4 
REMARK    2  A    between atoms: C_2  and  C_11 
REMARK    3  A    between atoms: C_2  and  O_3 
REMARK    4  A    between atoms: C_11  and  N_12 
REMARK       I    between atoms: N_12  and  C_13 
REMARK    5  A    between atoms: C_13  and  C_14 
REMARK    6  A    between atoms: C_18  and  C_19 
ROOT
HETATM    1  N   UNL     1     -42.104  56.921 -57.595  1.00  0.00    -0.352 N 
HETATM    2  C   UNL     1     -42.117  57.034 -56.225  1.00  0.00     0.272 C 
HETATM    3  O   UNL     1     -42.158  58.105 -55.628  1.00  0.00    -0.266 OA
HETATM    4  H   UNL     1     -41.974  55.979 -57.954  1.00  0.00     0.162 HD
ENDROOT
BRANCH   2   5
HETATM    5  C   UNL     1     -42.090  55.734 -55.538  1.00  0.00     0.146 A 
HETATM    6  N   UNL     1     -43.165  54.923 -55.491  1.00  0.00    -0.169 NA
HETATM    7  N   UNL     1     -42.748  53.881 -54.750  1.00  0.00    -0.277 N 
HETATM    8  H   UNL     1     -43.417  53.148 -54.545  1.00  0.00     0.189 HD
HETATM    9  C   UNL     1     -41.439  53.952 -54.343  1.00  0.00     0.063 A 
HETATM   10  C   UNL     1     -40.994  55.161 -54.844  1.00  0.00     0.071 A 
BRANCH   9  11
HETATM   11  C   UNL     1     -40.767  52.932 -53.532  1.00  0.00    -0.008 A 
HETATM   12  C   UNL     1     -40.263  51.751 -54.102  1.00  0.00     0.017 A 
HETATM   13  C   UNL     1     -39.628  50.789 -53.310  1.00  0.00     0.043 A 
HETATM   14  C   UNL     1     -39.488  51.004 -51.945  1.00  0.00     0.116 A 
HETATM   15  F   UNL     1     -38.879  50.083 -51.190  1.00  0.00    -0.206 F 
HETATM   16  C   UNL     1     -39.970  52.165 -51.357  1.00  0.00     0.043 A 
HETATM   17  C   UNL     1     -40.607  53.125 -52.149  1.00  0.00     0.017 A 
ENDBRANCH   9  11
ENDBRANCH   2   5
BRANCH   1  18
HETATM   18  C   UNL     1     -42.091  58.060 -58.499  1.00  0.00     0.165 C 
BRANCH  18  19
HETATM   19  C   UNL     1     -42.448  57.677 -59.963  1.00  0.00     0.097 C 
HETATM   20  C   UNL     1     -42.122  58.861 -60.881  1.00  0.00     0.053 C 
BRANCH  19  21
HETATM   21  C   UNL     1     -43.893  57.227 -60.209  1.00  0.00    -0.023 A 
HETATM   22  C   UNL     1     -44.229  55.898 -60.523  1.00  0.00     0.013 A 
HETATM   23  C   UNL     1     -45.558  55.526 -60.744  1.00  0.00     0.043 A 
HETATM   24  C   UNL     1     -46.566  56.474 -60.636  1.00  0.00     0.116 A 
HETATM   25  F   UNL     1     -47.838  56.114 -60.848  1.00  0.00    -0.206 F 
HETATM   26  C   UNL     1     -46.273  57.788 -60.302  1.00  0.00     0.043 A 
HETATM   27  C   UNL     1     -44.944  58.160 -60.085  1.00  0.00     0.013 A 
ENDBRANCH  19  21
BRANCH  19  28
HETATM   28  O   UNL     1     -41.561  56.601 -60.329  1.00  0.00    -0.384 OA
HETATM   29  H   UNL     1     -40.737  57.020 -60.633  1.00  0.00     0.211 HD
ENDBRANCH  19  28
ENDBRANCH  18  19
ENDBRANCH   1  18
TORSDOF 6
ENDMDL
MODEL 2
REMARK VINA RESULT:      -8.2      3.005      9.322
REMARK  6 active torsions:
REMARK  status: ('A' for Active; 'I' for Inactive)
REMARK    1  A    between atoms: C_2  and  C_4 
REMARK    2  A    between atoms: C_2  and  C_11 
REMARK    3  A    between atoms: C_2  and  O_3 
REMARK    4  A    between atoms: C_11  and  N_12 
REMARK       I    between atoms: N_12  and  C_13 
REMARK    5  A    between atoms: C_13  and  C_14 
REMARK    6  A    between atoms: C_18  and  C_19 
ROOT
HETATM    1  N   UNL     1     -42.428  54.349 -51.316  1.00  0.00    -0.352 N 
HETATM    2  C   UNL     1     -42.555  55.589 -51.895  1.00  0.00     0.272 C 
HETATM    3  O   UNL     1     -42.417  56.645 -51.286  1.00  0.00    -0.266 OA
HETATM    4  H   UNL     1     -42.661  53.562 -51.916  1.00  0.00     0.162 HD
ENDROOT
BRANCH   2   5
HETATM    5  C   UNL     1     -42.863  55.528 -53.331  1.00  0.00     0.146 A 
HETATM    6  N   UNL     1     -43.681  54.592 -53.852  1.00  0.00    -0.169 NA
HETATM    7  N   UNL     1     -43.665  54.850 -55.171  1.00  0.00    -0.277 N 
HETATM    8  H   UNL     1     -44.190  54.233 -55.781  1.00  0.00     0.189 HD
HETATM    9  C   UNL     1     -42.907  55.935 -55.537  1.00  0.00     0.063 A 
HETATM   10  C   UNL     1     -42.369  56.387 -54.346  1.00  0.00     0.071 A 
BRANCH   9  11
HETATM   11  C   UNL     1     -42.744  56.406 -56.915  1.00  0.00    -0.008 A 
HETATM   12  C   UNL     1     -43.053  55.588 -58.015  1.00  0.00     0.017 A 
HETATM   13  C   UNL     1     -42.888  56.056 -59.322  1.00  0.00     0.043 A 
HETATM   14  C   UNL     1     -42.419  57.346 -59.538  1.00  0.00     0.116 A 
HETATM   15  F   UNL     1     -42.263  57.792 -60.790  1.00  0.00    -0.206 F 
HETATM   16  C   UNL     1     -42.113  58.177 -58.470  1.00  0.00     0.043 A 
HETATM   17  C   UNL     1     -42.276  57.708 -57.163  1.00  0.00     0.017 A 
ENDBRANCH   9  11
ENDBRANCH   2   5
BRANCH   1  18
HETATM   18  C   UNL     1     -42.160  54.142 -49.902  1.00  0.00     0.165 C 
BRANCH  18  19
HETATM   19  C   UNL     1     -40.744  53.560 -49.632  1.00  0.00     0.097 C 
HETATM   20  C   UNL     1     -39.707  54.679 -49.792  1.00  0.00     0.053 C 
BRANCH  19  21
HETATM   21  C   UNL     1     -40.332  52.359 -50.491  1.00  0.00    -0.023 A 
HETATM   22  C   UNL     1     -39.889  52.494 -51.818  1.00  0.00     0.013 A 
HETATM   23  C   UNL     1     -39.525  51.374 -52.572  1.00  0.00     0.043 A 
HETATM   24  C   UNL     1     -39.583  50.111 -52.000  1.00  0.00     0.116 A 
HETATM   25  F   UNL     1     -39.234  49.040 -52.724  1.00  0.00    -0.206 F 
HETATM   26  C   UNL     1     -39.991  49.944 -50.685  1.00  0.00     0.043 A 
HETATM   27  C   UNL     1     -40.357  51.063 -49.933  1.00  0.00     0.013 A 
ENDBRANCH  19  21
BRANCH  19  28
HETATM   28  O   UNL     1     -40.726  53.164 -48.246  1.00  0.00    -0.384 OA
HETATM   29  H   UNL     1     -40.581  52.201 -48.240  1.00  0.00     0.211 HD
ENDBRANCH  19  28
ENDBRANCH  18  19
ENDBRANCH   1  18
TORSDOF 6
ENDMDL
MODEL 3
REMARK VINA RESULT:      -8.2      7.143      9.184
REMARK  6 active torsions:
REMARK  status: ('A' for Active; 'I' for Inactive)
REMARK    1  A    between atoms: C_2  and  C_4 
REMARK    2  A    between atoms: C_2  and  C_11 
REMARK    3  A    between atoms: C_2  and  O_3 
REMARK    4  A    between atoms: C_11  and  N_12 
REMARK       I    between atoms: N_12  and  C_13 
REMARK    5  A    between atoms: C_13  and  C_14 
REMARK    6  A    between atoms: C_18  and  C_19 
ROOT
HETATM    1  N   UNL     1     -43.588  58.897 -50.778  1.00  0.00    -0.352 N 
HETATM    2  C   UNL     1     -42.398  58.462 -51.311  1.00  0.00     0.272 C 
HETATM    3  O   UNL     1     -41.459  59.205 -51.582  1.00  0.00    -0.266 OA
HETATM    4  H   UNL     1     -44.311  58.188 -50.692  1.00  0.00     0.162 HD
ENDROOT
BRANCH   2   5
HETATM    5  C   UNL     1     -42.353  57.007 -51.516  1.00  0.00     0.146 A 
HETATM    6  N   UNL     1     -43.345  56.192 -51.105  1.00  0.00    -0.169 NA
HETATM    7  N   UNL     1     -42.908  54.964 -51.435  1.00  0.00    -0.277 N 
HETATM    8  H   UNL     1     -43.486  54.172 -51.180  1.00  0.00     0.189 HD
HETATM    9  C   UNL     1     -41.694  54.938 -52.077  1.00  0.00     0.063 A 
HETATM   10  C   UNL     1     -41.313  56.266 -52.132  1.00  0.00     0.071 A 
BRANCH   9  11
HETATM   11  C   UNL     1     -41.024  53.717 -52.533  1.00  0.00    -0.008 A 
HETATM   12  C   UNL     1     -40.215  52.955 -51.673  1.00  0.00     0.017 A 
HETATM   13  C   UNL     1     -39.582  51.794 -52.128  1.00  0.00     0.043 A 
HETATM   14  C   UNL     1     -39.757  51.385 -53.443  1.00  0.00     0.116 A 
HETATM   15  F   UNL     1     -39.151  50.274 -53.877  1.00  0.00    -0.206 F 
HETATM   16  C   UNL     1     -40.555  52.115 -54.313  1.00  0.00     0.043 A 
HETATM   17  C   UNL     1     -41.187  53.277 -53.857  1.00  0.00     0.017 A 
ENDBRANCH   9  11
ENDBRANCH   2   5
BRANCH   1  18
HETATM   18  C   UNL     1     -43.893  60.293 -50.515  1.00  0.00     0.165 C 
BRANCH  18  19
HETATM   19  C   UNL     1     -45.269  60.494 -49.819  1.00  0.00     0.097 C 
HETATM   20  C   UNL     1     -46.235  61.157 -50.808  1.00  0.00     0.053 C 
BRANCH  19  21
HETATM   21  C   UNL     1     -45.253  61.293 -48.510  1.00  0.00    -0.023 A 
HETATM   22  C   UNL     1     -44.976  62.670 -48.468  1.00  0.00     0.013 A 
HETATM   23  C   UNL     1     -44.968  63.365 -47.255  1.00  0.00     0.043 A 
HETATM   24  C   UNL     1     -45.255  62.693 -46.075  1.00  0.00     0.116 A 
HETATM   25  F   UNL     1     -45.246  63.360 -44.914  1.00  0.00    -0.206 F 
HETATM   26  C   UNL     1     -45.559  61.340 -46.083  1.00  0.00     0.043 A 
HETATM   27  C   UNL     1     -45.564  60.646 -47.296  1.00  0.00     0.013 A 
ENDBRANCH  19  21
BRANCH  19  28
HETATM   28  O   UNL     1     -45.782  59.174 -49.548  1.00  0.00    -0.384 OA
HETATM   29  H   UNL     1     -46.752  59.247 -49.583  1.00  0.00     0.211 HD
ENDBRANCH  19  28
ENDBRANCH  18  19
ENDBRANCH   1  18
TORSDOF 6
ENDMDL
MODEL 4
REMARK VINA RESULT:      -8.2      1.444      1.953
REMARK  6 active torsions:
REMARK  status: ('A' for Active; 'I' for Inactive)
REMARK    1  A    between atoms: C_2  and  C_4 
REMARK    2  A    between atoms: C_2  and  C_11 
REMARK    3  A    between atoms: C_2  and  O_3 
REMARK    4  A    between atoms: C_11  and  N_12 
REMARK       I    between atoms: N_12  and  C_13 
REMARK    5  A    between atoms: C_13  and  C_14 
REMARK    6  A    between atoms: C_18  and  C_19 
ROOT
HETATM    1  N   UNL     1     -42.241  57.651 -56.118  1.00  0.00    -0.352 N 
HETATM    2  C   UNL     1     -43.026  56.883 -55.292  1.00  0.00     0.272 C 
HETATM    3  O   UNL     1     -44.250  56.963 -55.244  1.00  0.00    -0.266 OA
HETATM    4  H   UNL     1     -41.238  57.546 -55.987  1.00  0.00     0.162 HD
ENDROOT
BRANCH   2   5
HETATM    5  C   UNL     1     -42.253  55.939 -54.472  1.00  0.00     0.146 A 
HETATM    6  N   UNL     1     -41.631  56.314 -53.336  1.00  0.00    -0.169 NA
HETATM    7  N   UNL     1     -41.016  55.194 -52.922  1.00  0.00    -0.277 N 
HETATM    8  H   UNL     1     -40.442  55.249 -52.088  1.00  0.00     0.189 HD
HETATM    9  C   UNL     1     -41.236  54.091 -53.710  1.00  0.00     0.063 A 
HETATM   10  C   UNL     1     -42.038  54.562 -54.733  1.00  0.00     0.071 A 
BRANCH   9  11
HETATM   11  C   UNL     1     -40.672  52.762 -53.453  1.00  0.00    -0.008 A 
HETATM   12  C   UNL     1     -40.084  52.438 -52.219  1.00  0.00     0.017 A 
HETATM   13  C   UNL     1     -39.549  51.165 -51.995  1.00  0.00     0.043 A 
HETATM   14  C   UNL     1     -39.604  50.209 -53.000  1.00  0.00     0.116 A 
HETATM   15  F   UNL     1     -39.092  48.991 -52.782  1.00  0.00    -0.206 F 
HETATM   16  C   UNL     1     -40.184  50.500 -54.226  1.00  0.00     0.043 A 
HETATM   17  C   UNL     1     -40.717  51.773 -54.450  1.00  0.00     0.017 A 
ENDBRANCH   9  11
ENDBRANCH   2   5
BRANCH   1  18
HETATM   18  C   UNL     1     -42.763  58.680 -57.001  1.00  0.00     0.165 C 
BRANCH  18  19
HETATM   19  C   UNL     1     -42.807  58.238 -58.491  1.00  0.00     0.097 C 
HETATM   20  C   UNL     1     -42.428  59.432 -59.376  1.00  0.00     0.053 C 
BRANCH  19  21
HETATM   21  C   UNL     1     -44.133  57.644 -58.980  1.00  0.00    -0.023 A 
HETATM   22  C   UNL     1     -45.379  58.057 -58.475  1.00  0.00     0.013 A 
HETATM   23  C   UNL     1     -46.568  57.490 -58.944  1.00  0.00     0.043 A 
HETATM   24  C   UNL     1     -46.523  56.517 -59.934  1.00  0.00     0.116 A 
HETATM   25  F   UNL     1     -47.664  55.975 -60.381  1.00  0.00    -0.206 F 
HETATM   26  C   UNL     1     -45.313  56.106 -60.472  1.00  0.00     0.043 A 
HETATM   27  C   UNL     1     -44.126  56.670 -60.001  1.00  0.00     0.013 A 
ENDBRANCH  19  21
BRANCH  19  28
HETATM   28  O   UNL     1     -41.772  57.248 -58.650  1.00  0.00    -0.384 OA
HETATM   29  H   UNL     1     -42.086  56.450 -58.191  1.00  0.00     0.211 HD
ENDBRANCH  19  28
ENDBRANCH  18  19
ENDBRANCH   1  18
TORSDOF 6
ENDMDL
MODEL 5
REMARK VINA RESULT:      -8.1      2.320      8.701
REMARK  6 active torsions:
REMARK  status: ('A' for Active; 'I' for Inactive)
REMARK    1  A    between atoms: C_2  and  C_4 
REMARK    2  A    between atoms: C_2  and  C_11 
REMARK    3  A    between atoms: C_2  and  O_3 
REMARK    4  A    between atoms: C_11  and  N_12 
REMARK       I    between atoms: N_12  and  C_13 
REMARK    5  A    between atoms: C_13  and  C_14 
REMARK    6  A    between atoms: C_18  and  C_19 
ROOT
HETATM    1  N   UNL     1     -41.815  56.348 -53.049  1.00  0.00    -0.352 N 
HETATM    2  C   UNL     1     -41.319  57.428 -53.741  1.00  0.00     0.272 C 
HETATM    3  O   UNL     1     -40.407  58.141 -53.332  1.00  0.00    -0.266 OA
HETATM    4  H   UNL     1     -42.632  55.905 -53.462  1.00  0.00     0.162 HD
ENDROOT
BRANCH   2   5
HETATM    5  C   UNL     1     -41.983  57.640 -55.035  1.00  0.00     0.146 A 
HETATM    6  N   UNL     1     -42.205  58.872 -55.536  1.00  0.00    -0.169 NA
HETATM    7  N   UNL     1     -42.858  58.637 -56.687  1.00  0.00    -0.277 N 
HETATM    8  H   UNL     1     -43.167  59.437 -57.227  1.00  0.00     0.189 HD
HETATM    9  C   UNL     1     -43.041  57.309 -56.985  1.00  0.00     0.063 A 
HETATM   10  C   UNL     1     -42.480  56.643 -55.911  1.00  0.00     0.071 A 
BRANCH   9  11
HETATM   11  C   UNL     1     -43.721  56.815 -58.186  1.00  0.00    -0.008 A 
HETATM   12  C   UNL     1     -44.693  57.582 -58.851  1.00  0.00     0.017 A 
HETATM   13  C   UNL     1     -45.332  57.091 -59.993  1.00  0.00     0.043 A 
HETATM   14  C   UNL     1     -45.001  55.834 -60.481  1.00  0.00     0.116 A 
HETATM   15  F   UNL     1     -45.614  55.366 -61.575  1.00  0.00    -0.206 F 
HETATM   16  C   UNL     1     -44.040  55.058 -59.848  1.00  0.00     0.043 A 
HETATM   17  C   UNL     1     -43.403  55.548 -58.704  1.00  0.00     0.017 A 
ENDBRANCH   9  11
ENDBRANCH   2   5
BRANCH   1  18
HETATM   18  C   UNL     1     -41.350  55.951 -51.731  1.00  0.00     0.165 C 
BRANCH  18  19
HETATM   19  C   UNL     1     -41.738  54.490 -51.365  1.00  0.00     0.097 C 
HETATM   20  C   UNL     1     -41.525  54.281 -49.861  1.00  0.00     0.053 C 
BRANCH  19  21
HETATM   21  C   UNL     1     -41.011  53.384 -52.140  1.00  0.00    -0.023 A 
HETATM   22  C   UNL     1     -41.239  53.142 -53.506  1.00  0.00     0.013 A 
HETATM   23  C   UNL     1     -40.559  52.122 -54.178  1.00  0.00     0.043 A 
HETATM   24  C   UNL     1     -39.631  51.347 -53.495  1.00  0.00     0.116 A 
HETATM   25  F   UNL     1     -38.982  50.370 -54.142  1.00  0.00    -0.206 F 
HETATM   26  C   UNL     1     -39.363  51.576 -52.154  1.00  0.00     0.043 A 
HETATM   27  C   UNL     1     -40.045  52.593 -51.483  1.00  0.00     0.013 A 
ENDBRANCH  19  21
BRANCH  19  28
HETATM   28  O   UNL     1     -43.153  54.373 -51.612  1.00  0.00    -0.384 OA
HETATM   29  H   UNL     1     -43.563  54.167 -50.754  1.00  0.00     0.211 HD
ENDBRANCH  19  28
ENDBRANCH  18  19
ENDBRANCH   1  18
TORSDOF 6
ENDMDL
MODEL 6
REMARK VINA RESULT:      -8.0      1.875      9.415
REMARK  6 active torsions:
REMARK  status: ('A' for Active; 'I' for Inactive)
REMARK    1  A    between atoms: C_2  and  C_4 
REMARK    2  A    between atoms: C_2  and  C_11 
REMARK    3  A    between atoms: C_2  and  O_3 
REMARK    4  A    between atoms: C_11  and  N_12 
REMARK       I    between atoms: N_12  and  C_13 
REMARK    5  A    between atoms: C_13  and  C_14 
REMARK    6  A    between atoms: C_18  and  C_19 
ROOT
HETATM    1  N   UNL     1     -41.819  55.665 -55.754  1.00  0.00    -0.352 N 
HETATM    2  C   UNL     1     -42.389  56.808 -56.262  1.00  0.00     0.272 C 
HETATM    3  O   UNL     1     -42.161  57.935 -55.833  1.00  0.00    -0.266 OA
HETATM    4  H   UNL     1     -42.169  54.794 -56.143  1.00  0.00     0.162 HD
ENDROOT
BRANCH   2   5
HETATM    5  C   UNL     1     -43.297  56.549 -57.389  1.00  0.00     0.146 A 
HETATM    6  N   UNL     1     -43.240  55.414 -58.114  1.00  0.00    -0.169 NA
HETATM    7  N   UNL     1     -44.186  55.584 -59.053  1.00  0.00    -0.277 N 
HETATM    8  H   UNL     1     -44.298  54.857 -59.750  1.00  0.00     0.189 HD
HETATM    9  C   UNL     1     -44.889  56.760 -58.955  1.00  0.00     0.063 A 
HETATM   10  C   UNL     1     -44.317  57.407 -57.875  1.00  0.00     0.071 A 
BRANCH   9  11
HETATM   11  C   UNL     1     -45.968  57.159 -59.864  1.00  0.00    -0.008 A 
HETATM   12  C   UNL     1     -46.716  56.210 -60.581  1.00  0.00     0.017 A 
HETATM   13  C   UNL     1     -47.739  56.611 -61.446  1.00  0.00     0.043 A 
HETATM   14  C   UNL     1     -48.024  57.962 -61.594  1.00  0.00     0.116 A 
HETATM   15  F   UNL     1     -49.005  58.344 -62.422  1.00  0.00    -0.206 F 
HETATM   16  C   UNL     1     -47.305  58.920 -60.894  1.00  0.00     0.043 A 
HETATM   17  C   UNL     1     -46.281  58.518 -60.031  1.00  0.00     0.017 A 
ENDBRANCH   9  11
ENDBRANCH   2   5
BRANCH   1  18
HETATM   18  C   UNL     1     -40.914  55.652 -54.617  1.00  0.00     0.165 C 
BRANCH  18  19
HETATM   19  C   UNL     1     -41.434  54.784 -53.436  1.00  0.00     0.097 C 
HETATM   20  C   UNL     1     -41.245  55.560 -52.127  1.00  0.00     0.053 C 
BRANCH  19  21
HETATM   21  C   UNL     1     -40.810  53.391 -53.296  1.00  0.00    -0.023 A 
HETATM   22  C   UNL     1     -40.244  52.933 -52.094  1.00  0.00     0.013 A 
HETATM   23  C   UNL     1     -39.681  51.656 -52.005  1.00  0.00     0.043 A 
HETATM   24  C   UNL     1     -39.695  50.819 -53.112  1.00  0.00     0.116 A 
HETATM   25  F   UNL     1     -39.155  49.597 -53.025  1.00  0.00    -0.206 F 
HETATM   26  C   UNL     1     -40.269  51.229 -54.306  1.00  0.00     0.043 A 
HETATM   27  C   UNL     1     -40.828  52.506 -54.395  1.00  0.00     0.013 A 
ENDBRANCH  19  21
BRANCH  19  28
HETATM   28  O   UNL     1     -42.854  54.635 -53.638  1.00  0.00    -0.384 OA
HETATM   29  H   UNL     1     -42.968  54.327 -54.554  1.00  0.00     0.211 HD
ENDBRANCH  19  28
ENDBRANCH  18  19
ENDBRANCH   1  18
TORSDOF 6
ENDMDL
MODEL 7
REMARK VINA RESULT:      -7.9      3.077      4.337
REMARK  6 active torsions:
REMARK  status: ('A' for Active; 'I' for Inactive)
REMARK    1  A    between atoms: C_2  and  C_4 
REMARK    2  A    between atoms: C_2  and  C_11 
REMARK    3  A    between atoms: C_2  and  O_3 
REMARK    4  A    between atoms: C_11  and  N_12 
REMARK       I    between atoms: N_12  and  C_13 
REMARK    5  A    between atoms: C_13  and  C_14 
REMARK    6  A    between atoms: C_18  and  C_19 
ROOT
HETATM    1  N   UNL     1     -42.103  57.435 -57.394  1.00  0.00    -0.352 N 
HETATM    2  C   UNL     1     -42.868  56.296 -57.317  1.00  0.00     0.272 C 
HETATM    3  O   UNL     1     -43.647  55.936 -58.195  1.00  0.00    -0.266 OA
HETATM    4  H   UNL     1     -41.574  57.662 -56.556  1.00  0.00     0.162 HD
ENDROOT
BRANCH   2   5
HETATM    5  C   UNL     1     -42.653  55.537 -56.077  1.00  0.00     0.146 A 
HETATM    6  N   UNL     1     -43.460  55.666 -55.005  1.00  0.00    -0.169 NA
HETATM    7  N   UNL     1     -42.908  54.854 -54.088  1.00  0.00    -0.277 N 
HETATM    8  H   UNL     1     -43.333  54.819 -53.168  1.00  0.00     0.189 HD
HETATM    9  C   UNL     1     -41.799  54.167 -54.519  1.00  0.00     0.063 A 
HETATM   10  C   UNL     1     -41.614  54.607 -55.817  1.00  0.00     0.071 A 
BRANCH   9  11
HETATM   11  C   UNL     1     -41.036  53.224 -53.696  1.00  0.00    -0.008 A 
HETATM   12  C   UNL     1     -40.526  52.028 -54.228  1.00  0.00     0.017 A 
HETATM   13  C   UNL     1     -39.803  51.140 -53.425  1.00  0.00     0.043 A 
HETATM   14  C   UNL     1     -39.580  51.446 -52.089  1.00  0.00     0.116 A 
HETATM   15  F   UNL     1     -38.886  50.595 -51.323  1.00  0.00    -0.206 F 
HETATM   16  C   UNL     1     -40.066  52.624 -51.540  1.00  0.00     0.043 A 
HETATM   17  C   UNL     1     -40.791  53.509 -52.342  1.00  0.00     0.017 A 
ENDBRANCH   9  11
ENDBRANCH   2   5
BRANCH   1  18
HETATM   18  C   UNL     1     -42.160  58.373 -58.503  1.00  0.00     0.165 C 
BRANCH  18  19
HETATM   19  C   UNL     1     -42.246  59.855 -58.042  1.00  0.00     0.097 C 
HETATM   20  C   UNL     1     -43.722  60.246 -57.896  1.00  0.00     0.053 C 
BRANCH  19  21
HETATM   21  C   UNL     1     -41.534  60.881 -58.931  1.00  0.00    -0.023 A 
HETATM   22  C   UNL     1     -40.579  61.783 -58.430  1.00  0.00     0.013 A 
HETATM   23  C   UNL     1     -39.953  62.707 -59.272  1.00  0.00     0.043 A 
HETATM   24  C   UNL     1     -40.262  62.726 -60.625  1.00  0.00     0.116 A 
HETATM   25  F   UNL     1     -39.661  63.613 -61.429  1.00  0.00    -0.206 F 
HETATM   26  C   UNL     1     -41.181  61.834 -61.157  1.00  0.00     0.043 A 
HETATM   27  C   UNL     1     -41.809  60.913 -60.315  1.00  0.00     0.013 A 
ENDBRANCH  19  21
BRANCH  19  28
HETATM   28  O   UNL     1     -41.664  59.904 -56.724  1.00  0.00    -0.384 OA
HETATM   29  H   UNL     1     -41.144  59.087 -56.626  1.00  0.00     0.211 HD
ENDBRANCH  19  28
ENDBRANCH  18  19
ENDBRANCH   1  18
TORSDOF 6
ENDMDL
MODEL 8
REMARK VINA RESULT:      -7.9      3.129      9.444
REMARK  6 active torsions:
REMARK  status: ('A' for Active; 'I' for Inactive)
REMARK    1  A    between atoms: C_2  and  C_4 
REMARK    2  A    between atoms: C_2  and  C_11 
REMARK    3  A    between atoms: C_2  and  O_3 
REMARK    4  A    between atoms: C_11  and  N_12 
REMARK       I    between atoms: N_12  and  C_13 
REMARK    5  A    between atoms: C_13  and  C_14 
REMARK    6  A    between atoms: C_18  and  C_19 
ROOT
HETATM    1  N   UNL     1     -42.413  54.888 -55.834  1.00  0.00    -0.352 N 
HETATM    2  C   UNL     1     -43.133  56.060 -55.818  1.00  0.00     0.272 C 
HETATM    3  O   UNL     1     -43.832  56.420 -54.876  1.00  0.00    -0.266 OA
HETATM    4  H   UNL     1     -41.954  54.671 -56.714  1.00  0.00     0.162 HD
ENDROOT
BRANCH   2   5
HETATM    5  C   UNL     1     -42.972  56.853 -57.046  1.00  0.00     0.146 A 
HETATM    6  N   UNL     1     -43.323  56.381 -58.258  1.00  0.00    -0.169 NA
HETATM    7  N   UNL     1     -42.983  57.373 -59.099  1.00  0.00    -0.277 N 
HETATM    8  H   UNL     1     -43.123  57.221 -60.092  1.00  0.00     0.189 HD
HETATM    9  C   UNL     1     -42.463  58.490 -58.493  1.00  0.00     0.063 A 
HETATM   10  C   UNL     1     -42.442  58.164 -57.149  1.00  0.00     0.071 A 
BRANCH   9  11
HETATM   11  C   UNL     1     -42.028  59.694 -59.206  1.00  0.00    -0.008 A 
HETATM   12  C   UNL     1     -41.474  60.793 -58.527  1.00  0.00     0.017 A 
HETATM   13  C   UNL     1     -41.068  61.934 -59.226  1.00  0.00     0.043 A 
HETATM   14  C   UNL     1     -41.207  61.981 -60.607  1.00  0.00     0.116 A 
HETATM   15  F   UNL     1     -40.816  63.074 -61.274  1.00  0.00    -0.206 F 
HETATM   16  C   UNL     1     -41.745  60.908 -61.303  1.00  0.00     0.043 A 
HETATM   17  C   UNL     1     -42.153  59.768 -60.604  1.00  0.00     0.017 A 
ENDBRANCH   9  11
ENDBRANCH   2   5
BRANCH   1  18
HETATM   18  C   UNL     1     -42.433  53.915 -54.754  1.00  0.00     0.165 C 
BRANCH  18  19
HETATM   19  C   UNL     1     -41.109  53.887 -53.939  1.00  0.00     0.097 C 
HETATM   20  C   UNL     1     -40.031  54.658 -54.712  1.00  0.00     0.053 C 
BRANCH  19  21
HETATM   21  C   UNL     1     -40.573  52.499 -53.569  1.00  0.00    -0.023 A 
HETATM   22  C   UNL     1     -40.613  51.411 -54.458  1.00  0.00     0.013 A 
HETATM   23  C   UNL     1     -40.117  50.158 -54.083  1.00  0.00     0.043 A 
HETATM   24  C   UNL     1     -39.561  49.987 -52.823  1.00  0.00     0.116 A 
HETATM   25  F   UNL     1     -39.088  48.786 -52.466  1.00  0.00    -0.206 F 
HETATM   26  C   UNL     1     -39.483  51.045 -51.930  1.00  0.00     0.043 A 
HETATM   27  C   UNL     1     -39.981  52.296 -52.304  1.00  0.00     0.013 A 
ENDBRANCH  19  21
BRANCH  19  28
HETATM   28  O   UNL     1     -41.364  54.622 -52.725  1.00  0.00    -0.384 OA
HETATM   29  H   UNL     1     -41.999  54.090 -52.214  1.00  0.00     0.211 HD
ENDBRANCH  19  28
ENDBRANCH  18  19
ENDBRANCH   1  18
TORSDOF 6
ENDMDL
MODEL 9
REMARK VINA RESULT:      -7.9      5.828      7.059
REMARK  6 active torsions:
REMARK  status: ('A' for Active; 'I' for Inactive)
REMARK    1  A    between atoms: C_2  and  C_4 
REMARK    2  A    between atoms: C_2  and  C_11 
REMARK    3  A    between atoms: C_2  and  O_3 
REMARK    4  A    between atoms: C_11  and  N_12 
REMARK       I    between atoms: N_12  and  C_13 
REMARK    5  A    between atoms: C_13  and  C_14 
REMARK    6  A    between atoms: C_18  and  C_19 
ROOT
HETATM    1  N   UNL     1     -44.112  57.987 -52.658  1.00  0.00    -0.352 N 
HETATM    2  C   UNL     1     -44.352  57.269 -51.511  1.00  0.00     0.272 C 
HETATM    3  O   UNL     1     -45.064  57.665 -50.593  1.00  0.00    -0.266 OA
HETATM    4  H   UNL     1     -43.429  57.580 -53.292  1.00  0.00     0.162 HD
ENDROOT
BRANCH   2   5
HETATM    5  C   UNL     1     -43.678  55.962 -51.496  1.00  0.00     0.146 A 
HETATM    6  N   UNL     1     -43.936  55.031 -50.555  1.00  0.00    -0.169 NA
HETATM    7  N   UNL     1     -43.101  54.024 -50.864  1.00  0.00    -0.277 N 
HETATM    8  H   UNL     1     -43.092  53.213 -50.256  1.00  0.00     0.189 HD
HETATM    9  C   UNL     1     -42.336  54.233 -51.986  1.00  0.00     0.063 A 
HETATM   10  C   UNL     1     -42.696  55.499 -52.408  1.00  0.00     0.071 A 
BRANCH   9  11
HETATM   11  C   UNL     1     -41.361  53.275 -52.515  1.00  0.00    -0.008 A 
HETATM   12  C   UNL     1     -40.395  52.675 -51.690  1.00  0.00     0.017 A 
HETATM   13  C   UNL     1     -39.472  51.766 -52.215  1.00  0.00     0.043 A 
HETATM   14  C   UNL     1     -39.513  51.446 -53.565  1.00  0.00     0.116 A 
HETATM   15  F   UNL     1     -38.628  50.574 -54.066  1.00  0.00    -0.206 F 
HETATM   16  C   UNL     1     -40.461  52.018 -54.402  1.00  0.00     0.043 A 
HETATM   17  C   UNL     1     -41.382  52.929 -53.877  1.00  0.00     0.017 A 
ENDBRANCH   9  11
ENDBRANCH   2   5
BRANCH   1  18
HETATM   18  C   UNL     1     -44.635  59.322 -52.899  1.00  0.00     0.165 C 
BRANCH  18  19
HETATM   19  C   UNL     1     -43.547  60.428 -52.794  1.00  0.00     0.097 C 
HETATM   20  C   UNL     1     -43.331  61.046 -54.181  1.00  0.00     0.053 C 
BRANCH  19  21
HETATM   21  C   UNL     1     -42.196  59.994 -52.215  1.00  0.00    -0.023 A 
HETATM   22  C   UNL     1     -41.186  59.415 -53.003  1.00  0.00     0.013 A 
HETATM   23  C   UNL     1     -39.966  59.029 -52.438  1.00  0.00     0.043 A 
HETATM   24  C   UNL     1     -39.739  59.233 -51.084  1.00  0.00     0.116 A 
HETATM   25  F   UNL     1     -38.571  58.862 -50.545  1.00  0.00    -0.206 F 
HETATM   26  C   UNL     1     -40.705  59.825 -50.283  1.00  0.00     0.043 A 
HETATM   27  C   UNL     1     -41.923  60.208 -50.847  1.00  0.00     0.013 A 
ENDBRANCH  19  21
BRANCH  19  28
HETATM   28  O   UNL     1     -44.099  61.461 -51.953  1.00  0.00    -0.384 OA
HETATM   29  H   UNL     1     -44.656  61.007 -51.296  1.00  0.00     0.211 HD
ENDBRANCH  19  28
ENDBRANCH  18  19
ENDBRANCH   1  18
TORSDOF 6
ENDMDL
MODEL 10
REMARK VINA RESULT:      -7.8      2.708      3.377
REMARK  6 active torsions:
REMARK  status: ('A' for Active; 'I' for Inactive)
REMARK    1  A    between atoms: C_2  and  C_4 
REMARK    2  A    between atoms: C_2  and  C_11 
REMARK    3  A    between atoms: C_2  and  O_3 
REMARK    4  A    between atoms: C_11  and  N_12 
REMARK       I    between atoms: N_12  and  C_13 
REMARK    5  A    between atoms: C_13  and  C_14 
REMARK    6  A    between atoms: C_18  and  C_19 
ROOT
HETATM    1  N   UNL     1     -42.910  58.662 -54.350  1.00  0.00    -0.352 N 
HETATM    2  C   UNL     1     -41.706  58.569 -53.694  1.00  0.00     0.272 C 
HETATM    3  O   UNL     1     -40.920  59.504 -53.572  1.00  0.00    -0.266 OA
HETATM    4  H   UNL     1     -43.417  57.787 -54.456  1.00  0.00     0.162 HD
ENDROOT
BRANCH   2   5
HETATM    5  C   UNL     1     -41.453  57.233 -53.136  1.00  0.00     0.146 A 
HETATM    6  N   UNL     1     -41.510  56.982 -51.813  1.00  0.00    -0.169 NA
HETATM    7  N   UNL     1     -41.181  55.682 -51.718  1.00  0.00    -0.277 N 
HETATM    8  H   UNL     1     -41.120  55.276 -50.791  1.00  0.00     0.189 HD
HETATM    9  C   UNL     1     -40.948  55.058 -52.918  1.00  0.00     0.063 A 
HETATM   10  C   UNL     1     -41.115  56.059 -53.857  1.00  0.00     0.071 A 
BRANCH   9  11
HETATM   11  C   UNL     1     -40.579  53.646 -53.061  1.00  0.00    -0.008 A 
HETATM   12  C   UNL     1     -40.804  52.943 -54.256  1.00  0.00     0.017 A 
HETATM   13  C   UNL     1     -40.447  51.596 -54.370  1.00  0.00     0.043 A 
HETATM   14  C   UNL     1     -39.859  50.945 -53.293  1.00  0.00     0.116 A 
HETATM   15  F   UNL     1     -39.518  49.656 -53.405  1.00  0.00    -0.206 F 
HETATM   16  C   UNL     1     -39.620  51.618 -52.103  1.00  0.00     0.043 A 
HETATM   17  C   UNL     1     -39.979  52.964 -51.989  1.00  0.00     0.017 A 
ENDBRANCH   9  11
ENDBRANCH   2   5
BRANCH   1  18
HETATM   18  C   UNL     1     -43.375  59.867 -55.016  1.00  0.00     0.165 C 
BRANCH  18  19
HETATM   19  C   UNL     1     -42.769  60.047 -56.437  1.00  0.00     0.097 C 
HETATM   20  C   UNL     1     -43.485  61.205 -57.141  1.00  0.00     0.053 C 
BRANCH  19  21
HETATM   21  C   UNL     1     -42.792  58.809 -57.342  1.00  0.00    -0.023 A 
HETATM   22  C   UNL     1     -43.597  57.689 -57.073  1.00  0.00     0.013 A 
HETATM   23  C   UNL     1     -43.590  56.578 -57.921  1.00  0.00     0.043 A 
HETATM   24  C   UNL     1     -42.790  56.583 -59.055  1.00  0.00     0.116 A 
HETATM   25  F   UNL     1     -42.784  55.516 -59.865  1.00  0.00    -0.206 F 
HETATM   26  C   UNL     1     -42.003  57.682 -59.365  1.00  0.00     0.043 A 
HETATM   27  C   UNL     1     -42.008  58.791 -58.516  1.00  0.00     0.013 A 
ENDBRANCH  19  21
BRANCH  19  28
HETATM   28  O   UNL     1     -41.399  60.452 -56.245  1.00  0.00    -0.384 OA
HETATM   29  H   UNL     1     -40.854  59.671 -56.446  1.00  0.00     0.211 HD
ENDBRANCH  19  28
ENDBRANCH  18  19
ENDBRANCH   1  18
TORSDOF 6
ENDMDL
