MODEL 1
REMARK VINA RESULT:      -7.4      0.000      0.000
REMARK  8 active torsions:
REMARK  status: ('A' for Active; 'I' for Inactive)
REMARK    1  A    between atoms: C_2  and  N_3 
REMARK    2  A    between atoms: C_2  and  C_17 
REMARK    3  A    between atoms: N_3  and  C_6 
REMARK    4  A    between atoms: C_6  and  C_7 
REMARK    5  A    between atoms: C_7  and  O_8 
REMARK    6  A    between atoms: C_7  and  C_9 
REMARK    7  A    between atoms: C_11  and  O_12 
REMARK    8  A    between atoms: C_17  and  C_18 
ROOT
HETATM    1  N   UNL     1     -43.348  55.469 -53.765  1.00  0.00    -0.068 N 
HETATM    2  H   UNL     1     -43.195  54.490 -54.047  1.00  0.00     0.277 HD
HETATM    3  H   UNL     1     -44.378  55.585 -53.768  1.00  0.00     0.277 HD
ENDROOT
BRANCH   1   4
HETATM    4  C   UNL     1     -42.749  55.698 -52.399  1.00  0.00     0.188 C 
HETATM    5  C   UNL     1     -43.176  57.102 -51.962  1.00  0.00     0.040 C 
BRANCH   4   6
HETATM    6  C   UNL     1     -41.216  55.555 -52.446  1.00  0.00     0.099 C 
BRANCH   6   7
HETATM    7  C   UNL     1     -40.803  54.117 -52.532  1.00  0.00     0.078 A 
HETATM    8  S   UNL     1     -40.226  53.300 -51.141  1.00  0.00    -0.073 SA
HETATM    9  C   UNL     1     -39.993  51.872 -52.077  1.00  0.00     0.035 A 
HETATM   10  C   UNL     1     -40.375  52.127 -53.396  1.00  0.00     0.074 A 
HETATM   11  C   UNL     1     -39.508  50.617 -51.674  1.00  0.00     0.021 A 
HETATM   12  N   UNL     1     -40.828  53.418 -53.642  1.00  0.00    -0.245 NA
HETATM   13  C   UNL     1     -40.275  51.091 -54.345  1.00  0.00     0.033 A 
HETATM   14  C   UNL     1     -39.795  49.836 -53.953  1.00  0.00     0.002 A 
HETATM   15  C   UNL     1     -39.417  49.605 -52.635  1.00  0.00     0.002 A 
ENDBRANCH   6   7
ENDBRANCH   4   6
ENDBRANCH   1   4
BRANCH   1  16
HETATM   16  C   UNL     1     -42.830  56.334 -54.893  1.00  0.00     0.269 C 
BRANCH  16  17
HETATM   17  C   UNL     1     -42.712  55.458 -56.161  1.00  0.00     0.177 C 
BRANCH  17  18
HETATM   18  O   UNL     1     -41.422  54.828 -56.112  1.00  0.00    -0.389 OA
HETATM   19  H   UNL     1     -40.830  55.454 -55.645  1.00  0.00     0.210 HD
ENDBRANCH  17  18
BRANCH  17  20
HETATM   20  C   UNL     1     -42.862  56.275 -57.426  1.00  0.00    -0.025 A 
HETATM   21  C   UNL     1     -43.274  55.634 -58.611  1.00  0.00     0.046 A 
HETATM   22  C   UNL     1     -43.465  56.362 -59.788  1.00  0.00     0.068 A 
HETATM   23  C   UNL     1     -43.262  57.741 -59.779  1.00  0.00     0.037 A 
HETATM   24  C   UNL     1     -42.845  58.390 -58.620  1.00  0.00     0.003 A 
HETATM   25  C   UNL     1     -42.640  57.662 -57.449  1.00  0.00     0.010 A 
BRANCH  22  26
HETATM   26  O   UNL     1     -43.867  55.850 -60.989  1.00  0.00    -0.356 OA
HETATM   27  C   UNL     1     -45.062  55.078 -61.001  1.00  0.00     0.210 C 
ENDBRANCH  22  26
ENDBRANCH  17  20
ENDBRANCH  16  17
ENDBRANCH   1  16
TORSDOF 8
ENDMDL
MODEL 2
REMARK VINA RESULT:      -7.3      2.747      7.621
REMARK  8 active torsions:
REMARK  status: ('A' for Active; 'I' for Inactive)
REMARK    1  A    between atoms: C_2  and  N_3 
REMARK    2  A    between atoms: C_2  and  C_17 
REMARK    3  A    between atoms: N_3  and  C_6 
REMARK    4  A    between atoms: C_6  and  C_7 
REMARK    5  A    between atoms: C_7  and  O_8 
REMARK    6  A    between atoms: C_7  and  C_9 
REMARK    7  A    between atoms: C_11  and  O_12 
REMARK    8  A    between atoms: C_17  and  C_18 
ROOT
HETATM    1  N   UNL     1     -43.846  55.837 -55.000  1.00  0.00    -0.068 N 
HETATM    2  H   UNL     1     -44.769  55.844 -54.541  1.00  0.00     0.277 HD
HETATM    3  H   UNL     1     -44.057  55.765 -56.012  1.00  0.00     0.277 HD
ENDROOT
BRANCH   1   4
HETATM    4  C   UNL     1     -43.106  57.107 -54.658  1.00  0.00     0.188 C 
HETATM    5  C   UNL     1     -44.037  57.931 -53.764  1.00  0.00     0.040 C 
BRANCH   4   6
HETATM    6  C   UNL     1     -42.717  57.872 -55.937  1.00  0.00     0.099 C 
BRANCH   6   7
HETATM    7  C   UNL     1     -43.462  57.357 -57.131  1.00  0.00     0.078 A 
HETATM    8  S   UNL     1     -44.893  58.137 -57.657  1.00  0.00    -0.073 SA
HETATM    9  C   UNL     1     -45.058  56.979 -58.923  1.00  0.00     0.035 A 
HETATM   10  C   UNL     1     -43.999  56.072 -58.848  1.00  0.00     0.074 A 
HETATM   11  C   UNL     1     -46.052  56.881 -59.910  1.00  0.00     0.021 A 
HETATM   12  N   UNL     1     -43.099  56.296 -57.813  1.00  0.00    -0.245 NA
HETATM   13  C   UNL     1     -43.926  55.033 -59.797  1.00  0.00     0.033 A 
HETATM   14  C   UNL     1     -44.909  54.927 -60.787  1.00  0.00     0.002 A 
HETATM   15  C   UNL     1     -45.958  55.840 -60.840  1.00  0.00     0.002 A 
ENDBRANCH   6   7
ENDBRANCH   4   6
ENDBRANCH   1   4
BRANCH   1  16
HETATM   16  C   UNL     1     -43.179  54.533 -54.621  1.00  0.00     0.269 C 
BRANCH  16  17
HETATM   17  C   UNL     1     -41.656  54.777 -54.525  1.00  0.00     0.177 C 
BRANCH  17  18
HETATM   18  O   UNL     1     -41.117  54.565 -55.839  1.00  0.00    -0.389 OA
HETATM   19  H   UNL     1     -40.507  53.802 -55.765  1.00  0.00     0.210 HD
ENDBRANCH  17  18
BRANCH  17  20
HETATM   20  C   UNL     1     -41.000  53.854 -53.521  1.00  0.00    -0.025 A 
HETATM   21  C   UNL     1     -40.557  52.586 -53.943  1.00  0.00     0.046 A 
HETATM   22  C   UNL     1     -39.910  51.723 -53.057  1.00  0.00     0.068 A 
HETATM   23  C   UNL     1     -39.685  52.135 -51.744  1.00  0.00     0.037 A 
HETATM   24  C   UNL     1     -40.125  53.381 -51.306  1.00  0.00     0.003 A 
HETATM   25  C   UNL     1     -40.784  54.237 -52.186  1.00  0.00     0.010 A 
BRANCH  22  26
HETATM   26  O   UNL     1     -39.434  50.478 -53.355  1.00  0.00    -0.356 OA
HETATM   27  C   UNL     1     -39.807  49.921 -54.610  1.00  0.00     0.210 C 
ENDBRANCH  22  26
ENDBRANCH  17  20
ENDBRANCH  16  17
ENDBRANCH   1  16
TORSDOF 8
ENDMDL
MODEL 3
REMARK VINA RESULT:      -7.1      2.596      7.657
REMARK  8 active torsions:
REMARK  status: ('A' for Active; 'I' for Inactive)
REMARK    1  A    between atoms: C_2  and  N_3 
REMARK    2  A    between atoms: C_2  and  C_17 
REMARK    3  A    between atoms: N_3  and  C_6 
REMARK    4  A    between atoms: C_6  and  C_7 
REMARK    5  A    between atoms: C_7  and  O_8 
REMARK    6  A    between atoms: C_7  and  C_9 
REMARK    7  A    between atoms: C_11  and  O_12 
REMARK    8  A    between atoms: C_17  and  C_18 
ROOT
HETATM    1  N   UNL     1     -44.220  55.278 -54.119  1.00  0.00    -0.068 N 
HETATM    2  H   UNL     1     -44.719  54.880 -53.311  1.00  0.00     0.277 HD
HETATM    3  H   UNL     1     -44.958  55.449 -54.826  1.00  0.00     0.277 HD
ENDROOT
BRANCH   1   4
HETATM    4  C   UNL     1     -43.522  56.549 -53.702  1.00  0.00     0.188 C 
HETATM    5  C   UNL     1     -43.723  56.685 -52.190  1.00  0.00     0.040 C 
BRANCH   4   6
HETATM    6  C   UNL     1     -44.092  57.760 -54.465  1.00  0.00     0.099 C 
BRANCH   6   7
HETATM    7  C   UNL     1     -43.558  57.825 -55.864  1.00  0.00     0.078 A 
HETATM    8  S   UNL     1     -42.855  59.272 -56.453  1.00  0.00    -0.073 SA
HETATM    9  C   UNL     1     -42.578  58.517 -57.976  1.00  0.00     0.035 A 
HETATM   10  C   UNL     1     -43.049  57.203 -57.923  1.00  0.00     0.074 A 
HETATM   11  C   UNL     1     -41.987  59.048 -59.134  1.00  0.00     0.021 A 
HETATM   12  N   UNL     1     -43.614  56.825 -56.711  1.00  0.00    -0.245 NA
HETATM   13  C   UNL     1     -42.920  56.388 -59.066  1.00  0.00     0.033 A 
HETATM   14  C   UNL     1     -42.330  56.906 -60.224  1.00  0.00     0.002 A 
HETATM   15  C   UNL     1     -41.871  58.219 -60.255  1.00  0.00     0.002 A 
ENDBRANCH   6   7
ENDBRANCH   4   6
ENDBRANCH   1   4
BRANCH   1  16
HETATM   16  C   UNL     1     -43.352  54.175 -54.684  1.00  0.00     0.269 C 
BRANCH  16  17
HETATM   17  C   UNL     1     -41.875  54.622 -54.587  1.00  0.00     0.177 C 
BRANCH  17  18
HETATM   18  O   UNL     1     -41.384  54.730 -55.933  1.00  0.00    -0.389 OA
HETATM   19  H   UNL     1     -41.582  53.873 -56.365  1.00  0.00     0.210 HD
ENDBRANCH  17  18
BRANCH  17  20
HETATM   20  C   UNL     1     -41.042  53.643 -53.789  1.00  0.00    -0.025 A 
HETATM   21  C   UNL     1     -40.940  53.807 -52.394  1.00  0.00     0.046 A 
HETATM   22  C   UNL     1     -40.215  52.900 -51.618  1.00  0.00     0.068 A 
HETATM   23  C   UNL     1     -39.603  51.809 -52.235  1.00  0.00     0.037 A 
HETATM   24  C   UNL     1     -39.684  51.637 -53.615  1.00  0.00     0.003 A 
HETATM   25  C   UNL     1     -40.395  52.550 -54.391  1.00  0.00     0.010 A 
BRANCH  22  26
HETATM   26  O   UNL     1     -40.054  52.955 -50.263  1.00  0.00    -0.356 OA
HETATM   27  C   UNL     1     -39.777  54.228 -49.692  1.00  0.00     0.210 C 
ENDBRANCH  22  26
ENDBRANCH  17  20
ENDBRANCH  16  17
ENDBRANCH   1  16
TORSDOF 8
ENDMDL
MODEL 4
REMARK VINA RESULT:      -6.8     14.542     16.539
REMARK  8 active torsions:
REMARK  status: ('A' for Active; 'I' for Inactive)
REMARK    1  A    between atoms: C_2  and  N_3 
REMARK    2  A    between atoms: C_2  and  C_17 
REMARK    3  A    between atoms: N_3  and  C_6 
REMARK    4  A    between atoms: C_6  and  C_7 
REMARK    5  A    between atoms: C_7  and  O_8 
REMARK    6  A    between atoms: C_7  and  C_9 
REMARK    7  A    between atoms: C_11  and  O_12 
REMARK    8  A    between atoms: C_17  and  C_18 
ROOT
HETATM    1  N   UNL     1     -33.018  40.949 -52.531  1.00  0.00    -0.068 N 
HETATM    2  H   UNL     1     -33.355  41.532 -53.311  1.00  0.00     0.277 HD
HETATM    3  H   UNL     1     -32.060  41.294 -52.341  1.00  0.00     0.277 HD
ENDROOT
BRANCH   1   4
HETATM    4  C   UNL     1     -33.935  41.119 -51.345  1.00  0.00     0.188 C 
HETATM    5  C   UNL     1     -34.588  39.756 -51.096  1.00  0.00     0.040 C 
BRANCH   4   6
HETATM    6  C   UNL     1     -34.983  42.214 -51.618  1.00  0.00     0.099 C 
BRANCH   6   7
HETATM    7  C   UNL     1     -35.620  42.039 -52.963  1.00  0.00     0.078 A 
HETATM    8  S   UNL     1     -37.190  41.367 -53.093  1.00  0.00    -0.073 SA
HETATM    9  C   UNL     1     -37.107  41.507 -54.808  1.00  0.00     0.035 A 
HETATM   10  C   UNL     1     -35.873  42.060 -55.159  1.00  0.00     0.074 A 
HETATM   11  C   UNL     1     -38.063  41.153 -55.774  1.00  0.00     0.021 A 
HETATM   12  N   UNL     1     -35.030  42.351 -54.093  1.00  0.00    -0.245 NA
HETATM   13  C   UNL     1     -35.586  42.272 -56.522  1.00  0.00     0.033 A 
HETATM   14  C   UNL     1     -36.533  41.926 -57.492  1.00  0.00     0.002 A 
HETATM   15  C   UNL     1     -37.754  41.373 -57.120  1.00  0.00     0.002 A 
ENDBRANCH   6   7
ENDBRANCH   4   6
ENDBRANCH   1   4
BRANCH   1  16
HETATM   16  C   UNL     1     -32.855  39.546 -53.075  1.00  0.00     0.269 C 
BRANCH  16  17
HETATM   17  C   UNL     1     -32.674  39.638 -54.607  1.00  0.00     0.177 C 
BRANCH  17  18
HETATM   18  O   UNL     1     -32.477  41.026 -54.921  1.00  0.00    -0.389 OA
HETATM   19  H   UNL     1     -32.370  41.074 -55.893  1.00  0.00     0.210 HD
ENDBRANCH  17  18
BRANCH  17  20
HETATM   20  C   UNL     1     -33.871  39.085 -55.349  1.00  0.00    -0.025 A 
HETATM   21  C   UNL     1     -33.841  39.034 -56.757  1.00  0.00     0.046 A 
HETATM   22  C   UNL     1     -34.909  38.491 -57.475  1.00  0.00     0.068 A 
HETATM   23  C   UNL     1     -36.007  37.978 -56.785  1.00  0.00     0.037 A 
HETATM   24  C   UNL     1     -36.058  38.030 -55.395  1.00  0.00     0.003 A 
HETATM   25  C   UNL     1     -34.999  38.585 -54.678  1.00  0.00     0.010 A 
BRANCH  22  26
HETATM   26  O   UNL     1     -34.987  38.384 -58.835  1.00  0.00    -0.356 OA
HETATM   27  C   UNL     1     -36.109  38.982 -59.472  1.00  0.00     0.210 C 
ENDBRANCH  22  26
ENDBRANCH  17  20
ENDBRANCH  16  17
ENDBRANCH   1  16
TORSDOF 8
ENDMDL
MODEL 5
REMARK VINA RESULT:      -6.8     14.265     17.034
REMARK  8 active torsions:
REMARK  status: ('A' for Active; 'I' for Inactive)
REMARK    1  A    between atoms: C_2  and  N_3 
REMARK    2  A    between atoms: C_2  and  C_17 
REMARK    3  A    between atoms: N_3  and  C_6 
REMARK    4  A    between atoms: C_6  and  C_7 
REMARK    5  A    between atoms: C_7  and  O_8 
REMARK    6  A    between atoms: C_7  and  C_9 
REMARK    7  A    between atoms: C_11  and  O_12 
REMARK    8  A    between atoms: C_17  and  C_18 
ROOT
HETATM    1  N   UNL     1     -34.861  41.479 -57.318  1.00  0.00    -0.068 N 
HETATM    2  H   UNL     1     -34.515  41.637 -58.275  1.00  0.00     0.277 HD
HETATM    3  H   UNL     1     -34.476  42.267 -56.767  1.00  0.00     0.277 HD
ENDROOT
BRANCH   1   4
HETATM    4  C   UNL     1     -36.370  41.468 -57.324  1.00  0.00     0.188 C 
HETATM    5  C   UNL     1     -36.806  41.841 -58.744  1.00  0.00     0.040 C 
BRANCH   4   6
HETATM    6  C   UNL     1     -36.927  42.451 -56.278  1.00  0.00     0.099 C 
BRANCH   6   7
HETATM    7  C   UNL     1     -36.607  42.005 -54.884  1.00  0.00     0.078 A 
HETATM    8  S   UNL     1     -37.473  40.711 -54.171  1.00  0.00    -0.073 SA
HETATM    9  C   UNL     1     -36.555  40.893 -52.725  1.00  0.00     0.035 A 
HETATM   10  C   UNL     1     -35.645  41.940 -52.894  1.00  0.00     0.074 A 
HETATM   11  C   UNL     1     -36.631  40.162 -51.528  1.00  0.00     0.021 A 
HETATM   12  N   UNL     1     -35.693  42.572 -54.130  1.00  0.00    -0.245 NA
HETATM   13  C   UNL     1     -34.779  42.266 -51.831  1.00  0.00     0.033 A 
HETATM   14  C   UNL     1     -34.845  41.542 -50.635  1.00  0.00     0.002 A 
HETATM   15  C   UNL     1     -35.761  40.505 -50.488  1.00  0.00     0.002 A 
ENDBRANCH   6   7
ENDBRANCH   4   6
ENDBRANCH   1   4
BRANCH   1  16
HETATM   16  C   UNL     1     -34.170  40.236 -56.803  1.00  0.00     0.269 C 
BRANCH  16  17
HETATM   17  C   UNL     1     -33.054  40.670 -55.826  1.00  0.00     0.177 C 
BRANCH  17  18
HETATM   18  O   UNL     1     -31.805  40.473 -56.507  1.00  0.00    -0.389 OA
HETATM   19  H   UNL     1     -31.245  41.244 -56.280  1.00  0.00     0.210 HD
ENDBRANCH  17  18
BRANCH  17  20
HETATM   20  C   UNL     1     -33.093  39.878 -54.538  1.00  0.00    -0.025 A 
HETATM   21  C   UNL     1     -32.241  40.247 -53.479  1.00  0.00     0.046 A 
HETATM   22  C   UNL     1     -32.279  39.567 -52.260  1.00  0.00     0.068 A 
HETATM   23  C   UNL     1     -33.186  38.522 -52.088  1.00  0.00     0.037 A 
HETATM   24  C   UNL     1     -34.028  38.136 -53.127  1.00  0.00     0.003 A 
HETATM   25  C   UNL     1     -33.981  38.805 -54.348  1.00  0.00     0.010 A 
BRANCH  22  26
HETATM   26  O   UNL     1     -31.507  39.841 -51.166  1.00  0.00    -0.356 OA
HETATM   27  C   UNL     1     -31.957  39.344 -49.911  1.00  0.00     0.210 C 
ENDBRANCH  22  26
ENDBRANCH  17  20
ENDBRANCH  16  17
ENDBRANCH   1  16
TORSDOF 8
ENDMDL
MODEL 6
REMARK VINA RESULT:      -6.7      1.439      2.226
REMARK  8 active torsions:
REMARK  status: ('A' for Active; 'I' for Inactive)
REMARK    1  A    between atoms: C_2  and  N_3 
REMARK    2  A    between atoms: C_2  and  C_17 
REMARK    3  A    between atoms: N_3  and  C_6 
REMARK    4  A    between atoms: C_6  and  C_7 
REMARK    5  A    between atoms: C_7  and  O_8 
REMARK    6  A    between atoms: C_7  and  C_9 
REMARK    7  A    between atoms: C_11  and  O_12 
REMARK    8  A    between atoms: C_17  and  C_18 
ROOT
HETATM    1  N   UNL     1     -43.466  55.772 -53.893  1.00  0.00    -0.068 N 
HETATM    2  H   UNL     1     -42.819  54.983 -54.031  1.00  0.00     0.277 HD
HETATM    3  H   UNL     1     -44.408  55.341 -53.889  1.00  0.00     0.277 HD
ENDROOT
BRANCH   1   4
HETATM    4  C   UNL     1     -43.146  56.461 -52.589  1.00  0.00     0.188 C 
HETATM    5  C   UNL     1     -43.636  57.905 -52.723  1.00  0.00     0.040 C 
BRANCH   4   6
HETATM    6  C   UNL     1     -41.635  56.395 -52.294  1.00  0.00     0.099 C 
BRANCH   6   7
HETATM    7  C   UNL     1     -41.128  54.986 -52.353  1.00  0.00     0.078 A 
HETATM    8  S   UNL     1     -40.765  54.138 -50.911  1.00  0.00    -0.073 SA
HETATM    9  C   UNL     1     -40.280  52.769 -51.838  1.00  0.00     0.035 A 
HETATM   10  C   UNL     1     -40.431  53.064 -53.195  1.00  0.00     0.074 A 
HETATM   11  C   UNL     1     -39.801  51.524 -51.398  1.00  0.00     0.021 A 
HETATM   12  N   UNL     1     -40.909  54.339 -53.474  1.00  0.00    -0.245 NA
HETATM   13  C   UNL     1     -40.097  52.079 -54.146  1.00  0.00     0.033 A 
HETATM   14  C   UNL     1     -39.622  50.834 -53.718  1.00  0.00     0.002 A 
HETATM   15  C   UNL     1     -39.476  50.564 -52.361  1.00  0.00     0.002 A 
ENDBRANCH   6   7
ENDBRANCH   4   6
ENDBRANCH   1   4
BRANCH   1  16
HETATM   16  C   UNL     1     -43.400  56.616 -55.147  1.00  0.00     0.269 C 
BRANCH  16  17
HETATM   17  C   UNL     1     -43.199  55.674 -56.356  1.00  0.00     0.177 C 
BRANCH  17  18
HETATM   18  O   UNL     1     -42.138  54.770 -56.007  1.00  0.00    -0.389 OA
HETATM   19  H   UNL     1     -42.278  54.535 -55.066  1.00  0.00     0.210 HD
ENDBRANCH  17  18
BRANCH  17  20
HETATM   20  C   UNL     1     -42.858  56.439 -57.615  1.00  0.00    -0.025 A 
HETATM   21  C   UNL     1     -42.459  57.786 -57.513  1.00  0.00     0.046 A 
HETATM   22  C   UNL     1     -42.096  58.513 -58.649  1.00  0.00     0.068 A 
HETATM   23  C   UNL     1     -42.114  57.887 -59.895  1.00  0.00     0.037 A 
HETATM   24  C   UNL     1     -42.517  56.560 -60.017  1.00  0.00     0.003 A 
HETATM   25  C   UNL     1     -42.893  55.839 -58.885  1.00  0.00     0.010 A 
BRANCH  22  26
HETATM   26  O   UNL     1     -41.687  59.816 -58.668  1.00  0.00    -0.356 OA
HETATM   27  C   UNL     1     -41.800  60.552 -57.456  1.00  0.00     0.210 C 
ENDBRANCH  22  26
ENDBRANCH  17  20
ENDBRANCH  16  17
ENDBRANCH   1  16
TORSDOF 8
ENDMDL
MODEL 7
REMARK VINA RESULT:      -6.7      1.897      2.674
REMARK  8 active torsions:
REMARK  status: ('A' for Active; 'I' for Inactive)
REMARK    1  A    between atoms: C_2  and  N_3 
REMARK    2  A    between atoms: C_2  and  C_17 
REMARK    3  A    between atoms: N_3  and  C_6 
REMARK    4  A    between atoms: C_6  and  C_7 
REMARK    5  A    between atoms: C_7  and  O_8 
REMARK    6  A    between atoms: C_7  and  C_9 
REMARK    7  A    between atoms: C_11  and  O_12 
REMARK    8  A    between atoms: C_17  and  C_18 
ROOT
HETATM    1  N   UNL     1     -44.189  56.334 -55.268  1.00  0.00    -0.068 N 
HETATM    2  H   UNL     1     -43.908  55.407 -55.617  1.00  0.00     0.277 HD
HETATM    3  H   UNL     1     -45.225  56.316 -55.282  1.00  0.00     0.277 HD
ENDROOT
BRANCH   1   4
HETATM    4  C   UNL     1     -43.637  56.537 -53.879  1.00  0.00     0.188 C 
HETATM    5  C   UNL     1     -44.272  57.821 -53.337  1.00  0.00     0.040 C 
BRANCH   4   6
HETATM    6  C   UNL     1     -42.100  56.627 -53.911  1.00  0.00     0.099 C 
BRANCH   6   7
HETATM    7  C   UNL     1     -41.468  55.282 -53.720  1.00  0.00     0.078 A 
HETATM    8  S   UNL     1     -41.243  54.237 -55.057  1.00  0.00    -0.073 SA
HETATM    9  C   UNL     1     -40.555  53.051 -54.014  1.00  0.00     0.035 A 
HETATM   10  C   UNL     1     -40.550  53.545 -52.707  1.00  0.00     0.074 A 
HETATM   11  C   UNL     1     -40.056  51.776 -54.328  1.00  0.00     0.021 A 
HETATM   12  N   UNL     1     -41.083  54.819 -52.554  1.00  0.00    -0.245 NA
HETATM   13  C   UNL     1     -40.023  52.739 -51.678  1.00  0.00     0.033 A 
HETATM   14  C   UNL     1     -39.520  51.468 -51.981  1.00  0.00     0.002 A 
HETATM   15  C   UNL     1     -39.539  50.995 -53.289  1.00  0.00     0.002 A 
ENDBRANCH   6   7
ENDBRANCH   4   6
ENDBRANCH   1   4
BRANCH   1  16
HETATM   16  C   UNL     1     -43.778  57.340 -56.321  1.00  0.00     0.269 C 
BRANCH  16  17
HETATM   17  C   UNL     1     -43.034  56.586 -57.448  1.00  0.00     0.177 C 
BRANCH  17  18
HETATM   18  O   UNL     1     -41.989  57.455 -57.910  1.00  0.00    -0.389 OA
HETATM   19  H   UNL     1     -41.216  57.285 -57.331  1.00  0.00     0.210 HD
ENDBRANCH  17  18
BRANCH  17  20
HETATM   20  C   UNL     1     -43.962  56.213 -58.583  1.00  0.00    -0.025 A 
HETATM   21  C   UNL     1     -44.990  57.104 -58.949  1.00  0.00     0.046 A 
HETATM   22  C   UNL     1     -45.840  56.814 -60.019  1.00  0.00     0.068 A 
HETATM   23  C   UNL     1     -45.653  55.636 -60.741  1.00  0.00     0.037 A 
HETATM   24  C   UNL     1     -44.649  54.739 -60.387  1.00  0.00     0.003 A 
HETATM   25  C   UNL     1     -43.810  55.020 -59.311  1.00  0.00     0.010 A 
BRANCH  22  26
HETATM   26  O   UNL     1     -46.862  57.603 -60.466  1.00  0.00    -0.356 OA
HETATM   27  C   UNL     1     -47.770  57.027 -61.398  1.00  0.00     0.210 C 
ENDBRANCH  22  26
ENDBRANCH  17  20
ENDBRANCH  16  17
ENDBRANCH   1  16
TORSDOF 8
ENDMDL
MODEL 8
REMARK VINA RESULT:      -6.6     14.198     17.263
REMARK  8 active torsions:
REMARK  status: ('A' for Active; 'I' for Inactive)
REMARK    1  A    between atoms: C_2  and  N_3 
REMARK    2  A    between atoms: C_2  and  C_17 
REMARK    3  A    between atoms: N_3  and  C_6 
REMARK    4  A    between atoms: C_6  and  C_7 
REMARK    5  A    between atoms: C_7  and  O_8 
REMARK    6  A    between atoms: C_7  and  C_9 
REMARK    7  A    between atoms: C_11  and  O_12 
REMARK    8  A    between atoms: C_17  and  C_18 
ROOT
HETATM    1  N   UNL     1     -36.818  42.486 -55.096  1.00  0.00    -0.068 N 
HETATM    2  H   UNL     1     -35.813  42.712 -55.078  1.00  0.00     0.277 HD
HETATM    3  H   UNL     1     -37.289  43.364 -54.811  1.00  0.00     0.277 HD
ENDROOT
BRANCH   1   4
HETATM    4  C   UNL     1     -37.211  42.051 -56.486  1.00  0.00     0.188 C 
HETATM    5  C   UNL     1     -38.069  40.793 -56.327  1.00  0.00     0.040 C 
BRANCH   4   6
HETATM    6  C   UNL     1     -35.961  41.785 -57.347  1.00  0.00     0.099 C 
BRANCH   6   7
HETATM    7  C   UNL     1     -34.981  40.906 -56.632  1.00  0.00     0.078 A 
HETATM    8  S   UNL     1     -34.936  39.224 -56.953  1.00  0.00    -0.073 SA
HETATM    9  C   UNL     1     -33.674  39.037 -55.796  1.00  0.00     0.035 A 
HETATM   10  C   UNL     1     -33.377  40.285 -55.243  1.00  0.00     0.074 A 
HETATM   11  C   UNL     1     -32.994  37.872 -55.406  1.00  0.00     0.021 A 
HETATM   12  N   UNL     1     -34.139  41.342 -55.725  1.00  0.00    -0.245 NA
HETATM   13  C   UNL     1     -32.363  40.373 -54.269  1.00  0.00     0.033 A 
HETATM   14  C   UNL     1     -31.677  39.219 -53.875  1.00  0.00     0.002 A 
HETATM   15  C   UNL     1     -31.992  37.986 -54.437  1.00  0.00     0.002 A 
ENDBRANCH   6   7
ENDBRANCH   4   6
ENDBRANCH   1   4
BRANCH   1  16
HETATM   16  C   UNL     1     -37.064  41.500 -53.975  1.00  0.00     0.269 C 
BRANCH  16  17
HETATM   17  C   UNL     1     -36.206  41.922 -52.760  1.00  0.00     0.177 C 
BRANCH  17  18
HETATM   18  O   UNL     1     -35.328  42.964 -53.214  1.00  0.00    -0.389 OA
HETATM   19  H   UNL     1     -35.506  43.740 -52.642  1.00  0.00     0.210 HD
ENDBRANCH  17  18
BRANCH  17  20
HETATM   20  C   UNL     1     -35.415  40.760 -52.199  1.00  0.00    -0.025 A 
HETATM   21  C   UNL     1     -34.422  41.011 -51.233  1.00  0.00     0.046 A 
HETATM   22  C   UNL     1     -33.700  39.961 -50.660  1.00  0.00     0.068 A 
HETATM   23  C   UNL     1     -33.983  38.650 -51.041  1.00  0.00     0.037 A 
HETATM   24  C   UNL     1     -34.954  38.384 -52.004  1.00  0.00     0.003 A 
HETATM   25  C   UNL     1     -35.664  39.433 -52.585  1.00  0.00     0.010 A 
BRANCH  22  26
HETATM   26  O   UNL     1     -32.724  40.083 -49.713  1.00  0.00    -0.356 OA
HETATM   27  C   UNL     1     -32.657  39.075 -48.712  1.00  0.00     0.210 C 
ENDBRANCH  22  26
ENDBRANCH  17  20
ENDBRANCH  16  17
ENDBRANCH   1  16
TORSDOF 8
ENDMDL
MODEL 9
REMARK VINA RESULT:      -6.6     14.496     15.898
REMARK  8 active torsions:
REMARK  status: ('A' for Active; 'I' for Inactive)
REMARK    1  A    between atoms: C_2  and  N_3 
REMARK    2  A    between atoms: C_2  and  C_17 
REMARK    3  A    between atoms: N_3  and  C_6 
REMARK    4  A    between atoms: C_6  and  C_7 
REMARK    5  A    between atoms: C_7  and  O_8 
REMARK    6  A    between atoms: C_7  and  C_9 
REMARK    7  A    between atoms: C_11  and  O_12 
REMARK    8  A    between atoms: C_17  and  C_18 
ROOT
HETATM    1  N   UNL     1     -36.292  40.507 -51.498  1.00  0.00    -0.068 N 
HETATM    2  H   UNL     1     -36.114  39.672 -52.074  1.00  0.00     0.277 HD
HETATM    3  H   UNL     1     -37.055  40.225 -50.856  1.00  0.00     0.277 HD
ENDROOT
BRANCH   1   4
HETATM    4  C   UNL     1     -35.032  40.885 -50.759  1.00  0.00     0.188 C 
HETATM    5  C   UNL     1     -34.608  42.258 -51.286  1.00  0.00     0.040 C 
BRANCH   4   6
HETATM    6  C   UNL     1     -33.935  39.826 -50.976  1.00  0.00     0.099 C 
BRANCH   6   7
HETATM    7  C   UNL     1     -33.567  39.708 -52.424  1.00  0.00     0.078 A 
HETATM    8  S   UNL     1     -32.097  40.374 -52.999  1.00  0.00    -0.073 SA
HETATM    9  C   UNL     1     -32.482  39.847 -54.593  1.00  0.00     0.035 A 
HETATM   10  C   UNL     1     -33.718  39.196 -54.570  1.00  0.00     0.074 A 
HETATM   11  C   UNL     1     -31.745  39.997 -55.779  1.00  0.00     0.021 A 
HETATM   12  N   UNL     1     -34.330  39.132 -53.324  1.00  0.00    -0.245 NA
HETATM   13  C   UNL     1     -34.233  38.672 -55.772  1.00  0.00     0.033 A 
HETATM   14  C   UNL     1     -33.505  38.814 -56.959  1.00  0.00     0.002 A 
HETATM   15  C   UNL     1     -32.278  39.469 -56.959  1.00  0.00     0.002 A 
ENDBRANCH   6   7
ENDBRANCH   4   6
ENDBRANCH   1   4
BRANCH   1  16
HETATM   16  C   UNL     1     -36.887  41.552 -52.415  1.00  0.00     0.269 C 
BRANCH  16  17
HETATM   17  C   UNL     1     -37.462  40.836 -53.659  1.00  0.00     0.177 C 
BRANCH  17  18
HETATM   18  O   UNL     1     -37.233  39.431 -53.472  1.00  0.00    -0.389 OA
HETATM   19  H   UNL     1     -37.205  39.036 -54.368  1.00  0.00     0.210 HD
ENDBRANCH  17  18
BRANCH  17  20
HETATM   20  C   UNL     1     -36.815  41.320 -54.937  1.00  0.00    -0.025 A 
HETATM   21  C   UNL     1     -37.451  41.064 -56.168  1.00  0.00     0.046 A 
HETATM   22  C   UNL     1     -36.906  41.531 -57.366  1.00  0.00     0.068 A 
HETATM   23  C   UNL     1     -35.727  42.275 -57.336  1.00  0.00     0.037 A 
HETATM   24  C   UNL     1     -35.078  42.528 -56.130  1.00  0.00     0.003 A 
HETATM   25  C   UNL     1     -35.614  42.050 -54.936  1.00  0.00     0.010 A 
BRANCH  22  26
HETATM   26  O   UNL     1     -37.436  41.350 -58.611  1.00  0.00    -0.356 OA
HETATM   27  C   UNL     1     -36.855  40.339 -59.426  1.00  0.00     0.210 C 
ENDBRANCH  22  26
ENDBRANCH  17  20
ENDBRANCH  16  17
ENDBRANCH   1  16
TORSDOF 8
ENDMDL
MODEL 10
REMARK VINA RESULT:      -6.5     14.891     18.085
REMARK  8 active torsions:
REMARK  status: ('A' for Active; 'I' for Inactive)
REMARK    1  A    between atoms: C_2  and  N_3 
REMARK    2  A    between atoms: C_2  and  C_17 
REMARK    3  A    between atoms: N_3  and  C_6 
REMARK    4  A    between atoms: C_6  and  C_7 
REMARK    5  A    between atoms: C_7  and  O_8 
REMARK    6  A    between atoms: C_7  and  C_9 
REMARK    7  A    between atoms: C_11  and  O_12 
REMARK    8  A    between atoms: C_17  and  C_18 
ROOT
HETATM    1  N   UNL     1     -34.060  41.210 -53.758  1.00  0.00    -0.068 N 
HETATM    2  H   UNL     1     -33.493  41.850 -53.183  1.00  0.00     0.277 HD
HETATM    3  H   UNL     1     -34.439  41.806 -54.516  1.00  0.00     0.277 HD
ENDROOT
BRANCH   1   4
HETATM    4  C   UNL     1     -33.185  40.099 -54.285  1.00  0.00     0.188 C 
HETATM    5  C   UNL     1     -31.966  40.025 -53.362  1.00  0.00     0.040 C 
BRANCH   4   6
HETATM    6  C   UNL     1     -32.781  40.370 -55.746  1.00  0.00     0.099 C 
BRANCH   6   7
HETATM    7  C   UNL     1     -33.976  40.379 -56.651  1.00  0.00     0.078 A 
HETATM    8  S   UNL     1     -34.516  38.928 -57.382  1.00  0.00    -0.073 SA
HETATM    9  C   UNL     1     -35.774  39.797 -58.176  1.00  0.00     0.035 A 
HETATM   10  C   UNL     1     -35.687  41.145 -57.822  1.00  0.00     0.074 A 
HETATM   11  C   UNL     1     -36.767  39.321 -59.048  1.00  0.00     0.021 A 
HETATM   12  N   UNL     1     -34.648  41.464 -56.956  1.00  0.00    -0.245 NA
HETATM   13  C   UNL     1     -36.628  42.050 -58.354  1.00  0.00     0.033 A 
HETATM   14  C   UNL     1     -37.623  41.585 -59.221  1.00  0.00     0.002 A 
HETATM   15  C   UNL     1     -37.688  40.239 -59.563  1.00  0.00     0.002 A 
ENDBRANCH   6   7
ENDBRANCH   4   6
ENDBRANCH   1   4
BRANCH   1  16
HETATM   16  C   UNL     1     -35.249  40.805 -52.915  1.00  0.00     0.269 C 
BRANCH  16  17
HETATM   17  C   UNL     1     -35.062  41.391 -51.497  1.00  0.00     0.177 C 
BRANCH  17  18
HETATM   18  O   UNL     1     -34.241  42.561 -51.637  1.00  0.00    -0.389 OA
HETATM   19  H   UNL     1     -33.322  42.239 -51.747  1.00  0.00     0.210 HD
ENDBRANCH  17  18
BRANCH  17  20
HETATM   20  C   UNL     1     -34.421  40.395 -50.556  1.00  0.00    -0.025 A 
HETATM   21  C   UNL     1     -33.072  40.569 -50.189  1.00  0.00     0.046 A 
HETATM   22  C   UNL     1     -32.457  39.695 -49.290  1.00  0.00     0.068 A 
HETATM   23  C   UNL     1     -33.197  38.650 -48.738  1.00  0.00     0.037 A 
HETATM   24  C   UNL     1     -34.529  38.457 -49.098  1.00  0.00     0.003 A 
HETATM   25  C   UNL     1     -35.138  39.320 -50.005  1.00  0.00     0.010 A 
BRANCH  22  26
HETATM   26  O   UNL     1     -31.163  39.769 -48.859  1.00  0.00    -0.356 OA
HETATM   27  C   UNL     1     -30.939  39.696 -47.456  1.00  0.00     0.210 C 
ENDBRANCH  22  26
ENDBRANCH  17  20
ENDBRANCH  16  17
ENDBRANCH   1  16
TORSDOF 8
ENDMDL
