MODEL 1
REMARK VINA RESULT:      -7.4      0.000      0.000
REMARK  6 active torsions:
REMARK  status: ('A' for Active; 'I' for Inactive)
REMARK    1  A    between atoms: C_6  and  C_7 
REMARK    2  A    between atoms: C_10  and  C_11 
REMARK       I    between atoms: C_11  and  N_12 
REMARK    3  A    between atoms: N_12  and  C_13 
REMARK    4  A    between atoms: C_13  and  C_14 
REMARK    5  A    between atoms: C_17  and  C_18 
REMARK       I    between atoms: C_18  and  N_19 
REMARK    6  A    between atoms: N_19  and  C_20 
ROOT
HETATM    1  C   UNL     1     -41.423  54.274 -53.400  1.00  0.00     0.256 C 
HETATM    2  N   UNL     1     -40.901  55.544 -53.488  1.00  0.00    -0.353 N 
HETATM    3  O   UNL     1     -42.448  53.951 -53.994  1.00  0.00    -0.268 OA
HETATM    4  H   UNL     1     -40.221  55.827 -52.800  1.00  0.00     0.163 HD
ENDROOT
BRANCH   2   5
HETATM    5  C   UNL     1     -41.628  56.577 -54.182  1.00  0.00     0.161 C 
BRANCH   5   6
HETATM    6  C   UNL     1     -42.538  57.335 -53.252  1.00  0.00    -0.040 A 
HETATM    7  C   UNL     1     -43.929  57.179 -53.352  1.00  0.00     0.010 A 
HETATM    8  C   UNL     1     -44.782  57.841 -52.467  1.00  0.00     0.017 A 
HETATM    9  C   UNL     1     -44.255  58.665 -51.467  1.00  0.00     0.032 A 
HETATM   10  C   UNL     1     -42.871  58.865 -51.391  1.00  0.00     0.017 A 
HETATM   11  C   UNL     1     -42.019  58.202 -52.280  1.00  0.00     0.010 A 
BRANCH   9  12
HETATM   12  C   UNL     1     -45.197  59.312 -50.514  1.00  0.00     0.252 C 
HETATM   13  N   UNL     1     -44.657  60.305 -49.718  1.00  0.00    -0.352 N 
HETATM   14  H   UNL     1     -43.656  60.450 -49.728  1.00  0.00     0.163 HD
HETATM   15  O   UNL     1     -46.359  58.926 -50.446  1.00  0.00    -0.268 OA
BRANCH  13  16
HETATM   16  C   UNL     1     -45.412  60.938 -48.682  1.00  0.00     0.084 A 
HETATM   17  C   UNL     1     -44.808  61.142 -47.320  1.00  0.00     0.027 A 
HETATM   18  C   UNL     1     -45.058  62.323 -48.212  1.00  0.00     0.027 A 
ENDBRANCH  13  16
ENDBRANCH   9  12
ENDBRANCH   5   6
ENDBRANCH   2   5
BRANCH   1  19
HETATM   19  C   UNL     1     -40.727  53.352 -52.507  1.00  0.00     0.082 A 
HETATM   20  C   UNL     1     -40.144  52.109 -52.902  1.00  0.00     0.068 A 
HETATM   21  C   UNL     1     -40.110  51.502 -54.259  1.00  0.00     0.073 C 
HETATM   22  N   UNL     1     -39.596  51.458 -51.871  1.00  0.00    -0.179 NA
HETATM   23  N   UNL     1     -39.788  52.277 -50.834  1.00  0.00    -0.281 N 
HETATM   24  H   UNL     1     -39.429  51.986 -49.931  1.00  0.00     0.189 HD
HETATM   25  C   UNL     1     -40.438  53.446 -51.147  1.00  0.00     0.049 A 
BRANCH  25  26
HETATM   26  C   UNL     1     -40.673  54.504 -50.104  1.00  0.00     0.030 C 
HETATM   27  C   UNL     1     -42.156  54.874 -50.038  1.00  0.00     0.016 C 
HETATM   28  C   UNL     1     -40.167  54.077 -48.721  1.00  0.00     0.016 C 
ENDBRANCH  25  26
ENDBRANCH   1  19
TORSDOF 6
ENDMDL
MODEL 2
REMARK VINA RESULT:      -7.4      3.707      6.651
REMARK  6 active torsions:
REMARK  status: ('A' for Active; 'I' for Inactive)
REMARK    1  A    between atoms: C_6  and  C_7 
REMARK    2  A    between atoms: C_10  and  C_11 
REMARK       I    between atoms: C_11  and  N_12 
REMARK    3  A    between atoms: N_12  and  C_13 
REMARK    4  A    between atoms: C_13  and  C_14 
REMARK    5  A    between atoms: C_17  and  C_18 
REMARK       I    between atoms: C_18  and  N_19 
REMARK    6  A    between atoms: N_19  and  C_20 
ROOT
HETATM    1  C   UNL     1     -41.608  55.391 -51.714  1.00  0.00     0.256 C 
HETATM    2  N   UNL     1     -42.925  55.365 -52.112  1.00  0.00    -0.353 N 
HETATM    3  O   UNL     1     -40.980  56.442 -51.619  1.00  0.00    -0.268 OA
HETATM    4  H   UNL     1     -43.313  54.485 -52.414  1.00  0.00     0.163 HD
ENDROOT
BRANCH   2   5
HETATM    5  C   UNL     1     -43.568  56.574 -52.560  1.00  0.00     0.161 C 
BRANCH   5   6
HETATM    6  C   UNL     1     -43.533  56.697 -54.061  1.00  0.00    -0.040 A 
HETATM    7  C   UNL     1     -43.230  55.575 -54.847  1.00  0.00     0.010 A 
HETATM    8  C   UNL     1     -43.238  55.664 -56.241  1.00  0.00     0.017 A 
HETATM    9  C   UNL     1     -43.552  56.875 -56.866  1.00  0.00     0.032 A 
HETATM   10  C   UNL     1     -43.808  58.011 -56.089  1.00  0.00     0.017 A 
HETATM   11  C   UNL     1     -43.797  57.920 -54.693  1.00  0.00     0.010 A 
BRANCH   9  12
HETATM   12  C   UNL     1     -43.598  56.913 -58.353  1.00  0.00     0.252 C 
HETATM   13  N   UNL     1     -44.784  56.491 -58.927  1.00  0.00    -0.352 N 
HETATM   14  H   UNL     1     -45.490  56.070 -58.338  1.00  0.00     0.163 HD
HETATM   15  O   UNL     1     -42.609  57.262 -58.987  1.00  0.00    -0.268 OA
BRANCH  13  16
HETATM   16  C   UNL     1     -44.937  56.369 -60.343  1.00  0.00     0.084 A 
HETATM   17  C   UNL     1     -44.952  55.011 -60.990  1.00  0.00     0.027 A 
HETATM   18  C   UNL     1     -46.210  55.826 -60.933  1.00  0.00     0.027 A 
ENDBRANCH  13  16
ENDBRANCH   9  12
ENDBRANCH   5   6
ENDBRANCH   2   5
BRANCH   1  19
HETATM   19  C   UNL     1     -40.981  54.094 -51.477  1.00  0.00     0.082 A 
HETATM   20  C   UNL     1     -40.599  53.587 -50.197  1.00  0.00     0.068 A 
HETATM   21  C   UNL     1     -40.756  54.238 -48.870  1.00  0.00     0.073 C 
HETATM   22  N   UNL     1     -40.022  52.385 -50.283  1.00  0.00    -0.179 NA
HETATM   23  N   UNL     1     -40.058  52.101 -51.586  1.00  0.00    -0.281 N 
HETATM   24  H   UNL     1     -39.681  51.207 -51.884  1.00  0.00     0.189 HD
HETATM   25  C   UNL     1     -40.644  53.071 -52.362  1.00  0.00     0.049 A 
BRANCH  25  26
HETATM   26  C   UNL     1     -40.823  52.874 -53.842  1.00  0.00     0.030 C 
HETATM   27  C   UNL     1     -40.046  53.936 -54.623  1.00  0.00     0.016 C 
HETATM   28  C   UNL     1     -40.408  51.470 -54.295  1.00  0.00     0.016 C 
ENDBRANCH  25  26
ENDBRANCH   1  19
TORSDOF 6
ENDMDL
MODEL 3
REMARK VINA RESULT:      -7.1      4.610      9.161
REMARK  6 active torsions:
REMARK  status: ('A' for Active; 'I' for Inactive)
REMARK    1  A    between atoms: C_6  and  C_7 
REMARK    2  A    between atoms: C_10  and  C_11 
REMARK       I    between atoms: C_11  and  N_12 
REMARK    3  A    between atoms: N_12  and  C_13 
REMARK    4  A    between atoms: C_13  and  C_14 
REMARK    5  A    between atoms: C_17  and  C_18 
REMARK       I    between atoms: C_18  and  N_19 
REMARK    6  A    between atoms: N_19  and  C_20 
ROOT
HETATM    1  C   UNL     1     -44.517  58.157 -57.282  1.00  0.00     0.256 C 
HETATM    2  N   UNL     1     -44.559  57.135 -56.361  1.00  0.00    -0.353 N 
HETATM    3  O   UNL     1     -44.028  59.251 -57.015  1.00  0.00    -0.268 OA
HETATM    4  H   UNL     1     -45.183  56.363 -56.537  1.00  0.00     0.163 HD
ENDROOT
BRANCH   2   5
HETATM    5  C   UNL     1     -44.146  57.372 -55.000  1.00  0.00     0.161 C 
BRANCH   5   6
HETATM    6  C   UNL     1     -43.246  56.275 -54.496  1.00  0.00    -0.040 A 
HETATM    7  C   UNL     1     -43.025  55.135 -55.283  1.00  0.00     0.010 A 
HETATM    8  C   UNL     1     -42.157  54.130 -54.848  1.00  0.00     0.017 A 
HETATM    9  C   UNL     1     -41.497  54.256 -53.621  1.00  0.00     0.032 A 
HETATM   10  C   UNL     1     -41.749  55.367 -52.808  1.00  0.00     0.017 A 
HETATM   11  C   UNL     1     -42.621  56.370 -53.245  1.00  0.00     0.010 A 
BRANCH   9  12
HETATM   12  C   UNL     1     -40.543  53.187 -53.219  1.00  0.00     0.252 C 
HETATM   13  N   UNL     1     -40.246  52.251 -54.193  1.00  0.00    -0.352 N 
HETATM   14  H   UNL     1     -40.772  52.261 -55.057  1.00  0.00     0.163 HD
HETATM   15  O   UNL     1     -40.106  53.156 -52.074  1.00  0.00    -0.268 OA
BRANCH  13  16
HETATM   16  C   UNL     1     -39.433  51.107 -53.919  1.00  0.00     0.084 A 
HETATM   17  C   UNL     1     -40.015  49.914 -53.212  1.00  0.00     0.027 A 
HETATM   18  C   UNL     1     -39.649  49.818 -54.664  1.00  0.00     0.027 A 
ENDBRANCH  13  16
ENDBRANCH   9  12
ENDBRANCH   5   6
ENDBRANCH   2   5
BRANCH   1  19
HETATM   19  C   UNL     1     -45.146  57.888 -58.572  1.00  0.00     0.082 A 
HETATM   20  C   UNL     1     -46.484  58.245 -58.924  1.00  0.00     0.068 A 
HETATM   21  C   UNL     1     -47.494  58.950 -58.092  1.00  0.00     0.073 C 
HETATM   22  N   UNL     1     -46.802  57.849 -60.161  1.00  0.00    -0.179 NA
HETATM   23  N   UNL     1     -45.684  57.279 -60.615  1.00  0.00    -0.281 N 
HETATM   24  H   UNL     1     -45.692  56.915 -61.562  1.00  0.00     0.189 HD
HETATM   25  C   UNL     1     -44.639  57.289 -59.724  1.00  0.00     0.049 A 
BRANCH  25  26
HETATM   26  C   UNL     1     -43.290  56.744 -60.107  1.00  0.00     0.030 C 
HETATM   27  C   UNL     1     -42.237  57.854 -60.085  1.00  0.00     0.016 C 
HETATM   28  C   UNL     1     -42.858  55.581 -59.207  1.00  0.00     0.016 C 
ENDBRANCH  25  26
ENDBRANCH   1  19
TORSDOF 6
ENDMDL
MODEL 4
REMARK VINA RESULT:      -6.9      1.526      3.057
REMARK  6 active torsions:
REMARK  status: ('A' for Active; 'I' for Inactive)
REMARK    1  A    between atoms: C_6  and  C_7 
REMARK    2  A    between atoms: C_10  and  C_11 
REMARK       I    between atoms: C_11  and  N_12 
REMARK    3  A    between atoms: N_12  and  C_13 
REMARK    4  A    between atoms: C_13  and  C_14 
REMARK    5  A    between atoms: C_17  and  C_18 
REMARK       I    between atoms: C_18  and  N_19 
REMARK    6  A    between atoms: N_19  and  C_20 
ROOT
HETATM    1  C   UNL     1     -41.641  55.655 -52.545  1.00  0.00     0.256 C 
HETATM    2  N   UNL     1     -43.016  55.691 -52.589  1.00  0.00    -0.353 N 
HETATM    3  O   UNL     1     -40.954  56.586 -52.956  1.00  0.00    -0.268 OA
HETATM    4  H   UNL     1     -43.517  54.823 -52.480  1.00  0.00     0.163 HD
ENDROOT
BRANCH   2   5
HETATM    5  C   UNL     1     -43.689  56.781 -53.250  1.00  0.00     0.161 C 
BRANCH   5   6
HETATM    6  C   UNL     1     -44.052  57.876 -52.282  1.00  0.00    -0.040 A 
HETATM    7  C   UNL     1     -43.350  59.091 -52.306  1.00  0.00     0.010 A 
HETATM    8  C   UNL     1     -43.704  60.132 -51.445  1.00  0.00     0.017 A 
HETATM    9  C   UNL     1     -44.769  59.972 -50.552  1.00  0.00     0.032 A 
HETATM   10  C   UNL     1     -45.443  58.747 -50.487  1.00  0.00     0.017 A 
HETATM   11  C   UNL     1     -45.084  57.705 -51.349  1.00  0.00     0.010 A 
BRANCH   9  12
HETATM   12  C   UNL     1     -45.145  61.123 -49.688  1.00  0.00     0.252 C 
HETATM   13  N   UNL     1     -45.006  60.923 -48.326  1.00  0.00    -0.352 N 
HETATM   14  H   UNL     1     -44.788  59.995 -47.989  1.00  0.00     0.163 HD
HETATM   15  O   UNL     1     -45.586  62.150 -50.194  1.00  0.00    -0.268 OA
BRANCH  13  16
HETATM   16  C   UNL     1     -45.431  61.898 -47.370  1.00  0.00     0.084 A 
HETATM   17  C   UNL     1     -46.560  61.591 -46.426  1.00  0.00     0.027 A 
HETATM   18  C   UNL     1     -45.158  61.703 -45.904  1.00  0.00     0.027 A 
ENDBRANCH  13  16
ENDBRANCH   9  12
ENDBRANCH   5   6
ENDBRANCH   2   5
BRANCH   1  19
HETATM   19  C   UNL     1     -41.045  54.420 -52.045  1.00  0.00     0.082 A 
HETATM   20  C   UNL     1     -40.721  54.159 -50.678  1.00  0.00     0.068 A 
HETATM   21  C   UNL     1     -40.919  55.048 -49.503  1.00  0.00     0.073 C 
HETATM   22  N   UNL     1     -40.160  52.956 -50.513  1.00  0.00    -0.179 NA
HETATM   23  N   UNL     1     -40.151  52.434 -51.741  1.00  0.00    -0.281 N 
HETATM   24  H   UNL     1     -39.776  51.497 -51.851  1.00  0.00     0.189 HD
HETATM   25  C   UNL     1     -40.690  53.246 -52.708  1.00  0.00     0.049 A 
BRANCH  25  26
HETATM   26  C   UNL     1     -40.815  52.777 -54.132  1.00  0.00     0.030 C 
HETATM   27  C   UNL     1     -40.118  53.754 -55.082  1.00  0.00     0.016 C 
HETATM   28  C   UNL     1     -40.264  51.360 -54.325  1.00  0.00     0.016 C 
ENDBRANCH  25  26
ENDBRANCH   1  19
TORSDOF 6
ENDMDL
MODEL 5
REMARK VINA RESULT:      -6.9     16.633     19.270
REMARK  6 active torsions:
REMARK  status: ('A' for Active; 'I' for Inactive)
REMARK    1  A    between atoms: C_6  and  C_7 
REMARK    2  A    between atoms: C_10  and  C_11 
REMARK       I    between atoms: C_11  and  N_12 
REMARK    3  A    between atoms: N_12  and  C_13 
REMARK    4  A    between atoms: C_13  and  C_14 
REMARK    5  A    between atoms: C_17  and  C_18 
REMARK       I    between atoms: C_18  and  N_19 
REMARK    6  A    between atoms: N_19  and  C_20 
ROOT
HETATM    1  C   UNL     1     -35.470  40.707 -54.599  1.00  0.00     0.256 C 
HETATM    2  N   UNL     1     -35.670  41.698 -55.534  1.00  0.00    -0.353 N 
HETATM    3  O   UNL     1     -36.389  39.996 -54.202  1.00  0.00    -0.268 OA
HETATM    4  H   UNL     1     -34.958  42.404 -55.637  1.00  0.00     0.163 HD
ENDROOT
BRANCH   2   5
HETATM    5  C   UNL     1     -37.004  42.016 -55.976  1.00  0.00     0.161 C 
BRANCH   5   6
HETATM    6  C   UNL     1     -37.354  41.292 -57.249  1.00  0.00    -0.040 A 
HETATM    7  C   UNL     1     -37.005  41.849 -58.489  1.00  0.00     0.010 A 
HETATM    8  C   UNL     1     -37.283  41.168 -59.676  1.00  0.00     0.017 A 
HETATM    9  C   UNL     1     -37.911  39.918 -59.637  1.00  0.00     0.032 A 
HETATM   10  C   UNL     1     -38.307  39.378 -58.408  1.00  0.00     0.017 A 
HETATM   11  C   UNL     1     -38.029  40.064 -57.221  1.00  0.00     0.010 A 
BRANCH   9  12
HETATM   12  C   UNL     1     -38.144  39.204 -60.922  1.00  0.00     0.252 C 
HETATM   13  N   UNL     1     -39.271  38.404 -60.968  1.00  0.00    -0.352 N 
HETATM   14  H   UNL     1     -39.792  38.245 -60.116  1.00  0.00     0.163 HD
HETATM   15  O   UNL     1     -37.337  39.316 -61.839  1.00  0.00    -0.268 OA
BRANCH  13  16
HETATM   16  C   UNL     1     -39.564  37.574 -62.095  1.00  0.00     0.084 A 
HETATM   17  C   UNL     1     -40.756  36.658 -62.072  1.00  0.00     0.027 A 
HETATM   18  C   UNL     1     -40.754  37.860 -62.969  1.00  0.00     0.027 A 
ENDBRANCH  13  16
ENDBRANCH   9  12
ENDBRANCH   5   6
ENDBRANCH   2   5
BRANCH   1  19
HETATM   19  C   UNL     1     -34.119  40.595 -54.058  1.00  0.00     0.082 A 
HETATM   20  C   UNL     1     -32.932  40.437 -54.838  1.00  0.00     0.068 A 
HETATM   21  C   UNL     1     -32.810  40.362 -56.317  1.00  0.00     0.073 C 
HETATM   22  N   UNL     1     -31.838  40.333 -54.076  1.00  0.00    -0.179 NA
HETATM   23  N   UNL     1     -32.300  40.456 -52.830  1.00  0.00    -0.281 N 
HETATM   24  H   UNL     1     -31.626  40.424 -52.072  1.00  0.00     0.189 HD
HETATM   25  C   UNL     1     -33.658  40.642 -52.744  1.00  0.00     0.049 A 
BRANCH  25  26
HETATM   26  C   UNL     1     -34.326  40.864 -51.414  1.00  0.00     0.030 C 
HETATM   27  C   UNL     1     -33.525  40.199 -50.293  1.00  0.00     0.016 C 
HETATM   28  C   UNL     1     -34.535  42.352 -51.111  1.00  0.00     0.016 C 
ENDBRANCH  25  26
ENDBRANCH   1  19
TORSDOF 6
ENDMDL
MODEL 6
REMARK VINA RESULT:      -6.8     16.516     19.118
REMARK  6 active torsions:
REMARK  status: ('A' for Active; 'I' for Inactive)
REMARK    1  A    between atoms: C_6  and  C_7 
REMARK    2  A    between atoms: C_10  and  C_11 
REMARK       I    between atoms: C_11  and  N_12 
REMARK    3  A    between atoms: N_12  and  C_13 
REMARK    4  A    between atoms: C_13  and  C_14 
REMARK    5  A    between atoms: C_17  and  C_18 
REMARK       I    between atoms: C_18  and  N_19 
REMARK    6  A    between atoms: N_19  and  C_20 
ROOT
HETATM    1  C   UNL     1     -34.636  40.118 -52.880  1.00  0.00     0.256 C 
HETATM    2  N   UNL     1     -34.423  41.428 -53.245  1.00  0.00    -0.353 N 
HETATM    3  O   UNL     1     -35.755  39.612 -52.905  1.00  0.00    -0.268 OA
HETATM    4  H   UNL     1     -33.554  41.861 -52.971  1.00  0.00     0.163 HD
ENDROOT
BRANCH   2   5
HETATM    5  C   UNL     1     -35.542  42.287 -53.540  1.00  0.00     0.161 C 
BRANCH   5   6
HETATM    6  C   UNL     1     -35.959  42.176 -54.983  1.00  0.00    -0.040 A 
HETATM    7  C   UNL     1     -34.997  42.279 -55.999  1.00  0.00     0.010 A 
HETATM    8  C   UNL     1     -35.364  42.134 -57.339  1.00  0.00     0.017 A 
HETATM    9  C   UNL     1     -36.697  41.880 -57.678  1.00  0.00     0.032 A 
HETATM   10  C   UNL     1     -37.671  41.825 -56.674  1.00  0.00     0.017 A 
HETATM   11  C   UNL     1     -37.301  41.973 -55.333  1.00  0.00     0.010 A 
BRANCH   9  12
HETATM   12  C   UNL     1     -37.035  41.682 -59.114  1.00  0.00     0.252 C 
HETATM   13  N   UNL     1     -37.059  40.370 -59.549  1.00  0.00    -0.352 N 
HETATM   14  H   UNL     1     -36.729  39.643 -58.928  1.00  0.00     0.163 HD
HETATM   15  O   UNL     1     -37.232  42.653 -59.836  1.00  0.00    -0.268 OA
BRANCH  13  16
HETATM   16  C   UNL     1     -37.260  40.032 -60.924  1.00  0.00     0.084 A 
HETATM   17  C   UNL     1     -36.646  38.783 -61.495  1.00  0.00     0.027 A 
HETATM   18  C   UNL     1     -38.133  38.868 -61.308  1.00  0.00     0.027 A 
ENDBRANCH  13  16
ENDBRANCH   9  12
ENDBRANCH   5   6
ENDBRANCH   2   5
BRANCH   1  19
HETATM   19  C   UNL     1     -33.469  39.385 -52.399  1.00  0.00     0.082 A 
HETATM   20  C   UNL     1     -33.139  39.175 -51.025  1.00  0.00     0.068 A 
HETATM   21  C   UNL     1     -33.887  39.630 -49.823  1.00  0.00     0.073 C 
HETATM   22  N   UNL     1     -31.999  38.493 -50.878  1.00  0.00    -0.179 NA
HETATM   23  N   UNL     1     -31.613  38.236 -52.130  1.00  0.00    -0.281 N 
HETATM   24  H   UNL     1     -30.761  37.701 -52.259  1.00  0.00     0.189 HD
HETATM   25  C   UNL     1     -32.462  38.720 -53.095  1.00  0.00     0.049 A 
BRANCH  25  26
HETATM   26  C   UNL     1     -32.204  38.457 -54.554  1.00  0.00     0.030 C 
HETATM   27  C   UNL     1     -31.498  39.651 -55.198  1.00  0.00     0.016 C 
HETATM   28  C   UNL     1     -31.395  37.174 -54.777  1.00  0.00     0.016 C 
ENDBRANCH  25  26
ENDBRANCH   1  19
TORSDOF 6
ENDMDL
MODEL 7
REMARK VINA RESULT:      -6.8      3.914      6.613
REMARK  6 active torsions:
REMARK  status: ('A' for Active; 'I' for Inactive)
REMARK    1  A    between atoms: C_6  and  C_7 
REMARK    2  A    between atoms: C_10  and  C_11 
REMARK       I    between atoms: C_11  and  N_12 
REMARK    3  A    between atoms: N_12  and  C_13 
REMARK    4  A    between atoms: C_13  and  C_14 
REMARK    5  A    between atoms: C_17  and  C_18 
REMARK       I    between atoms: C_18  and  N_19 
REMARK    6  A    between atoms: N_19  and  C_20 
ROOT
HETATM    1  C   UNL     1     -42.110  55.212 -52.349  1.00  0.00     0.256 C 
HETATM    2  N   UNL     1     -41.456  56.306 -52.870  1.00  0.00    -0.353 N 
HETATM    3  O   UNL     1     -43.335  55.165 -52.272  1.00  0.00    -0.268 OA
HETATM    4  H   UNL     1     -40.470  56.402 -52.683  1.00  0.00     0.163 HD
ENDROOT
BRANCH   2   5
HETATM    5  C   UNL     1     -42.196  57.492 -53.216  1.00  0.00     0.161 C 
BRANCH   5   6
HETATM    6  C   UNL     1     -42.271  57.683 -54.709  1.00  0.00    -0.040 A 
HETATM    7  C   UNL     1     -42.473  56.575 -55.546  1.00  0.00     0.010 A 
HETATM    8  C   UNL     1     -42.588  56.743 -56.928  1.00  0.00     0.017 A 
HETATM    9  C   UNL     1     -42.506  58.022 -57.489  1.00  0.00     0.032 A 
HETATM   10  C   UNL     1     -42.257  59.126 -56.666  1.00  0.00     0.017 A 
HETATM   11  C   UNL     1     -42.139  58.955 -55.282  1.00  0.00     0.010 A 
BRANCH   9  12
HETATM   12  C   UNL     1     -42.685  58.161 -58.959  1.00  0.00     0.252 C 
HETATM   13  N   UNL     1     -41.974  59.186 -59.556  1.00  0.00    -0.352 N 
HETATM   14  H   UNL     1     -41.487  59.850 -58.968  1.00  0.00     0.163 HD
HETATM   15  O   UNL     1     -43.457  57.417 -59.555  1.00  0.00    -0.268 OA
BRANCH  13  16
HETATM   16  C   UNL     1     -42.129  59.510 -60.940  1.00  0.00     0.084 A 
HETATM   17  C   UNL     1     -43.219  60.447 -61.382  1.00  0.00     0.027 A 
HETATM   18  C   UNL     1     -41.785  60.883 -61.450  1.00  0.00     0.027 A 
ENDBRANCH  13  16
ENDBRANCH   9  12
ENDBRANCH   5   6
ENDBRANCH   2   5
BRANCH   1  19
HETATM   19  C   UNL     1     -41.263  54.140 -51.835  1.00  0.00     0.082 A 
HETATM   20  C   UNL     1     -40.885  53.976 -50.467  1.00  0.00     0.068 A 
HETATM   21  C   UNL     1     -41.261  54.823 -49.304  1.00  0.00     0.073 C 
HETATM   22  N   UNL     1     -40.082  52.923 -50.288  1.00  0.00    -0.179 NA
HETATM   23  N   UNL     1     -39.967  52.393 -51.508  1.00  0.00    -0.281 N 
HETATM   24  H   UNL     1     -39.404  51.556 -51.607  1.00  0.00     0.189 HD
HETATM   25  C   UNL     1     -40.671  53.057 -52.483  1.00  0.00     0.049 A 
BRANCH  25  26
HETATM   26  C   UNL     1     -40.700  52.549 -53.898  1.00  0.00     0.030 C 
HETATM   27  C   UNL     1     -40.112  53.588 -54.854  1.00  0.00     0.016 C 
HETATM   28  C   UNL     1     -39.968  51.211 -54.048  1.00  0.00     0.016 C 
ENDBRANCH  25  26
ENDBRANCH   1  19
TORSDOF 6
ENDMDL
MODEL 8
REMARK VINA RESULT:      -6.7     16.580     18.805
REMARK  6 active torsions:
REMARK  status: ('A' for Active; 'I' for Inactive)
REMARK    1  A    between atoms: C_6  and  C_7 
REMARK    2  A    between atoms: C_10  and  C_11 
REMARK       I    between atoms: C_11  and  N_12 
REMARK    3  A    between atoms: N_12  and  C_13 
REMARK    4  A    between atoms: C_13  and  C_14 
REMARK    5  A    between atoms: C_17  and  C_18 
REMARK       I    between atoms: C_18  and  N_19 
REMARK    6  A    between atoms: N_19  and  C_20 
ROOT
HETATM    1  C   UNL     1     -34.403  41.073 -51.908  1.00  0.00     0.256 C 
HETATM    2  N   UNL     1     -35.356  40.896 -52.885  1.00  0.00    -0.353 N 
HETATM    3  O   UNL     1     -34.275  42.141 -51.314  1.00  0.00    -0.268 OA
HETATM    4  H   UNL     1     -35.258  40.107 -53.505  1.00  0.00     0.163 HD
ENDROOT
BRANCH   2   5
HETATM    5  C   UNL     1     -36.146  42.014 -53.336  1.00  0.00     0.161 C 
BRANCH   5   6
HETATM    6  C   UNL     1     -36.449  41.921 -54.808  1.00  0.00    -0.040 A 
HETATM    7  C   UNL     1     -35.488  42.324 -55.747  1.00  0.00     0.010 A 
HETATM    8  C   UNL     1     -35.739  42.202 -57.116  1.00  0.00     0.017 A 
HETATM    9  C   UNL     1     -36.953  41.670 -57.562  1.00  0.00     0.032 A 
HETATM   10  C   UNL     1     -37.937  41.311 -56.633  1.00  0.00     0.017 A 
HETATM   11  C   UNL     1     -37.684  41.437 -55.263  1.00  0.00     0.010 A 
BRANCH   9  12
HETATM   12  C   UNL     1     -37.159  41.511 -59.027  1.00  0.00     0.252 C 
HETATM   13  N   UNL     1     -37.257  40.208 -59.480  1.00  0.00    -0.352 N 
HETATM   14  H   UNL     1     -37.061  39.451 -58.839  1.00  0.00     0.163 HD
HETATM   15  O   UNL     1     -37.191  42.499 -59.752  1.00  0.00    -0.268 OA
BRANCH  13  16
HETATM   16  C   UNL     1     -37.346  39.896 -60.873  1.00  0.00     0.084 A 
HETATM   17  C   UNL     1     -36.567  38.743 -61.443  1.00  0.00     0.027 A 
HETATM   18  C   UNL     1     -38.061  38.657 -61.337  1.00  0.00     0.027 A 
ENDBRANCH  13  16
ENDBRANCH   9  12
ENDBRANCH   5   6
ENDBRANCH   2   5
BRANCH   1  19
HETATM   19  C   UNL     1     -33.512  39.943 -51.663  1.00  0.00     0.082 A 
HETATM   20  C   UNL     1     -32.450  39.532 -52.526  1.00  0.00     0.068 A 
HETATM   21  C   UNL     1     -32.024  40.145 -53.811  1.00  0.00     0.073 C 
HETATM   22  N   UNL     1     -31.817  38.449 -52.065  1.00  0.00    -0.179 NA
HETATM   23  N   UNL     1     -32.432  38.181 -50.911  1.00  0.00    -0.281 N 
HETATM   24  H   UNL     1     -32.096  37.392 -50.370  1.00  0.00     0.189 HD
HETATM   25  C   UNL     1     -33.444  39.053 -50.593  1.00  0.00     0.049 A 
BRANCH  25  26
HETATM   26  C   UNL     1     -34.192  38.929 -49.293  1.00  0.00     0.030 C 
HETATM   27  C   UNL     1     -35.575  38.317 -49.526  1.00  0.00     0.016 C 
HETATM   28  C   UNL     1     -33.416  38.113 -48.254  1.00  0.00     0.016 C 
ENDBRANCH  25  26
ENDBRANCH   1  19
TORSDOF 6
ENDMDL
MODEL 9
REMARK VINA RESULT:      -6.6     16.525     19.034
REMARK  6 active torsions:
REMARK  status: ('A' for Active; 'I' for Inactive)
REMARK    1  A    between atoms: C_6  and  C_7 
REMARK    2  A    between atoms: C_10  and  C_11 
REMARK       I    between atoms: C_11  and  N_12 
REMARK    3  A    between atoms: N_12  and  C_13 
REMARK    4  A    between atoms: C_13  and  C_14 
REMARK    5  A    between atoms: C_17  and  C_18 
REMARK       I    between atoms: C_18  and  N_19 
REMARK    6  A    between atoms: N_19  and  C_20 
ROOT
HETATM    1  C   UNL     1     -35.798  41.706 -53.233  1.00  0.00     0.256 C 
HETATM    2  N   UNL     1     -36.297  41.249 -54.432  1.00  0.00    -0.353 N 
HETATM    3  O   UNL     1     -35.612  42.902 -53.022  1.00  0.00    -0.268 OA
HETATM    4  H   UNL     1     -36.195  40.269 -54.645  1.00  0.00     0.163 HD
ENDROOT
BRANCH   2   5
HETATM    5  C   UNL     1     -36.489  42.163 -55.530  1.00  0.00     0.161 C 
BRANCH   5   6
HETATM    6  C   UNL     1     -36.970  41.450 -56.766  1.00  0.00    -0.040 A 
HETATM    7  C   UNL     1     -36.821  42.054 -58.024  1.00  0.00     0.010 A 
HETATM    8  C   UNL     1     -37.222  41.385 -59.183  1.00  0.00     0.017 A 
HETATM    9  C   UNL     1     -37.774  40.103 -59.098  1.00  0.00     0.032 A 
HETATM   10  C   UNL     1     -37.971  39.514 -57.844  1.00  0.00     0.017 A 
HETATM   11  C   UNL     1     -37.571  40.186 -56.684  1.00  0.00     0.010 A 
BRANCH   9  12
HETATM   12  C   UNL     1     -38.141  39.407 -60.361  1.00  0.00     0.252 C 
HETATM   13  N   UNL     1     -39.200  38.522 -60.272  1.00  0.00    -0.352 N 
HETATM   14  H   UNL     1     -39.577  38.300 -59.360  1.00  0.00     0.163 HD
HETATM   15  O   UNL     1     -37.490  39.605 -61.381  1.00  0.00    -0.268 OA
BRANCH  13  16
HETATM   16  C   UNL     1     -39.595  37.701 -61.375  1.00  0.00     0.084 A 
HETATM   17  C   UNL     1     -40.716  36.711 -61.219  1.00  0.00     0.027 A 
HETATM   18  C   UNL     1     -40.909  37.931 -62.070  1.00  0.00     0.027 A 
ENDBRANCH  13  16
ENDBRANCH   9  12
ENDBRANCH   5   6
ENDBRANCH   2   5
BRANCH   1  19
HETATM   19  C   UNL     1     -35.441  40.686 -52.253  1.00  0.00     0.082 A 
HETATM   20  C   UNL     1     -36.367  39.825 -51.588  1.00  0.00     0.068 A 
HETATM   21  C   UNL     1     -37.845  39.771 -51.746  1.00  0.00     0.073 C 
HETATM   22  N   UNL     1     -35.762  39.006 -50.721  1.00  0.00    -0.179 NA
HETATM   23  N   UNL     1     -34.468  39.305 -50.845  1.00  0.00    -0.281 N 
HETATM   24  H   UNL     1     -33.807  38.781 -50.280  1.00  0.00     0.189 HD
HETATM   25  C   UNL     1     -34.197  40.287 -51.766  1.00  0.00     0.049 A 
BRANCH  25  26
HETATM   26  C   UNL     1     -32.781  40.693 -52.072  1.00  0.00     0.030 C 
HETATM   27  C   UNL     1     -31.826  40.152 -51.006  1.00  0.00     0.016 C 
HETATM   28  C   UNL     1     -32.337  40.239 -53.466  1.00  0.00     0.016 C 
ENDBRANCH  25  26
ENDBRANCH   1  19
TORSDOF 6
ENDMDL
MODEL 10
REMARK VINA RESULT:      -6.6     16.685     19.090
REMARK  6 active torsions:
REMARK  status: ('A' for Active; 'I' for Inactive)
REMARK    1  A    between atoms: C_6  and  C_7 
REMARK    2  A    between atoms: C_10  and  C_11 
REMARK       I    between atoms: C_11  and  N_12 
REMARK    3  A    between atoms: N_12  and  C_13 
REMARK    4  A    between atoms: C_13  and  C_14 
REMARK    5  A    between atoms: C_17  and  C_18 
REMARK       I    between atoms: C_18  and  N_19 
REMARK    6  A    between atoms: N_19  and  C_20 
ROOT
HETATM    1  C   UNL     1     -37.519  39.665 -59.856  1.00  0.00     0.256 C 
HETATM    2  N   UNL     1     -36.744  40.795 -59.725  1.00  0.00    -0.353 N 
HETATM    3  O   UNL     1     -38.676  39.621 -59.446  1.00  0.00    -0.268 OA
HETATM    4  H   UNL     1     -35.747  40.704 -59.843  1.00  0.00     0.163 HD
ENDROOT
BRANCH   2   5
HETATM    5  C   UNL     1     -37.234  41.923 -58.973  1.00  0.00     0.161 C 
BRANCH   5   6
HETATM    6  C   UNL     1     -36.766  41.881 -57.542  1.00  0.00    -0.040 A 
HETATM    7  C   UNL     1     -35.407  42.063 -57.246  1.00  0.00     0.010 A 
HETATM    8  C   UNL     1     -34.965  42.070 -55.920  1.00  0.00     0.017 A 
HETATM    9  C   UNL     1     -35.880  41.900 -54.875  1.00  0.00     0.032 A 
HETATM   10  C   UNL     1     -37.229  41.669 -55.164  1.00  0.00     0.017 A 
HETATM   11  C   UNL     1     -37.668  41.660 -56.493  1.00  0.00     0.010 A 
BRANCH   9  12
HETATM   12  C   UNL     1     -35.374  41.965 -53.477  1.00  0.00     0.252 C 
HETATM   13  N   UNL     1     -34.257  41.196 -53.206  1.00  0.00    -0.352 N 
HETATM   14  H   UNL     1     -33.927  40.549 -53.910  1.00  0.00     0.163 HD
HETATM   15  O   UNL     1     -35.969  42.638 -52.642  1.00  0.00    -0.268 OA
BRANCH  13  16
HETATM   16  C   UNL     1     -33.725  41.073 -51.885  1.00  0.00     0.084 A 
HETATM   17  C   UNL     1     -33.348  39.722 -51.343  1.00  0.00     0.027 A 
HETATM   18  C   UNL     1     -32.278  40.722 -51.671  1.00  0.00     0.027 A 
ENDBRANCH  13  16
ENDBRANCH   9  12
ENDBRANCH   5   6
ENDBRANCH   2   5
BRANCH   1  19
HETATM   19  C   UNL     1     -36.866  38.502 -60.450  1.00  0.00     0.082 A 
HETATM   20  C   UNL     1     -36.894  38.164 -61.838  1.00  0.00     0.068 A 
HETATM   21  C   UNL     1     -37.561  38.896 -62.947  1.00  0.00     0.073 C 
HETATM   22  N   UNL     1     -36.234  37.030 -62.094  1.00  0.00    -0.179 NA
HETATM   23  N   UNL     1     -35.759  36.658 -60.904  1.00  0.00    -0.281 N 
HETATM   24  H   UNL     1     -35.199  35.812 -60.864  1.00  0.00     0.189 HD
HETATM   25  C   UNL     1     -36.077  37.508 -59.874  1.00  0.00     0.049 A 
BRANCH  25  26
HETATM   26  C   UNL     1     -35.561  37.265 -58.482  1.00  0.00     0.030 C 
HETATM   27  C   UNL     1     -34.538  38.335 -58.094  1.00  0.00     0.016 C 
HETATM   28  C   UNL     1     -36.691  37.208 -57.447  1.00  0.00     0.016 C 
ENDBRANCH  25  26
ENDBRANCH   1  19
TORSDOF 6
ENDMDL
