MODEL 1
REMARK VINA RESULT:      -8.2      0.000      0.000
REMARK  9 active torsions:
REMARK  status: ('A' for Active; 'I' for Inactive)
REMARK    1  A    between atoms: C_3  and  N_4 
REMARK       I    between atoms: N_4  and  C_5 
REMARK    2  A    between atoms: C_5  and  C_6 
REMARK    3  A    between atoms: C_13  and  C_14 
REMARK    4  A    between atoms: C_14  and  O_15 
REMARK    5  A    between atoms: O_15  and  C_16 
REMARK    6  A    between atoms: C_16  and  C_17 
REMARK       I    between atoms: C_17  and  N_18 
REMARK    7  A    between atoms: N_18  and  C_19 
REMARK    8  A    between atoms: C_19  and  C_20 
REMARK    9  A    between atoms: C_22  and  O_23 
ROOT
HETATM    1  C   UNL     1     -40.888  58.834 -53.214  1.00  0.00     0.293 C 
HETATM    2  O   UNL     1     -39.720  59.127 -53.006  1.00  0.00    -0.259 OA
ENDROOT
BRANCH   1   3
HETATM    3  C   UNL     1     -41.561  57.668 -52.590  1.00  0.00     0.041 A 
HETATM    4  C   UNL     1     -41.149  56.388 -52.988  1.00  0.00     0.047 A 
HETATM    5  C   UNL     1     -41.727  55.235 -52.445  1.00  0.00     0.042 A 
HETATM    6  C   UNL     1     -42.759  55.374 -51.493  1.00  0.00    -0.035 A 
HETATM    7  C   UNL     1     -43.456  54.191 -50.871  1.00  0.00     0.050 C 
HETATM    8  C   UNL     1     -43.178  56.662 -51.111  1.00  0.00     0.010 A 
HETATM    9  C   UNL     1     -42.579  57.803 -51.647  1.00  0.00     0.018 A 
BRANCH   5  10
HETATM   10  N   UNL     1     -41.317  53.941 -52.835  1.00  0.00    -0.321 N 
HETATM   11  C   UNL     1     -40.348  53.140 -52.251  1.00  0.00     0.279 C 
HETATM   12  O   UNL     1     -39.726  53.412 -51.229  1.00  0.00    -0.265 OA
HETATM   13  H   UNL     1     -41.811  53.499 -53.602  1.00  0.00     0.169 HD
BRANCH  11  14
HETATM   14  C   UNL     1     -40.160  51.880 -52.948  1.00  0.00     0.142 A 
HETATM   15  O   UNL     1     -39.648  50.800 -52.272  1.00  0.00    -0.317 OA
HETATM   16  C   UNL     1     -39.586  49.771 -53.156  1.00  0.00     0.143 A 
HETATM   17  C   UNL     1     -40.040  50.166 -54.392  1.00  0.00     0.027 A 
HETATM   18  C   UNL     1     -40.410  51.525 -54.259  1.00  0.00     0.045 A 
ENDBRANCH  11  14
ENDBRANCH   5  10
ENDBRANCH   1   3
BRANCH   1  19
HETATM   19  O   UNL     1     -41.747  59.548 -53.979  1.00  0.00    -0.308 OA
BRANCH  19  20
HETATM   20  C   UNL     1     -41.855  59.117 -55.340  1.00  0.00     0.281 C 
BRANCH  20  21
HETATM   21  C   UNL     1     -43.239  58.590 -55.739  1.00  0.00     0.242 C 
HETATM   22  N   UNL     1     -43.535  58.720 -57.076  1.00  0.00    -0.355 N 
HETATM   23  H   UNL     1     -42.873  59.215 -57.672  1.00  0.00     0.162 HD
HETATM   24  O   UNL     1     -43.996  58.063 -54.926  1.00  0.00    -0.271 OA
BRANCH  22  25
HETATM   25  C   UNL     1     -44.832  58.403 -57.620  1.00  0.00     0.161 C 
BRANCH  25  26
HETATM   26  C   UNL     1     -44.758  57.291 -58.639  1.00  0.00    -0.038 A 
HETATM   27  C   UNL     1     -45.804  57.079 -59.555  1.00  0.00     0.045 A 
HETATM   28  C   UNL     1     -45.726  56.049 -60.496  1.00  0.00     0.068 A 
HETATM   29  C   UNL     1     -44.591  55.234 -60.527  1.00  0.00     0.037 A 
HETATM   30  C   UNL     1     -43.552  55.429 -59.620  1.00  0.00     0.003 A 
HETATM   31  C   UNL     1     -43.638  56.450 -58.676  1.00  0.00     0.009 A 
BRANCH  28  32
HETATM   32  O   UNL     1     -46.673  55.740 -61.435  1.00  0.00    -0.356 OA
HETATM   33  C   UNL     1     -47.791  56.613 -61.522  1.00  0.00     0.210 C 
ENDBRANCH  28  32
ENDBRANCH  25  26
ENDBRANCH  22  25
ENDBRANCH  20  21
ENDBRANCH  19  20
ENDBRANCH   1  19
TORSDOF 9
ENDMDL
MODEL 2
REMARK VINA RESULT:      -7.6      1.888      7.667
REMARK  9 active torsions:
REMARK  status: ('A' for Active; 'I' for Inactive)
REMARK    1  A    between atoms: C_3  and  N_4 
REMARK       I    between atoms: N_4  and  C_5 
REMARK    2  A    between atoms: C_5  and  C_6 
REMARK    3  A    between atoms: C_13  and  C_14 
REMARK    4  A    between atoms: C_14  and  O_15 
REMARK    5  A    between atoms: O_15  and  C_16 
REMARK    6  A    between atoms: C_16  and  C_17 
REMARK       I    between atoms: C_17  and  N_18 
REMARK    7  A    between atoms: N_18  and  C_19 
REMARK    8  A    between atoms: C_19  and  C_20 
REMARK    9  A    between atoms: C_22  and  O_23 
ROOT
HETATM    1  C   UNL     1     -43.845  58.501 -52.499  1.00  0.00     0.293 C 
HETATM    2  O   UNL     1     -43.949  59.316 -51.594  1.00  0.00    -0.259 OA
ENDROOT
BRANCH   1   3
HETATM    3  C   UNL     1     -43.352  58.846 -53.856  1.00  0.00     0.041 A 
HETATM    4  C   UNL     1     -43.855  58.110 -54.938  1.00  0.00     0.047 A 
HETATM    5  C   UNL     1     -43.448  58.375 -56.251  1.00  0.00     0.042 A 
HETATM    6  C   UNL     1     -42.496  59.391 -56.477  1.00  0.00    -0.035 A 
HETATM    7  C   UNL     1     -41.981  59.731 -57.852  1.00  0.00     0.050 C 
HETATM    8  C   UNL     1     -41.984  60.115 -55.383  1.00  0.00     0.010 A 
HETATM    9  C   UNL     1     -42.414  59.852 -54.082  1.00  0.00     0.018 A 
BRANCH   5  10
HETATM   10  N   UNL     1     -43.951  57.642 -57.349  1.00  0.00    -0.321 N 
HETATM   11  C   UNL     1     -43.519  56.413 -57.824  1.00  0.00     0.279 C 
HETATM   12  O   UNL     1     -42.650  55.719 -57.308  1.00  0.00    -0.265 OA
HETATM   13  H   UNL     1     -44.761  58.011 -57.833  1.00  0.00     0.169 HD
BRANCH  11  14
HETATM   14  C   UNL     1     -44.245  55.978 -59.004  1.00  0.00     0.142 A 
HETATM   15  O   UNL     1     -45.286  56.736 -59.479  1.00  0.00    -0.317 OA
HETATM   16  C   UNL     1     -45.770  56.102 -60.578  1.00  0.00     0.143 A 
HETATM   17  C   UNL     1     -45.069  54.944 -60.819  1.00  0.00     0.027 A 
HETATM   18  C   UNL     1     -44.085  54.863 -59.805  1.00  0.00     0.045 A 
ENDBRANCH  11  14
ENDBRANCH   5  10
ENDBRANCH   1   3
BRANCH   1  19
HETATM   19  O   UNL     1     -44.097  57.176 -52.388  1.00  0.00    -0.308 OA
BRANCH  19  20
HETATM   20  C   UNL     1     -44.278  56.699 -51.051  1.00  0.00     0.281 C 
BRANCH  20  21
HETATM   21  C   UNL     1     -43.572  55.374 -50.740  1.00  0.00     0.242 C 
HETATM   22  N   UNL     1     -42.208  55.396 -50.924  1.00  0.00    -0.355 N 
HETATM   23  H   UNL     1     -41.788  56.236 -51.321  1.00  0.00     0.162 HD
HETATM   24  O   UNL     1     -44.182  54.391 -50.323  1.00  0.00    -0.271 OA
BRANCH  22  25
HETATM   25  C   UNL     1     -41.387  54.217 -50.809  1.00  0.00     0.161 C 
BRANCH  25  26
HETATM   26  C   UNL     1     -40.914  53.728 -52.157  1.00  0.00    -0.038 A 
HETATM   27  C   UNL     1     -40.269  52.485 -52.289  1.00  0.00     0.045 A 
HETATM   28  C   UNL     1     -39.836  52.040 -53.542  1.00  0.00     0.068 A 
HETATM   29  C   UNL     1     -40.059  52.837 -54.667  1.00  0.00     0.037 A 
HETATM   30  C   UNL     1     -40.690  54.074 -54.548  1.00  0.00     0.003 A 
HETATM   31  C   UNL     1     -41.110  54.520 -53.296  1.00  0.00     0.009 A 
BRANCH  28  32
HETATM   32  O   UNL     1     -39.198  50.857 -53.801  1.00  0.00    -0.356 OA
HETATM   33  C   UNL     1     -39.709  49.702 -53.149  1.00  0.00     0.210 C 
ENDBRANCH  28  32
ENDBRANCH  25  26
ENDBRANCH  22  25
ENDBRANCH  20  21
ENDBRANCH  19  20
ENDBRANCH   1  19
TORSDOF 9
ENDMDL
MODEL 3
REMARK VINA RESULT:      -7.6      5.254      9.338
REMARK  9 active torsions:
REMARK  status: ('A' for Active; 'I' for Inactive)
REMARK    1  A    between atoms: C_3  and  N_4 
REMARK       I    between atoms: N_4  and  C_5 
REMARK    2  A    between atoms: C_5  and  C_6 
REMARK    3  A    between atoms: C_13  and  C_14 
REMARK    4  A    between atoms: C_14  and  O_15 
REMARK    5  A    between atoms: O_15  and  C_16 
REMARK    6  A    between atoms: C_16  and  C_17 
REMARK       I    between atoms: C_17  and  N_18 
REMARK    7  A    between atoms: N_18  and  C_19 
REMARK    8  A    between atoms: C_19  and  C_20 
REMARK    9  A    between atoms: C_22  and  O_23 
ROOT
HETATM    1  C   UNL     1     -45.110  58.020 -51.526  1.00  0.00     0.293 C 
HETATM    2  O   UNL     1     -45.050  57.086 -50.740  1.00  0.00    -0.259 OA
ENDROOT
BRANCH   1   3
HETATM    3  C   UNL     1     -45.537  59.388 -51.137  1.00  0.00     0.041 A 
HETATM    4  C   UNL     1     -45.228  59.823 -49.839  1.00  0.00     0.047 A 
HETATM    5  C   UNL     1     -45.589  61.099 -49.394  1.00  0.00     0.042 A 
HETATM    6  C   UNL     1     -46.296  61.951 -50.269  1.00  0.00    -0.035 A 
HETATM    7  C   UNL     1     -46.746  63.333 -49.870  1.00  0.00     0.050 C 
HETATM    8  C   UNL     1     -46.616  61.502 -51.564  1.00  0.00     0.010 A 
HETATM    9  C   UNL     1     -46.232  60.233 -52.000  1.00  0.00     0.018 A 
BRANCH   5  10
HETATM   10  N   UNL     1     -45.279  61.549 -48.091  1.00  0.00    -0.321 N 
HETATM   11  C   UNL     1     -45.662  60.989 -46.882  1.00  0.00     0.279 C 
HETATM   12  O   UNL     1     -46.292  59.944 -46.753  1.00  0.00    -0.265 OA
HETATM   13  H   UNL     1     -44.659  62.345 -48.000  1.00  0.00     0.169 HD
BRANCH  11  14
HETATM   14  C   UNL     1     -45.194  61.746 -45.735  1.00  0.00     0.142 A 
HETATM   15  O   UNL     1     -44.444  61.121 -44.770  1.00  0.00    -0.317 OA
HETATM   16  C   UNL     1     -44.144  62.056 -43.832  1.00  0.00     0.143 A 
HETATM   17  C   UNL     1     -44.692  63.272 -44.167  1.00  0.00     0.027 A 
HETATM   18  C   UNL     1     -45.369  63.073 -45.394  1.00  0.00     0.045 A 
ENDBRANCH  11  14
ENDBRANCH   5  10
ENDBRANCH   1   3
BRANCH   1  19
HETATM   19  O   UNL     1     -44.744  57.970 -52.828  1.00  0.00    -0.308 OA
BRANCH  19  20
HETATM   20  C   UNL     1     -43.333  57.935 -53.064  1.00  0.00     0.281 C 
BRANCH  20  21
HETATM   21  C   UNL     1     -42.862  56.798 -53.979  1.00  0.00     0.242 C 
HETATM   22  N   UNL     1     -43.311  55.549 -53.615  1.00  0.00    -0.355 N 
HETATM   23  H   UNL     1     -43.836  55.459 -52.746  1.00  0.00     0.162 HD
HETATM   24  O   UNL     1     -42.172  57.005 -54.976  1.00  0.00    -0.271 OA
BRANCH  22  25
HETATM   25  C   UNL     1     -42.873  54.342 -54.271  1.00  0.00     0.161 C 
BRANCH  25  26
HETATM   26  C   UNL     1     -41.830  53.610 -53.463  1.00  0.00    -0.038 A 
HETATM   27  C   UNL     1     -40.994  52.649 -54.061  1.00  0.00     0.045 A 
HETATM   28  C   UNL     1     -40.029  51.978 -53.305  1.00  0.00     0.068 A 
HETATM   29  C   UNL     1     -39.892  52.277 -51.948  1.00  0.00     0.037 A 
HETATM   30  C   UNL     1     -40.718  53.222 -51.342  1.00  0.00     0.003 A 
HETATM   31  C   UNL     1     -41.686  53.881 -52.095  1.00  0.00     0.009 A 
BRANCH  28  32
HETATM   32  O   UNL     1     -39.162  51.026 -53.768  1.00  0.00    -0.356 OA
HETATM   33  C   UNL     1     -39.731  49.943 -54.491  1.00  0.00     0.210 C 
ENDBRANCH  28  32
ENDBRANCH  25  26
ENDBRANCH  22  25
ENDBRANCH  20  21
ENDBRANCH  19  20
ENDBRANCH   1  19
TORSDOF 9
ENDMDL
MODEL 4
REMARK VINA RESULT:      -7.5      1.624      2.083
REMARK  9 active torsions:
REMARK  status: ('A' for Active; 'I' for Inactive)
REMARK    1  A    between atoms: C_3  and  N_4 
REMARK       I    between atoms: N_4  and  C_5 
REMARK    2  A    between atoms: C_5  and  C_6 
REMARK    3  A    between atoms: C_13  and  C_14 
REMARK    4  A    between atoms: C_14  and  O_15 
REMARK    5  A    between atoms: O_15  and  C_16 
REMARK    6  A    between atoms: C_16  and  C_17 
REMARK       I    between atoms: C_17  and  N_18 
REMARK    7  A    between atoms: N_18  and  C_19 
REMARK    8  A    between atoms: C_19  and  C_20 
REMARK    9  A    between atoms: C_22  and  O_23 
ROOT
HETATM    1  C   UNL     1     -42.549  57.879 -53.286  1.00  0.00     0.293 C 
HETATM    2  O   UNL     1     -43.756  58.014 -53.424  1.00  0.00    -0.259 OA
ENDROOT
BRANCH   1   3
HETATM    3  C   UNL     1     -41.938  56.998 -52.259  1.00  0.00     0.041 A 
HETATM    4  C   UNL     1     -41.580  55.698 -52.645  1.00  0.00     0.047 A 
HETATM    5  C   UNL     1     -40.993  54.806 -51.740  1.00  0.00     0.042 A 
HETATM    6  C   UNL     1     -40.781  55.226 -50.410  1.00  0.00    -0.035 A 
HETATM    7  C   UNL     1     -40.177  54.327 -49.361  1.00  0.00     0.050 C 
HETATM    8  C   UNL     1     -41.158  56.526 -50.027  1.00  0.00     0.010 A 
HETATM    9  C   UNL     1     -41.724  57.411 -50.945  1.00  0.00     0.018 A 
BRANCH   5  10
HETATM   10  N   UNL     1     -40.625  53.496 -52.119  1.00  0.00    -0.321 N 
HETATM   11  C   UNL     1     -40.257  53.043 -53.377  1.00  0.00     0.279 C 
HETATM   12  O   UNL     1     -40.126  53.746 -54.373  1.00  0.00    -0.265 OA
HETATM   13  H   UNL     1     -40.562  52.793 -51.392  1.00  0.00     0.169 HD
BRANCH  11  14
HETATM   14  C   UNL     1     -39.983  51.617 -53.406  1.00  0.00     0.142 A 
HETATM   15  O   UNL     1     -39.734  50.950 -52.233  1.00  0.00    -0.317 OA
HETATM   16  C   UNL     1     -39.519  49.648 -52.554  1.00  0.00     0.143 A 
HETATM   17  C   UNL     1     -39.615  49.462 -53.912  1.00  0.00     0.027 A 
HETATM   18  C   UNL     1     -39.915  50.730 -54.463  1.00  0.00     0.045 A 
ENDBRANCH  11  14
ENDBRANCH   5  10
ENDBRANCH   1   3
BRANCH   1  19
HETATM   19  O   UNL     1     -41.605  58.448 -54.072  1.00  0.00    -0.308 OA
BRANCH  19  20
HETATM   20  C   UNL     1     -42.000  59.662 -54.718  1.00  0.00     0.281 C 
BRANCH  20  21
HETATM   21  C   UNL     1     -41.907  59.636 -56.249  1.00  0.00     0.242 C 
HETATM   22  N   UNL     1     -42.190  58.415 -56.817  1.00  0.00    -0.355 N 
HETATM   23  H   UNL     1     -42.354  57.621 -56.200  1.00  0.00     0.162 HD
HETATM   24  O   UNL     1     -41.637  60.641 -56.903  1.00  0.00    -0.271 OA
BRANCH  22  25
HETATM   25  C   UNL     1     -42.030  58.157 -58.227  1.00  0.00     0.161 C 
BRANCH  25  26
HETATM   26  C   UNL     1     -43.219  57.426 -58.802  1.00  0.00    -0.038 A 
HETATM   27  C   UNL     1     -44.530  57.879 -58.568  1.00  0.00     0.045 A 
HETATM   28  C   UNL     1     -45.624  57.196 -59.107  1.00  0.00     0.068 A 
HETATM   29  C   UNL     1     -45.405  56.062 -59.892  1.00  0.00     0.037 A 
HETATM   30  C   UNL     1     -44.111  55.598 -60.125  1.00  0.00     0.003 A 
HETATM   31  C   UNL     1     -43.023  56.274 -59.577  1.00  0.00     0.009 A 
BRANCH  28  32
HETATM   32  O   UNL     1     -46.941  57.534 -58.952  1.00  0.00    -0.356 OA
HETATM   33  C   UNL     1     -47.307  58.114 -57.707  1.00  0.00     0.210 C 
ENDBRANCH  28  32
ENDBRANCH  25  26
ENDBRANCH  22  25
ENDBRANCH  20  21
ENDBRANCH  19  20
ENDBRANCH   1  19
TORSDOF 9
ENDMDL
MODEL 5
REMARK VINA RESULT:      -7.4      2.722      5.695
REMARK  9 active torsions:
REMARK  status: ('A' for Active; 'I' for Inactive)
REMARK    1  A    between atoms: C_3  and  N_4 
REMARK       I    between atoms: N_4  and  C_5 
REMARK    2  A    between atoms: C_5  and  C_6 
REMARK    3  A    between atoms: C_13  and  C_14 
REMARK    4  A    between atoms: C_14  and  O_15 
REMARK    5  A    between atoms: O_15  and  C_16 
REMARK    6  A    between atoms: C_16  and  C_17 
REMARK       I    between atoms: C_17  and  N_18 
REMARK    7  A    between atoms: N_18  and  C_19 
REMARK    8  A    between atoms: C_19  and  C_20 
REMARK    9  A    between atoms: C_22  and  O_23 
ROOT
HETATM    1  C   UNL     1     -40.091  51.890 -53.454  1.00  0.00     0.293 C 
HETATM    2  O   UNL     1     -39.318  50.976 -53.698  1.00  0.00    -0.259 OA
ENDROOT
BRANCH   1   3
HETATM    3  C   UNL     1     -40.249  52.487 -52.104  1.00  0.00     0.041 A 
HETATM    4  C   UNL     1     -40.491  53.866 -52.026  1.00  0.00     0.047 A 
HETATM    5  C   UNL     1     -40.658  54.507 -50.793  1.00  0.00     0.042 A 
HETATM    6  C   UNL     1     -40.559  53.745 -49.610  1.00  0.00    -0.035 A 
HETATM    7  C   UNL     1     -40.702  54.352 -48.238  1.00  0.00     0.050 C 
HETATM    8  C   UNL     1     -40.301  52.364 -49.697  1.00  0.00     0.010 A 
HETATM    9  C   UNL     1     -40.156  51.735 -50.934  1.00  0.00     0.018 A 
BRANCH   5  10
HETATM   10  N   UNL     1     -40.905  55.895 -50.703  1.00  0.00    -0.321 N 
HETATM   11  C   UNL     1     -42.039  56.587 -51.100  1.00  0.00     0.279 C 
HETATM   12  O   UNL     1     -43.062  56.077 -51.543  1.00  0.00    -0.265 OA
HETATM   13  H   UNL     1     -40.207  56.472 -50.248  1.00  0.00     0.169 HD
BRANCH  11  14
HETATM   14  C   UNL     1     -41.927  58.020 -50.894  1.00  0.00     0.142 A 
HETATM   15  O   UNL     1     -42.958  58.843 -51.274  1.00  0.00    -0.317 OA
HETATM   16  C   UNL     1     -42.589  60.112 -50.963  1.00  0.00     0.143 A 
HETATM   17  C   UNL     1     -41.337  60.128 -50.397  1.00  0.00     0.027 A 
HETATM   18  C   UNL     1     -40.909  58.780 -50.352  1.00  0.00     0.045 A 
ENDBRANCH  11  14
ENDBRANCH   5  10
ENDBRANCH   1   3
BRANCH   1  19
HETATM   19  O   UNL     1     -40.859  52.528 -54.368  1.00  0.00    -0.308 OA
BRANCH  19  20
HETATM   20  C   UNL     1     -40.202  53.570 -55.097  1.00  0.00     0.281 C 
BRANCH  20  21
HETATM   21  C   UNL     1     -40.985  54.885 -55.185  1.00  0.00     0.242 C 
HETATM   22  N   UNL     1     -42.262  54.757 -55.682  1.00  0.00    -0.355 N 
HETATM   23  H   UNL     1     -42.558  53.843 -56.023  1.00  0.00     0.162 HD
HETATM   24  O   UNL     1     -40.512  55.954 -54.804  1.00  0.00    -0.271 OA
BRANCH  22  25
HETATM   25  C   UNL     1     -43.107  55.891 -55.962  1.00  0.00     0.161 C 
BRANCH  25  26
HETATM   26  C   UNL     1     -42.959  56.364 -57.387  1.00  0.00    -0.038 A 
HETATM   27  C   UNL     1     -42.465  57.649 -57.676  1.00  0.00     0.045 A 
HETATM   28  C   UNL     1     -42.330  58.077 -59.000  1.00  0.00     0.068 A 
HETATM   29  C   UNL     1     -42.680  57.211 -60.039  1.00  0.00     0.037 A 
HETATM   30  C   UNL     1     -43.177  55.939 -59.766  1.00  0.00     0.003 A 
HETATM   31  C   UNL     1     -43.321  55.519 -58.446  1.00  0.00     0.009 A 
BRANCH  28  32
HETATM   32  O   UNL     1     -41.867  59.298 -59.409  1.00  0.00    -0.356 OA
HETATM   33  C   UNL     1     -42.093  59.642 -60.769  1.00  0.00     0.210 C 
ENDBRANCH  28  32
ENDBRANCH  25  26
ENDBRANCH  22  25
ENDBRANCH  20  21
ENDBRANCH  19  20
ENDBRANCH   1  19
TORSDOF 9
ENDMDL
MODEL 6
REMARK VINA RESULT:      -7.3      2.651      5.732
REMARK  9 active torsions:
REMARK  status: ('A' for Active; 'I' for Inactive)
REMARK    1  A    between atoms: C_3  and  N_4 
REMARK       I    between atoms: N_4  and  C_5 
REMARK    2  A    between atoms: C_5  and  C_6 
REMARK    3  A    between atoms: C_13  and  C_14 
REMARK    4  A    between atoms: C_14  and  O_15 
REMARK    5  A    between atoms: O_15  and  C_16 
REMARK    6  A    between atoms: C_16  and  C_17 
REMARK       I    between atoms: C_17  and  N_18 
REMARK    7  A    between atoms: N_18  and  C_19 
REMARK    8  A    between atoms: C_19  and  C_20 
REMARK    9  A    between atoms: C_22  and  O_23 
ROOT
HETATM    1  C   UNL     1     -44.015  54.951 -59.525  1.00  0.00     0.293 C 
HETATM    2  O   UNL     1     -44.319  53.787 -59.311  1.00  0.00    -0.259 OA
ENDROOT
BRANCH   1   3
HETATM    3  C   UNL     1     -43.440  55.848 -58.490  1.00  0.00     0.041 A 
HETATM    4  C   UNL     1     -43.184  55.301 -57.224  1.00  0.00     0.047 A 
HETATM    5  C   UNL     1     -42.638  56.076 -56.195  1.00  0.00     0.042 A 
HETATM    6  C   UNL     1     -42.361  57.437 -56.439  1.00  0.00    -0.035 A 
HETATM    7  C   UNL     1     -41.795  58.353 -55.385  1.00  0.00     0.050 C 
HETATM    8  C   UNL     1     -42.636  57.982 -57.707  1.00  0.00     0.010 A 
HETATM    9  C   UNL     1     -43.163  57.192 -58.731  1.00  0.00     0.018 A 
BRANCH   5  10
HETATM   10  N   UNL     1     -42.372  55.535 -54.917  1.00  0.00    -0.321 N 
HETATM   11  C   UNL     1     -41.345  54.680 -54.549  1.00  0.00     0.279 C 
HETATM   12  O   UNL     1     -40.439  54.303 -55.285  1.00  0.00    -0.265 OA
HETATM   13  H   UNL     1     -42.958  55.833 -54.145  1.00  0.00     0.169 HD
BRANCH  11  14
HETATM   14  C   UNL     1     -41.406  54.291 -53.151  1.00  0.00     0.142 A 
HETATM   15  O   UNL     1     -40.283  53.799 -52.534  1.00  0.00    -0.317 OA
HETATM   16  C   UNL     1     -40.623  53.526 -51.248  1.00  0.00     0.143 A 
HETATM   17  C   UNL     1     -41.946  53.824 -51.023  1.00  0.00     0.027 A 
HETATM   18  C   UNL     1     -42.452  54.318 -52.249  1.00  0.00     0.045 A 
ENDBRANCH  11  14
ENDBRANCH   5  10
ENDBRANCH   1   3
BRANCH   1  19
HETATM   19  O   UNL     1     -44.095  55.571 -60.725  1.00  0.00    -0.308 OA
BRANCH  19  20
HETATM   20  C   UNL     1     -45.381  55.523 -61.353  1.00  0.00     0.281 C 
BRANCH  20  21
HETATM   21  C   UNL     1     -46.443  56.425 -60.712  1.00  0.00     0.242 C 
HETATM   22  N   UNL     1     -46.082  57.749 -60.611  1.00  0.00    -0.355 N 
HETATM   23  H   UNL     1     -45.136  58.014 -60.881  1.00  0.00     0.162 HD
HETATM   24  O   UNL     1     -47.538  55.993 -60.358  1.00  0.00    -0.271 OA
BRANCH  22  25
HETATM   25  C   UNL     1     -46.890  58.725 -59.922  1.00  0.00     0.161 C 
BRANCH  25  26
HETATM   26  C   UNL     1     -46.358  59.021 -58.541  1.00  0.00    -0.038 A 
HETATM   27  C   UNL     1     -45.702  60.235 -58.264  1.00  0.00     0.045 A 
HETATM   28  C   UNL     1     -45.214  60.502 -56.982  1.00  0.00     0.068 A 
HETATM   29  C   UNL     1     -45.393  59.555 -55.970  1.00  0.00     0.037 A 
HETATM   30  C   UNL     1     -46.035  58.346 -56.233  1.00  0.00     0.003 A 
HETATM   31  C   UNL     1     -46.510  58.079 -57.515  1.00  0.00     0.009 A 
BRANCH  28  32
HETATM   32  O   UNL     1     -44.560  61.638 -56.588  1.00  0.00    -0.356 OA
HETATM   33  C   UNL     1     -43.171  61.707 -56.882  1.00  0.00     0.210 C 
ENDBRANCH  28  32
ENDBRANCH  25  26
ENDBRANCH  22  25
ENDBRANCH  20  21
ENDBRANCH  19  20
ENDBRANCH   1  19
TORSDOF 9
ENDMDL
MODEL 7
REMARK VINA RESULT:      -7.3      1.737      2.339
REMARK  9 active torsions:
REMARK  status: ('A' for Active; 'I' for Inactive)
REMARK    1  A    between atoms: C_3  and  N_4 
REMARK       I    between atoms: N_4  and  C_5 
REMARK    2  A    between atoms: C_5  and  C_6 
REMARK    3  A    between atoms: C_13  and  C_14 
REMARK    4  A    between atoms: C_14  and  O_15 
REMARK    5  A    between atoms: O_15  and  C_16 
REMARK    6  A    between atoms: C_16  and  C_17 
REMARK       I    between atoms: C_17  and  N_18 
REMARK    7  A    between atoms: N_18  and  C_19 
REMARK    8  A    between atoms: C_19  and  C_20 
REMARK    9  A    between atoms: C_22  and  O_23 
ROOT
HETATM    1  C   UNL     1     -44.677  57.951 -54.467  1.00  0.00     0.293 C 
HETATM    2  O   UNL     1     -45.094  57.457 -55.504  1.00  0.00    -0.259 OA
ENDROOT
BRANCH   1   3
HETATM    3  C   UNL     1     -44.223  57.148 -53.304  1.00  0.00     0.041 A 
HETATM    4  C   UNL     1     -43.475  55.990 -53.565  1.00  0.00     0.047 A 
HETATM    5  C   UNL     1     -43.003  55.180 -52.526  1.00  0.00     0.042 A 
HETATM    6  C   UNL     1     -43.309  55.531 -51.194  1.00  0.00    -0.035 A 
HETATM    7  C   UNL     1     -42.864  54.707 -50.014  1.00  0.00     0.050 C 
HETATM    8  C   UNL     1     -44.074  56.686 -50.942  1.00  0.00     0.010 A 
HETATM    9  C   UNL     1     -44.521  57.495 -51.988  1.00  0.00     0.018 A 
BRANCH   5  10
HETATM   10  N   UNL     1     -42.245  54.014 -52.777  1.00  0.00    -0.321 N 
HETATM   11  C   UNL     1     -40.991  53.921 -53.360  1.00  0.00     0.279 C 
HETATM   12  O   UNL     1     -40.294  54.872 -53.698  1.00  0.00    -0.265 OA
HETATM   13  H   UNL     1     -42.617  53.129 -52.453  1.00  0.00     0.169 HD
BRANCH  11  14
HETATM   14  C   UNL     1     -40.533  52.550 -53.499  1.00  0.00     0.142 A 
HETATM   15  O   UNL     1     -39.850  51.955 -52.467  1.00  0.00    -0.317 OA
HETATM   16  C   UNL     1     -39.552  50.691 -52.864  1.00  0.00     0.143 A 
HETATM   17  C   UNL     1     -40.022  50.459 -54.135  1.00  0.00     0.027 A 
HETATM   18  C   UNL     1     -40.655  51.656 -54.545  1.00  0.00     0.045 A 
ENDBRANCH  11  14
ENDBRANCH   5  10
ENDBRANCH   1   3
BRANCH   1  19
HETATM   19  O   UNL     1     -44.509  59.276 -54.246  1.00  0.00    -0.308 OA
BRANCH  19  20
HETATM   20  C   UNL     1     -43.165  59.751 -54.378  1.00  0.00     0.281 C 
BRANCH  20  21
HETATM   21  C   UNL     1     -42.710  60.002 -55.821  1.00  0.00     0.242 C 
HETATM   22  N   UNL     1     -43.736  60.138 -56.727  1.00  0.00    -0.355 N 
HETATM   23  H   UNL     1     -44.691  59.985 -56.404  1.00  0.00     0.162 HD
HETATM   24  O   UNL     1     -41.523  60.108 -56.122  1.00  0.00    -0.271 OA
BRANCH  22  25
HETATM   25  C   UNL     1     -43.511  60.249 -58.147  1.00  0.00     0.161 C 
BRANCH  25  26
HETATM   26  C   UNL     1     -43.377  58.896 -58.802  1.00  0.00    -0.038 A 
HETATM   27  C   UNL     1     -44.482  58.030 -58.905  1.00  0.00     0.045 A 
HETATM   28  C   UNL     1     -44.349  56.780 -59.516  1.00  0.00     0.068 A 
HETATM   29  C   UNL     1     -43.109  56.399 -60.035  1.00  0.00     0.037 A 
HETATM   30  C   UNL     1     -42.006  57.244 -59.933  1.00  0.00     0.003 A 
HETATM   31  C   UNL     1     -42.139  58.485 -59.314  1.00  0.00     0.009 A 
BRANCH  28  32
HETATM   32  O   UNL     1     -45.341  55.851 -59.675  1.00  0.00    -0.356 OA
HETATM   33  C   UNL     1     -44.989  54.652 -60.353  1.00  0.00     0.210 C 
ENDBRANCH  28  32
ENDBRANCH  25  26
ENDBRANCH  22  25
ENDBRANCH  20  21
ENDBRANCH  19  20
ENDBRANCH   1  19
TORSDOF 9
ENDMDL
MODEL 8
REMARK VINA RESULT:      -7.3      2.641      8.430
REMARK  9 active torsions:
REMARK  status: ('A' for Active; 'I' for Inactive)
REMARK    1  A    between atoms: C_3  and  N_4 
REMARK       I    between atoms: N_4  and  C_5 
REMARK    2  A    between atoms: C_5  and  C_6 
REMARK    3  A    between atoms: C_13  and  C_14 
REMARK    4  A    between atoms: C_14  and  O_15 
REMARK    5  A    between atoms: O_15  and  C_16 
REMARK    6  A    between atoms: C_16  and  C_17 
REMARK       I    between atoms: C_17  and  N_18 
REMARK    7  A    between atoms: N_18  and  C_19 
REMARK    8  A    between atoms: C_19  and  C_20 
REMARK    9  A    between atoms: C_22  and  O_23 
ROOT
HETATM    1  C   UNL     1     -44.014  58.440 -53.343  1.00  0.00     0.293 C 
HETATM    2  O   UNL     1     -45.130  58.816 -53.017  1.00  0.00    -0.259 OA
ENDROOT
BRANCH   1   3
HETATM    3  C   UNL     1     -43.732  57.728 -54.615  1.00  0.00     0.041 A 
HETATM    4  C   UNL     1     -43.627  58.497 -55.783  1.00  0.00     0.047 A 
HETATM    5  C   UNL     1     -43.357  57.906 -57.022  1.00  0.00     0.042 A 
HETATM    6  C   UNL     1     -43.210  56.504 -57.091  1.00  0.00    -0.035 A 
HETATM    7  C   UNL     1     -42.942  55.777 -58.384  1.00  0.00     0.050 C 
HETATM    8  C   UNL     1     -43.333  55.738 -55.917  1.00  0.00     0.010 A 
HETATM    9  C   UNL     1     -43.583  56.344 -54.684  1.00  0.00     0.018 A 
BRANCH   5  10
HETATM   10  N   UNL     1     -43.245  58.671 -58.204  1.00  0.00    -0.321 N 
HETATM   11  C   UNL     1     -42.289  59.627 -58.514  1.00  0.00     0.279 C 
HETATM   12  O   UNL     1     -41.323  59.915 -57.816  1.00  0.00    -0.265 OA
HETATM   13  H   UNL     1     -43.899  58.482 -58.955  1.00  0.00     0.169 HD
BRANCH  11  14
HETATM   14  C   UNL     1     -42.510  60.247 -59.809  1.00  0.00     0.142 A 
HETATM   15  O   UNL     1     -43.768  60.242 -60.358  1.00  0.00    -0.317 OA
HETATM   16  C   UNL     1     -43.683  60.885 -61.551  1.00  0.00     0.143 A 
HETATM   17  C   UNL     1     -42.394  61.299 -61.788  1.00  0.00     0.027 A 
HETATM   18  C   UNL     1     -41.636  60.888 -60.666  1.00  0.00     0.045 A 
ENDBRANCH  11  14
ENDBRANCH   5  10
ENDBRANCH   1   3
BRANCH   1  19
HETATM   19  O   UNL     1     -42.878  58.665 -52.642  1.00  0.00    -0.308 OA
BRANCH  19  20
HETATM   20  C   UNL     1     -42.849  58.097 -51.329  1.00  0.00     0.281 C 
BRANCH  20  21
HETATM   21  C   UNL     1     -41.655  57.175 -51.053  1.00  0.00     0.242 C 
HETATM   22  N   UNL     1     -41.886  55.846 -51.319  1.00  0.00    -0.355 N 
HETATM   23  H   UNL     1     -42.827  55.564 -51.591  1.00  0.00     0.162 HD
HETATM   24  O   UNL     1     -40.572  57.609 -50.663  1.00  0.00    -0.271 OA
BRANCH  22  25
HETATM   25  C   UNL     1     -40.933  54.811 -51.003  1.00  0.00     0.161 C 
BRANCH  25  26
HETATM   26  C   UNL     1     -40.612  53.956 -52.205  1.00  0.00    -0.038 A 
HETATM   27  C   UNL     1     -40.229  52.610 -52.054  1.00  0.00     0.045 A 
HETATM   28  C   UNL     1     -39.936  51.826 -53.173  1.00  0.00     0.068 A 
HETATM   29  C   UNL     1     -40.037  52.386 -54.448  1.00  0.00     0.037 A 
HETATM   30  C   UNL     1     -40.408  53.720 -54.611  1.00  0.00     0.003 A 
HETATM   31  C   UNL     1     -40.689  54.502 -53.493  1.00  0.00     0.009 A 
BRANCH  28  32
HETATM   32  O   UNL     1     -39.552  50.512 -53.158  1.00  0.00    -0.356 OA
HETATM   33  C   UNL     1     -39.647  49.807 -54.389  1.00  0.00     0.210 C 
ENDBRANCH  28  32
ENDBRANCH  25  26
ENDBRANCH  22  25
ENDBRANCH  20  21
ENDBRANCH  19  20
ENDBRANCH   1  19
TORSDOF 9
ENDMDL
MODEL 9
REMARK VINA RESULT:      -7.2      1.799      8.889
REMARK  9 active torsions:
REMARK  status: ('A' for Active; 'I' for Inactive)
REMARK    1  A    between atoms: C_3  and  N_4 
REMARK       I    between atoms: N_4  and  C_5 
REMARK    2  A    between atoms: C_5  and  C_6 
REMARK    3  A    between atoms: C_13  and  C_14 
REMARK    4  A    between atoms: C_14  and  O_15 
REMARK    5  A    between atoms: O_15  and  C_16 
REMARK    6  A    between atoms: C_16  and  C_17 
REMARK       I    between atoms: C_17  and  N_18 
REMARK    7  A    between atoms: N_18  and  C_19 
REMARK    8  A    between atoms: C_19  and  C_20 
REMARK    9  A    between atoms: C_22  and  O_23 
ROOT
HETATM    1  C   UNL     1     -42.704  58.594 -55.488  1.00  0.00     0.293 C 
HETATM    2  O   UNL     1     -41.778  59.386 -55.579  1.00  0.00    -0.259 OA
ENDROOT
BRANCH   1   3
HETATM    3  C   UNL     1     -43.048  57.616 -56.551  1.00  0.00     0.041 A 
HETATM    4  C   UNL     1     -43.978  58.011 -57.523  1.00  0.00     0.047 A 
HETATM    5  C   UNL     1     -44.354  57.152 -58.562  1.00  0.00     0.042 A 
HETATM    6  C   UNL     1     -43.795  55.858 -58.612  1.00  0.00    -0.035 A 
HETATM    7  C   UNL     1     -44.157  54.857 -59.679  1.00  0.00     0.050 C 
HETATM    8  C   UNL     1     -42.875  55.463 -57.623  1.00  0.00     0.010 A 
HETATM    9  C   UNL     1     -42.495  56.338 -56.604  1.00  0.00     0.018 A 
BRANCH   5  10
HETATM   10  N   UNL     1     -45.287  57.541 -59.549  1.00  0.00    -0.321 N 
HETATM   11  C   UNL     1     -46.664  57.640 -59.430  1.00  0.00     0.279 C 
HETATM   12  O   UNL     1     -47.300  57.464 -58.395  1.00  0.00    -0.265 OA
HETATM   13  H   UNL     1     -44.928  57.841 -60.448  1.00  0.00     0.169 HD
BRANCH  11  14
HETATM   14  C   UNL     1     -47.313  58.032 -60.668  1.00  0.00     0.142 A 
HETATM   15  O   UNL     1     -47.947  57.083 -61.432  1.00  0.00    -0.317 OA
HETATM   16  C   UNL     1     -48.461  57.723 -62.514  1.00  0.00     0.143 A 
HETATM   17  C   UNL     1     -48.164  59.064 -62.470  1.00  0.00     0.027 A 
HETATM   18  C   UNL     1     -47.424  59.265 -61.281  1.00  0.00     0.045 A 
ENDBRANCH  11  14
ENDBRANCH   5  10
ENDBRANCH   1   3
BRANCH   1  19
HETATM   19  O   UNL     1     -43.501  58.446 -54.405  1.00  0.00    -0.308 OA
BRANCH  19  20
HETATM   20  C   UNL     1     -42.871  58.697 -53.144  1.00  0.00     0.281 C 
BRANCH  20  21
HETATM   21  C   UNL     1     -42.485  57.440 -52.356  1.00  0.00     0.242 C 
HETATM   22  N   UNL     1     -43.253  56.333 -52.636  1.00  0.00    -0.355 N 
HETATM   23  H   UNL     1     -44.050  56.443 -53.261  1.00  0.00     0.162 HD
HETATM   24  O   UNL     1     -41.540  57.427 -51.571  1.00  0.00    -0.271 OA
BRANCH  22  25
HETATM   25  C   UNL     1     -43.130  55.096 -51.906  1.00  0.00     0.161 C 
BRANCH  25  26
HETATM   26  C   UNL     1     -42.113  54.173 -52.532  1.00  0.00    -0.038 A 
HETATM   27  C   UNL     1     -41.177  53.483 -51.740  1.00  0.00     0.045 A 
HETATM   28  C   UNL     1     -40.240  52.629 -52.329  1.00  0.00     0.068 A 
HETATM   29  C   UNL     1     -40.248  52.456 -53.715  1.00  0.00     0.037 A 
HETATM   30  C   UNL     1     -41.164  53.139 -54.512  1.00  0.00     0.003 A 
HETATM   31  C   UNL     1     -42.090  53.998 -53.923  1.00  0.00     0.009 A 
BRANCH  28  32
HETATM   32  O   UNL     1     -39.282  51.907 -51.671  1.00  0.00    -0.356 OA
HETATM   33  C   UNL     1     -39.458  50.497 -51.636  1.00  0.00     0.210 C 
ENDBRANCH  28  32
ENDBRANCH  25  26
ENDBRANCH  22  25
ENDBRANCH  20  21
ENDBRANCH  19  20
ENDBRANCH   1  19
TORSDOF 9
ENDMDL
MODEL 10
REMARK VINA RESULT:      -7.1      3.020      6.105
REMARK  9 active torsions:
REMARK  status: ('A' for Active; 'I' for Inactive)
REMARK    1  A    between atoms: C_3  and  N_4 
REMARK       I    between atoms: N_4  and  C_5 
REMARK    2  A    between atoms: C_5  and  C_6 
REMARK    3  A    between atoms: C_13  and  C_14 
REMARK    4  A    between atoms: C_14  and  O_15 
REMARK    5  A    between atoms: O_15  and  C_16 
REMARK    6  A    between atoms: C_16  and  C_17 
REMARK       I    between atoms: C_17  and  N_18 
REMARK    7  A    between atoms: N_18  and  C_19 
REMARK    8  A    between atoms: C_19  and  C_20 
REMARK    9  A    between atoms: C_22  and  O_23 
ROOT
HETATM    1  C   UNL     1     -40.151  52.187 -53.570  1.00  0.00     0.293 C 
HETATM    2  O   UNL     1     -39.196  51.475 -53.846  1.00  0.00    -0.259 OA
ENDROOT
BRANCH   1   3
HETATM    3  C   UNL     1     -40.340  52.819 -52.241  1.00  0.00     0.041 A 
HETATM    4  C   UNL     1     -40.668  54.183 -52.209  1.00  0.00     0.047 A 
HETATM    5  C   UNL     1     -40.869  54.855 -50.998  1.00  0.00     0.042 A 
HETATM    6  C   UNL     1     -40.716  54.142 -49.790  1.00  0.00    -0.035 A 
HETATM    7  C   UNL     1     -40.889  54.787 -48.438  1.00  0.00     0.050 C 
HETATM    8  C   UNL     1     -40.370  52.778 -49.830  1.00  0.00     0.010 A 
HETATM    9  C   UNL     1     -40.192  52.117 -51.046  1.00  0.00     0.018 A 
BRANCH   5  10
HETATM   10  N   UNL     1     -41.204  56.226 -50.954  1.00  0.00    -0.321 N 
HETATM   11  C   UNL     1     -42.394  56.827 -51.333  1.00  0.00     0.279 C 
HETATM   12  O   UNL     1     -43.398  56.232 -51.713  1.00  0.00    -0.265 OA
HETATM   13  H   UNL     1     -40.528  56.866 -50.552  1.00  0.00     0.169 HD
BRANCH  11  14
HETATM   14  C   UNL     1     -42.370  58.271 -51.190  1.00  0.00     0.142 A 
HETATM   15  O   UNL     1     -41.378  58.863 -50.448  1.00  0.00    -0.317 OA
HETATM   16  C   UNL     1     -41.596  60.203 -50.489  1.00  0.00     0.143 A 
HETATM   17  C   UNL     1     -42.714  60.489 -51.235  1.00  0.00     0.027 A 
HETATM   18  C   UNL     1     -43.214  59.245 -51.688  1.00  0.00     0.045 A 
ENDBRANCH  11  14
ENDBRANCH   5  10
ENDBRANCH   1   3
BRANCH   1  19
HETATM   19  O   UNL     1     -41.128  52.550 -54.433  1.00  0.00    -0.308 OA
BRANCH  19  20
HETATM   20  C   UNL     1     -40.878  53.753 -55.167  1.00  0.00     0.281 C 
BRANCH  20  21
HETATM   21  C   UNL     1     -42.136  54.484 -55.652  1.00  0.00     0.242 C 
HETATM   22  N   UNL     1     -41.903  55.454 -56.599  1.00  0.00    -0.355 N 
HETATM   23  H   UNL     1     -40.937  55.670 -56.843  1.00  0.00     0.162 HD
HETATM   24  O   UNL     1     -43.258  54.191 -55.245  1.00  0.00    -0.271 OA
BRANCH  22  25
HETATM   25  C   UNL     1     -42.937  56.336 -57.081  1.00  0.00     0.161 C 
BRANCH  25  26
HETATM   26  C   UNL     1     -42.564  57.788 -56.904  1.00  0.00    -0.038 A 
HETATM   27  C   UNL     1     -42.214  58.584 -58.010  1.00  0.00     0.045 A 
HETATM   28  C   UNL     1     -41.872  59.929 -57.837  1.00  0.00     0.068 A 
HETATM   29  C   UNL     1     -41.893  60.481 -56.554  1.00  0.00     0.037 A 
HETATM   30  C   UNL     1     -42.231  59.701 -55.450  1.00  0.00     0.003 A 
HETATM   31  C   UNL     1     -42.560  58.359 -55.624  1.00  0.00     0.009 A 
BRANCH  28  32
HETATM   32  O   UNL     1     -41.513  60.803 -58.826  1.00  0.00    -0.356 OA
HETATM   33  C   UNL     1     -40.743  61.931 -58.431  1.00  0.00     0.210 C 
ENDBRANCH  28  32
ENDBRANCH  25  26
ENDBRANCH  22  25
ENDBRANCH  20  21
ENDBRANCH  19  20
ENDBRANCH   1  19
TORSDOF 9
ENDMDL
