MODEL 1
REMARK VINA RESULT:      -8.9      0.000      0.000
REMARK  8 active torsions:
REMARK  status: ('A' for Active; 'I' for Inactive)
REMARK    1  A    between atoms: C_5  and  C_6 
REMARK    2  A    between atoms: C_6  and  N_7 
REMARK       I    between atoms: N_7  and  C_8 
REMARK    3  A    between atoms: N_7  and  C_20 
REMARK    4  A    between atoms: C_8  and  C_9 
REMARK    5  A    between atoms: C_9  and  N_10 
REMARK    6  A    between atoms: C_20  and  C_21 
REMARK       I    between atoms: C_21  and  N_22 
REMARK    7  A    between atoms: N_22  and  C_23 
REMARK    8  A    between atoms: C_26  and  O_27 
ROOT
HETATM    1  N   UNL     1     -41.872  57.057 -54.552  1.00  0.00    -0.338 N 
HETATM    2  C   UNL     1     -41.934  58.453 -54.624  1.00  0.00     0.239 C 
HETATM    3  O   UNL     1     -41.135  59.158 -53.994  1.00  0.00    -0.271 OA
ENDROOT
BRANCH   1   4
HETATM    4  C   UNL     1     -40.699  56.518 -53.855  1.00  0.00     0.165 C 
BRANCH   4   5
HETATM    5  C   UNL     1     -40.576  55.013 -53.943  1.00  0.00    -0.040 A 
HETATM    6  C   UNL     1     -40.368  54.390 -55.181  1.00  0.00     0.009 A 
HETATM    7  C   UNL     1     -40.208  53.005 -55.260  1.00  0.00     0.007 A 
HETATM    8  C   UNL     1     -40.260  52.217 -54.104  1.00  0.00    -0.062 A 
HETATM    9  C   UNL     1     -40.068  50.732 -54.202  1.00  0.00     0.048 C 
HETATM   10  C   UNL     1     -40.498  52.832 -52.872  1.00  0.00     0.007 A 
HETATM   11  C   UNL     1     -40.662  54.217 -52.793  1.00  0.00     0.009 A 
ENDBRANCH   4   5
ENDBRANCH   1   4
BRANCH   1  12
HETATM   12  C   UNL     1     -43.107  56.251 -54.463  1.00  0.00     0.229 C 
BRANCH  12  13
HETATM   13  C   UNL     1     -44.243  56.871 -53.654  1.00  0.00     0.240 C 
HETATM   14  N   UNL     1     -44.216  56.869 -52.287  1.00  0.00    -0.326 N 
HETATM   15  H   UNL     1     -44.953  57.459 -51.917  1.00  0.00     0.169 HD
HETATM   16  O   UNL     1     -45.191  57.443 -54.207  1.00  0.00    -0.271 OA
BRANCH  14  17
HETATM   17  C   UNL     1     -43.363  56.282 -51.333  1.00  0.00     0.034 A 
HETATM   18  C   UNL     1     -42.280  57.062 -50.907  1.00  0.00     0.032 A 
HETATM   19  C   UNL     1     -41.366  56.574 -49.965  1.00  0.00     0.039 A 
HETATM   20  C   UNL     1     -41.518  55.300 -49.424  1.00  0.00     0.068 A 
HETATM   21  C   UNL     1     -42.614  54.535 -49.809  1.00  0.00     0.039 A 
HETATM   22  C   UNL     1     -43.528  55.024 -50.756  1.00  0.00     0.032 A 
BRANCH  20  23
HETATM   23  O   UNL     1     -40.558  54.926 -48.526  1.00  0.00    -0.356 OA
HETATM   24  C   UNL     1     -40.482  53.538 -48.223  1.00  0.00     0.210 C 
ENDBRANCH  20  23
ENDBRANCH  14  17
ENDBRANCH  12  13
ENDBRANCH   1  12
BRANCH   2  25
HETATM   25  C   UNL     1     -42.831  59.105 -55.654  1.00  0.00     0.250 C 
BRANCH  25  26
HETATM   26  N   UNL     1     -42.374  59.095 -57.024  1.00  0.00    -0.263 N 
HETATM   27  N   UNL     1     -41.650  60.107 -57.539  1.00  0.00     0.006 NA
HETATM   28  N   UNL     1     -41.378  59.804 -58.802  1.00  0.00    -0.158 NA
HETATM   29  C   UNL     1     -41.886  58.559 -59.062  1.00  0.00     0.102 A 
HETATM   30  C   UNL     1     -42.525  58.073 -57.929  1.00  0.00     0.079 A 
HETATM   31  C   UNL     1     -41.841  57.772 -60.221  1.00  0.00     0.035 A 
HETATM   32  C   UNL     1     -43.131  56.812 -57.876  1.00  0.00     0.033 A 
HETATM   33  C   UNL     1     -43.067  56.034 -59.037  1.00  0.00     0.002 A 
HETATM   34  C   UNL     1     -42.436  56.502 -60.191  1.00  0.00     0.002 A 
ENDBRANCH  25  26
ENDBRANCH   2  25
TORSDOF 8
ENDMDL
MODEL 2
REMARK VINA RESULT:      -8.8      1.749      2.175
REMARK  8 active torsions:
REMARK  status: ('A' for Active; 'I' for Inactive)
REMARK    1  A    between atoms: C_5  and  C_6 
REMARK    2  A    between atoms: C_6  and  N_7 
REMARK       I    between atoms: N_7  and  C_8 
REMARK    3  A    between atoms: N_7  and  C_20 
REMARK    4  A    between atoms: C_8  and  C_9 
REMARK    5  A    between atoms: C_9  and  N_10 
REMARK    6  A    between atoms: C_20  and  C_21 
REMARK       I    between atoms: C_21  and  N_22 
REMARK    7  A    between atoms: N_22  and  C_23 
REMARK    8  A    between atoms: C_26  and  O_27 
ROOT
HETATM    1  N   UNL     1     -42.657  57.052 -55.013  1.00  0.00    -0.338 N 
HETATM    2  C   UNL     1     -42.671  58.145 -55.888  1.00  0.00     0.239 C 
HETATM    3  O   UNL     1     -41.709  58.921 -55.950  1.00  0.00    -0.271 OA
ENDROOT
BRANCH   1   4
HETATM    4  C   UNL     1     -41.374  56.800 -54.348  1.00  0.00     0.165 C 
BRANCH   4   5
HETATM    5  C   UNL     1     -41.017  55.333 -54.250  1.00  0.00    -0.040 A 
HETATM    6  C   UNL     1     -40.699  54.602 -55.402  1.00  0.00     0.009 A 
HETATM    7  C   UNL     1     -40.324  53.260 -55.309  1.00  0.00     0.007 A 
HETATM    8  C   UNL     1     -40.267  52.622 -54.065  1.00  0.00    -0.062 A 
HETATM    9  C   UNL     1     -39.845  51.185 -53.978  1.00  0.00     0.048 C 
HETATM   10  C   UNL     1     -40.614  53.340 -52.916  1.00  0.00     0.007 A 
HETATM   11  C   UNL     1     -40.992  54.682 -53.009  1.00  0.00     0.009 A 
ENDBRANCH   4   5
ENDBRANCH   1   4
BRANCH   1  12
HETATM   12  C   UNL     1     -43.867  56.681 -54.252  1.00  0.00     0.229 C 
BRANCH  12  13
HETATM   13  C   UNL     1     -44.407  57.751 -53.306  1.00  0.00     0.240 C 
HETATM   14  N   UNL     1     -44.024  57.787 -51.994  1.00  0.00    -0.326 N 
HETATM   15  H   UNL     1     -44.340  58.646 -51.556  1.00  0.00     0.169 HD
HETATM   16  O   UNL     1     -45.156  58.649 -53.709  1.00  0.00    -0.271 OA
BRANCH  14  17
HETATM   17  C   UNL     1     -43.258  56.930 -51.180  1.00  0.00     0.034 A 
HETATM   18  C   UNL     1     -43.824  55.682 -50.889  1.00  0.00     0.032 A 
HETATM   19  C   UNL     1     -43.151  54.756 -50.083  1.00  0.00     0.039 A 
HETATM   20  C   UNL     1     -41.896  55.054 -49.558  1.00  0.00     0.068 A 
HETATM   21  C   UNL     1     -41.308  56.273 -49.877  1.00  0.00     0.039 A 
HETATM   22  C   UNL     1     -41.985  57.202 -50.682  1.00  0.00     0.032 A 
BRANCH  20  23
HETATM   23  O   UNL     1     -41.342  54.079 -48.776  1.00  0.00    -0.356 OA
HETATM   24  C   UNL     1     -39.920  54.019 -48.753  1.00  0.00     0.210 C 
ENDBRANCH  20  23
ENDBRANCH  14  17
ENDBRANCH  12  13
ENDBRANCH   1  12
BRANCH   2  25
HETATM   25  C   UNL     1     -43.765  58.248 -56.929  1.00  0.00     0.250 C 
BRANCH  25  26
HETATM   26  N   UNL     1     -43.704  57.328 -58.040  1.00  0.00    -0.263 N 
HETATM   27  N   UNL     1     -42.593  56.619 -58.317  1.00  0.00     0.006 NA
HETATM   28  N   UNL     1     -42.851  55.866 -59.378  1.00  0.00    -0.158 NA
HETATM   29  C   UNL     1     -44.160  56.060 -59.733  1.00  0.00     0.102 A 
HETATM   30  C   UNL     1     -44.738  56.990 -58.879  1.00  0.00     0.079 A 
HETATM   31  C   UNL     1     -44.932  55.483 -60.751  1.00  0.00     0.035 A 
HETATM   32  C   UNL     1     -46.077  57.386 -58.976  1.00  0.00     0.033 A 
HETATM   33  C   UNL     1     -46.838  56.793 -59.989  1.00  0.00     0.002 A 
HETATM   34  C   UNL     1     -46.278  55.859 -60.864  1.00  0.00     0.002 A 
ENDBRANCH  25  26
ENDBRANCH   2  25
TORSDOF 8
ENDMDL
MODEL 3
REMARK VINA RESULT:      -8.6      2.262      3.661
REMARK  8 active torsions:
REMARK  status: ('A' for Active; 'I' for Inactive)
REMARK    1  A    between atoms: C_5  and  C_6 
REMARK    2  A    between atoms: C_6  and  N_7 
REMARK       I    between atoms: N_7  and  C_8 
REMARK    3  A    between atoms: N_7  and  C_20 
REMARK    4  A    between atoms: C_8  and  C_9 
REMARK    5  A    between atoms: C_9  and  N_10 
REMARK    6  A    between atoms: C_20  and  C_21 
REMARK       I    between atoms: C_21  and  N_22 
REMARK    7  A    between atoms: N_22  and  C_23 
REMARK    8  A    between atoms: C_26  and  O_27 
ROOT
HETATM    1  N   UNL     1     -42.153  57.242 -53.742  1.00  0.00    -0.338 N 
HETATM    2  C   UNL     1     -41.957  58.551 -54.195  1.00  0.00     0.239 C 
HETATM    3  O   UNL     1     -40.936  59.182 -53.892  1.00  0.00    -0.271 OA
ENDROOT
BRANCH   1   4
HETATM    4  C   UNL     1     -41.000  56.633 -53.070  1.00  0.00     0.165 C 
BRANCH   4   5
HETATM    5  C   UNL     1     -40.798  55.172 -53.409  1.00  0.00    -0.040 A 
HETATM    6  C   UNL     1     -40.501  54.784 -54.721  1.00  0.00     0.009 A 
HETATM    7  C   UNL     1     -40.268  53.441 -55.028  1.00  0.00     0.007 A 
HETATM    8  C   UNL     1     -40.337  52.462 -54.030  1.00  0.00    -0.062 A 
HETATM    9  C   UNL     1     -40.068  51.026 -54.370  1.00  0.00     0.048 C 
HETATM   10  C   UNL     1     -40.665  52.843 -52.725  1.00  0.00     0.007 A 
HETATM   11  C   UNL     1     -40.900  54.185 -52.418  1.00  0.00     0.009 A 
ENDBRANCH   4   5
ENDBRANCH   1   4
BRANCH   1  12
HETATM   12  C   UNL     1     -43.484  56.796 -53.280  1.00  0.00     0.229 C 
BRANCH  12  13
HETATM   13  C   UNL     1     -43.670  56.733 -51.766  1.00  0.00     0.240 C 
HETATM   14  N   UNL     1     -43.900  57.867 -51.038  1.00  0.00    -0.326 N 
HETATM   15  H   UNL     1     -44.163  57.631 -50.087  1.00  0.00     0.169 HD
HETATM   16  O   UNL     1     -43.679  55.653 -51.163  1.00  0.00    -0.271 OA
BRANCH  14  17
HETATM   17  C   UNL     1     -43.902  59.240 -51.351  1.00  0.00     0.034 A 
HETATM   18  C   UNL     1     -42.799  59.980 -50.903  1.00  0.00     0.032 A 
HETATM   19  C   UNL     1     -42.704  61.354 -51.153  1.00  0.00     0.039 A 
HETATM   20  C   UNL     1     -43.702  62.016 -51.862  1.00  0.00     0.068 A 
HETATM   21  C   UNL     1     -44.780  61.283 -52.347  1.00  0.00     0.039 A 
HETATM   22  C   UNL     1     -44.876  59.905 -52.092  1.00  0.00     0.032 A 
BRANCH  20  23
HETATM   23  O   UNL     1     -43.507  63.358 -52.033  1.00  0.00    -0.356 OA
HETATM   24  C   UNL     1     -43.055  63.772 -53.317  1.00  0.00     0.210 C 
ENDBRANCH  20  23
ENDBRANCH  14  17
ENDBRANCH  12  13
ENDBRANCH   1  12
BRANCH   2  25
HETATM   25  C   UNL     1     -42.882  59.118 -55.250  1.00  0.00     0.250 C 
BRANCH  25  26
HETATM   26  N   UNL     1     -42.453  59.018 -56.625  1.00  0.00    -0.263 N 
HETATM   27  N   UNL     1     -41.744  59.995 -57.222  1.00  0.00     0.006 NA
HETATM   28  N   UNL     1     -41.497  59.607 -58.467  1.00  0.00    -0.158 NA
HETATM   29  C   UNL     1     -42.004  58.346 -58.632  1.00  0.00     0.102 A 
HETATM   30  C   UNL     1     -42.617  57.935 -57.455  1.00  0.00     0.079 A 
HETATM   31  C   UNL     1     -41.978  57.481 -59.735  1.00  0.00     0.035 A 
HETATM   32  C   UNL     1     -43.216  56.679 -57.304  1.00  0.00     0.033 A 
HETATM   33  C   UNL     1     -43.171  55.823 -58.410  1.00  0.00     0.002 A 
HETATM   34  C   UNL     1     -42.566  56.215 -59.606  1.00  0.00     0.002 A 
ENDBRANCH  25  26
ENDBRANCH   2  25
TORSDOF 8
ENDMDL
MODEL 4
REMARK VINA RESULT:      -8.6      3.428      6.834
REMARK  8 active torsions:
REMARK  status: ('A' for Active; 'I' for Inactive)
REMARK    1  A    between atoms: C_5  and  C_6 
REMARK    2  A    between atoms: C_6  and  N_7 
REMARK       I    between atoms: N_7  and  C_8 
REMARK    3  A    between atoms: N_7  and  C_20 
REMARK    4  A    between atoms: C_8  and  C_9 
REMARK    5  A    between atoms: C_9  and  N_10 
REMARK    6  A    between atoms: C_20  and  C_21 
REMARK       I    between atoms: C_21  and  N_22 
REMARK    7  A    between atoms: N_22  and  C_23 
REMARK    8  A    between atoms: C_26  and  O_27 
ROOT
HETATM    1  N   UNL     1     -42.144  55.814 -51.914  1.00  0.00    -0.338 N 
HETATM    2  C   UNL     1     -41.949  54.559 -51.327  1.00  0.00     0.239 C 
HETATM    3  O   UNL     1     -42.878  53.745 -51.245  1.00  0.00    -0.271 OA
ENDROOT
BRANCH   1   4
HETATM    4  C   UNL     1     -43.439  56.000 -52.577  1.00  0.00     0.165 C 
BRANCH   4   5
HETATM    5  C   UNL     1     -43.362  55.955 -54.088  1.00  0.00    -0.040 A 
HETATM    6  C   UNL     1     -43.673  57.090 -54.847  1.00  0.00     0.009 A 
HETATM    7  C   UNL     1     -43.559  57.066 -56.239  1.00  0.00     0.007 A 
HETATM    8  C   UNL     1     -43.139  55.904 -56.897  1.00  0.00    -0.062 A 
HETATM    9  C   UNL     1     -43.003  55.897 -58.391  1.00  0.00     0.048 C 
HETATM   10  C   UNL     1     -42.857  54.760 -56.144  1.00  0.00     0.007 A 
HETATM   11  C   UNL     1     -42.975  54.783 -54.752  1.00  0.00     0.009 A 
ENDBRANCH   4   5
ENDBRANCH   1   4
BRANCH   1  12
HETATM   12  C   UNL     1     -41.539  57.025 -51.322  1.00  0.00     0.229 C 
BRANCH  12  13
HETATM   13  C   UNL     1     -41.304  58.185 -52.285  1.00  0.00     0.240 C 
HETATM   14  N   UNL     1     -42.041  59.333 -52.195  1.00  0.00    -0.326 N 
HETATM   15  H   UNL     1     -41.649  60.054 -52.793  1.00  0.00     0.169 HD
HETATM   16  O   UNL     1     -40.405  58.146 -53.134  1.00  0.00    -0.271 OA
BRANCH  14  17
HETATM   17  C   UNL     1     -43.155  59.716 -51.423  1.00  0.00     0.034 A 
HETATM   18  C   UNL     1     -42.913  60.649 -50.406  1.00  0.00     0.032 A 
HETATM   19  C   UNL     1     -43.947  61.094 -49.574  1.00  0.00     0.039 A 
HETATM   20  C   UNL     1     -45.246  60.622 -49.746  1.00  0.00     0.068 A 
HETATM   21  C   UNL     1     -45.504  59.729 -50.780  1.00  0.00     0.039 A 
HETATM   22  C   UNL     1     -44.465  59.281 -51.611  1.00  0.00     0.032 A 
BRANCH  20  23
HETATM   23  O   UNL     1     -46.169  61.117 -48.867  1.00  0.00    -0.356 OA
HETATM   24  C   UNL     1     -45.659  61.655 -47.652  1.00  0.00     0.210 C 
ENDBRANCH  20  23
ENDBRANCH  14  17
ENDBRANCH  12  13
ENDBRANCH   1  12
BRANCH   2  25
HETATM   25  C   UNL     1     -40.543  54.102 -51.002  1.00  0.00     0.250 C 
BRANCH  25  26
HETATM   26  N   UNL     1     -40.263  52.691 -51.130  1.00  0.00    -0.263 N 
HETATM   27  N   UNL     1     -40.233  51.872 -50.062  1.00  0.00     0.006 NA
HETATM   28  N   UNL     1     -39.961  50.650 -50.502  1.00  0.00    -0.158 NA
HETATM   29  C   UNL     1     -39.881  50.695 -51.868  1.00  0.00     0.102 A 
HETATM   30  C   UNL     1     -40.083  51.998 -52.302  1.00  0.00     0.079 A 
HETATM   31  C   UNL     1     -39.653  49.680 -52.810  1.00  0.00     0.035 A 
HETATM   32  C   UNL     1     -40.078  52.362 -53.654  1.00  0.00     0.033 A 
HETATM   33  C   UNL     1     -39.861  51.337 -54.581  1.00  0.00     0.002 A 
HETATM   34  C   UNL     1     -39.650  50.019 -54.170  1.00  0.00     0.002 A 
ENDBRANCH  25  26
ENDBRANCH   2  25
TORSDOF 8
ENDMDL
MODEL 5
REMARK VINA RESULT:      -8.5      2.007      6.235
REMARK  8 active torsions:
REMARK  status: ('A' for Active; 'I' for Inactive)
REMARK    1  A    between atoms: C_5  and  C_6 
REMARK    2  A    between atoms: C_6  and  N_7 
REMARK       I    between atoms: N_7  and  C_8 
REMARK    3  A    between atoms: N_7  and  C_20 
REMARK    4  A    between atoms: C_8  and  C_9 
REMARK    5  A    between atoms: C_9  and  N_10 
REMARK    6  A    between atoms: C_20  and  C_21 
REMARK       I    between atoms: C_21  and  N_22 
REMARK    7  A    between atoms: N_22  and  C_23 
REMARK    8  A    between atoms: C_26  and  O_27 
ROOT
HETATM    1  N   UNL     1     -42.216  56.110 -55.093  1.00  0.00    -0.338 N 
HETATM    2  C   UNL     1     -42.085  54.736 -54.863  1.00  0.00     0.239 C 
HETATM    3  O   UNL     1     -43.077  53.996 -54.856  1.00  0.00    -0.271 OA
ENDROOT
BRANCH   1   4
HETATM    4  C   UNL     1     -43.552  56.550 -55.508  1.00  0.00     0.165 C 
BRANCH   4   5
HETATM    5  C   UNL     1     -43.575  57.249 -56.850  1.00  0.00    -0.040 A 
HETATM    6  C   UNL     1     -42.938  56.675 -57.958  1.00  0.00     0.009 A 
HETATM    7  C   UNL     1     -42.996  57.294 -59.209  1.00  0.00     0.007 A 
HETATM    8  C   UNL     1     -43.686  58.502 -59.373  1.00  0.00    -0.062 A 
HETATM    9  C   UNL     1     -43.755  59.147 -60.725  1.00  0.00     0.048 C 
HETATM   10  C   UNL     1     -44.295  59.093 -58.262  1.00  0.00     0.007 A 
HETATM   11  C   UNL     1     -44.235  58.475 -57.010  1.00  0.00     0.009 A 
ENDBRANCH   4   5
ENDBRANCH   1   4
BRANCH   1  12
HETATM   12  C   UNL     1     -41.425  57.084 -54.312  1.00  0.00     0.229 C 
BRANCH  12  13
HETATM   13  C   UNL     1     -42.234  58.114 -53.529  1.00  0.00     0.240 C 
HETATM   14  N   UNL     1     -42.551  57.908 -52.215  1.00  0.00    -0.326 N 
HETATM   15  H   UNL     1     -42.939  58.751 -51.807  1.00  0.00     0.169 HD
HETATM   16  O   UNL     1     -42.573  59.189 -54.038  1.00  0.00    -0.271 OA
BRANCH  14  17
HETATM   17  C   UNL     1     -42.396  56.818 -51.336  1.00  0.00     0.034 A 
HETATM   18  C   UNL     1     -41.273  56.852 -50.499  1.00  0.00     0.032 A 
HETATM   19  C   UNL     1     -41.018  55.816 -49.592  1.00  0.00     0.039 A 
HETATM   20  C   UNL     1     -41.883  54.729 -49.497  1.00  0.00     0.068 A 
HETATM   21  C   UNL     1     -43.022  54.707 -50.294  1.00  0.00     0.039 A 
HETATM   22  C   UNL     1     -43.275  55.745 -51.205  1.00  0.00     0.032 A 
BRANCH  20  23
HETATM   23  O   UNL     1     -41.524  53.774 -48.587  1.00  0.00    -0.356 OA
HETATM   24  C   UNL     1     -40.317  54.007 -47.869  1.00  0.00     0.210 C 
ENDBRANCH  20  23
ENDBRANCH  14  17
ENDBRANCH  12  13
ENDBRANCH   1  12
BRANCH   2  25
HETATM   25  C   UNL     1     -40.705  54.113 -54.854  1.00  0.00     0.250 C 
BRANCH  25  26
HETATM   26  N   UNL     1     -40.319  53.387 -53.667  1.00  0.00    -0.263 N 
HETATM   27  N   UNL     1     -40.210  53.991 -52.468  1.00  0.00     0.006 NA
HETATM   28  N   UNL     1     -39.852  53.068 -51.585  1.00  0.00    -0.158 NA
HETATM   29  C   UNL     1     -39.796  51.859 -52.228  1.00  0.00     0.102 A 
HETATM   30  C   UNL     1     -40.104  52.034 -53.571  1.00  0.00     0.079 A 
HETATM   31  C   UNL     1     -39.504  50.575 -51.748  1.00  0.00     0.035 A 
HETATM   32  C   UNL     1     -40.148  50.977 -54.488  1.00  0.00     0.033 A 
HETATM   33  C   UNL     1     -39.867  49.700 -53.991  1.00  0.00     0.002 A 
HETATM   34  C   UNL     1     -39.548  49.499 -52.646  1.00  0.00     0.002 A 
ENDBRANCH  25  26
ENDBRANCH   2  25
TORSDOF 8
ENDMDL
MODEL 6
REMARK VINA RESULT:      -8.4      4.143      7.429
REMARK  8 active torsions:
REMARK  status: ('A' for Active; 'I' for Inactive)
REMARK    1  A    between atoms: C_5  and  C_6 
REMARK    2  A    between atoms: C_6  and  N_7 
REMARK       I    between atoms: N_7  and  C_8 
REMARK    3  A    between atoms: N_7  and  C_20 
REMARK    4  A    between atoms: C_8  and  C_9 
REMARK    5  A    between atoms: C_9  and  N_10 
REMARK    6  A    between atoms: C_20  and  C_21 
REMARK       I    between atoms: C_21  and  N_22 
REMARK    7  A    between atoms: N_22  and  C_23 
REMARK    8  A    between atoms: C_26  and  O_27 
ROOT
HETATM    1  N   UNL     1     -44.159  58.211 -51.276  1.00  0.00    -0.338 N 
HETATM    2  C   UNL     1     -45.035  59.137 -50.698  1.00  0.00     0.239 C 
HETATM    3  O   UNL     1     -46.083  58.766 -50.155  1.00  0.00    -0.271 OA
ENDROOT
BRANCH   1   4
HETATM    4  C   UNL     1     -44.477  56.803 -51.016  1.00  0.00     0.165 C 
BRANCH   4   5
HETATM    5  C   UNL     1     -43.259  55.910 -50.922  1.00  0.00    -0.040 A 
HETATM    6  C   UNL     1     -43.351  54.550 -51.243  1.00  0.00     0.009 A 
HETATM    7  C   UNL     1     -42.219  53.733 -51.201  1.00  0.00     0.007 A 
HETATM    8  C   UNL     1     -40.976  54.259 -50.831  1.00  0.00    -0.062 A 
HETATM    9  C   UNL     1     -39.765  53.375 -50.808  1.00  0.00     0.048 C 
HETATM   10  C   UNL     1     -40.887  55.610 -50.480  1.00  0.00     0.007 A 
HETATM   11  C   UNL     1     -42.020  56.427 -50.519  1.00  0.00     0.009 A 
ENDBRANCH   4   5
ENDBRANCH   1   4
BRANCH   1  12
HETATM   12  C   UNL     1     -43.500  58.500 -52.566  1.00  0.00     0.229 C 
BRANCH  12  13
HETATM   13  C   UNL     1     -44.355  58.272 -53.810  1.00  0.00     0.240 C 
HETATM   14  N   UNL     1     -44.159  57.178 -54.607  1.00  0.00    -0.326 N 
HETATM   15  H   UNL     1     -44.909  57.094 -55.284  1.00  0.00     0.169 HD
HETATM   16  O   UNL     1     -45.285  59.034 -54.102  1.00  0.00    -0.271 OA
BRANCH  14  17
HETATM   17  C   UNL     1     -43.194  56.153 -54.631  1.00  0.00     0.034 A 
HETATM   18  C   UNL     1     -41.868  56.544 -54.401  1.00  0.00     0.032 A 
HETATM   19  C   UNL     1     -40.828  55.607 -54.409  1.00  0.00     0.039 A 
HETATM   20  C   UNL     1     -41.091  54.259 -54.641  1.00  0.00     0.068 A 
HETATM   21  C   UNL     1     -42.408  53.855 -54.828  1.00  0.00     0.039 A 
HETATM   22  C   UNL     1     -43.450  54.796 -54.822  1.00  0.00     0.032 A 
BRANCH  20  23
HETATM   23  O   UNL     1     -39.996  53.441 -54.639  1.00  0.00    -0.356 OA
HETATM   24  C   UNL     1     -40.213  52.095 -54.229  1.00  0.00     0.210 C 
ENDBRANCH  20  23
ENDBRANCH  14  17
ENDBRANCH  12  13
ENDBRANCH   1  12
BRANCH   2  25
HETATM   25  C   UNL     1     -44.591  60.574 -50.530  1.00  0.00     0.250 C 
BRANCH  25  26
HETATM   26  N   UNL     1     -45.493  61.465 -49.839  1.00  0.00    -0.263 N 
HETATM   27  N   UNL     1     -46.470  62.130 -50.485  1.00  0.00     0.006 NA
HETATM   28  N   UNL     1     -47.126  62.852 -49.586  1.00  0.00    -0.158 NA
HETATM   29  C   UNL     1     -46.592  62.587 -48.352  1.00  0.00     0.102 A 
HETATM   30  C   UNL     1     -45.544  61.687 -48.484  1.00  0.00     0.079 A 
HETATM   31  C   UNL     1     -46.943  63.058 -47.079  1.00  0.00     0.035 A 
HETATM   32  C   UNL     1     -44.808  61.207 -47.394  1.00  0.00     0.033 A 
HETATM   33  C   UNL     1     -45.178  61.676 -46.129  1.00  0.00     0.002 A 
HETATM   34  C   UNL     1     -46.225  62.586 -45.971  1.00  0.00     0.002 A 
ENDBRANCH  25  26
ENDBRANCH   2  25
TORSDOF 8
ENDMDL
MODEL 7
REMARK VINA RESULT:      -8.4      1.998      6.933
REMARK  8 active torsions:
REMARK  status: ('A' for Active; 'I' for Inactive)
REMARK    1  A    between atoms: C_5  and  C_6 
REMARK    2  A    between atoms: C_6  and  N_7 
REMARK       I    between atoms: N_7  and  C_8 
REMARK    3  A    between atoms: N_7  and  C_20 
REMARK    4  A    between atoms: C_8  and  C_9 
REMARK    5  A    between atoms: C_9  and  N_10 
REMARK    6  A    between atoms: C_20  and  C_21 
REMARK       I    between atoms: C_21  and  N_22 
REMARK    7  A    between atoms: N_22  and  C_23 
REMARK    8  A    between atoms: C_26  and  O_27 
ROOT
HETATM    1  N   UNL     1     -42.617  57.370 -54.801  1.00  0.00    -0.338 N 
HETATM    2  C   UNL     1     -43.775  57.504 -54.028  1.00  0.00     0.239 C 
HETATM    3  O   UNL     1     -44.791  56.845 -54.286  1.00  0.00    -0.271 OA
ENDROOT
BRANCH   1   4
HETATM    4  C   UNL     1     -42.641  56.279 -55.781  1.00  0.00     0.165 C 
BRANCH   4   5
HETATM    5  C   UNL     1     -41.952  55.018 -55.307  1.00  0.00    -0.040 A 
HETATM    6  C   UNL     1     -40.560  54.985 -55.156  1.00  0.00     0.009 A 
HETATM    7  C   UNL     1     -39.925  53.838 -54.675  1.00  0.00     0.007 A 
HETATM    8  C   UNL     1     -40.670  52.700 -54.343  1.00  0.00    -0.062 A 
HETATM    9  C   UNL     1     -39.977  51.481 -53.810  1.00  0.00     0.048 C 
HETATM   10  C   UNL     1     -42.056  52.719 -54.522  1.00  0.00     0.007 A 
HETATM   11  C   UNL     1     -42.691  53.865 -55.006  1.00  0.00     0.009 A 
ENDBRANCH   4   5
ENDBRANCH   1   4
BRANCH   1  12
HETATM   12  C   UNL     1     -41.816  58.556 -55.169  1.00  0.00     0.229 C 
BRANCH  12  13
HETATM   13  C   UNL     1     -42.608  59.757 -55.676  1.00  0.00     0.240 C 
HETATM   14  N   UNL     1     -43.253  59.717 -56.881  1.00  0.00    -0.326 N 
HETATM   15  H   UNL     1     -43.860  60.523 -56.986  1.00  0.00     0.169 HD
HETATM   16  O   UNL     1     -42.740  60.778 -54.989  1.00  0.00    -0.271 OA
BRANCH  14  17
HETATM   17  C   UNL     1     -43.287  58.784 -57.935  1.00  0.00     0.034 A 
HETATM   18  C   UNL     1     -44.531  58.197 -58.204  1.00  0.00     0.032 A 
HETATM   19  C   UNL     1     -44.676  57.251 -59.226  1.00  0.00     0.039 A 
HETATM   20  C   UNL     1     -43.584  56.878 -60.005  1.00  0.00     0.068 A 
HETATM   21  C   UNL     1     -42.355  57.486 -59.774  1.00  0.00     0.039 A 
HETATM   22  C   UNL     1     -42.210  58.432 -58.747  1.00  0.00     0.032 A 
BRANCH  20  23
HETATM   23  O   UNL     1     -43.843  55.938 -60.963  1.00  0.00    -0.356 OA
HETATM   24  C   UNL     1     -44.799  54.938 -60.625  1.00  0.00     0.210 C 
ENDBRANCH  20  23
ENDBRANCH  14  17
ENDBRANCH  12  13
ENDBRANCH   1  12
BRANCH   2  25
HETATM   25  C   UNL     1     -43.716  58.282 -52.731  1.00  0.00     0.250 C 
BRANCH  25  26
HETATM   26  N   UNL     1     -42.707  57.891 -51.774  1.00  0.00    -0.263 N 
HETATM   27  N   UNL     1     -41.960  58.799 -51.118  1.00  0.00     0.006 NA
HETATM   28  N   UNL     1     -41.139  58.136 -50.313  1.00  0.00    -0.158 NA
HETATM   29  C   UNL     1     -41.419  56.800 -50.422  1.00  0.00     0.102 A 
HETATM   30  C   UNL     1     -42.435  56.613 -51.350  1.00  0.00     0.079 A 
HETATM   31  C   UNL     1     -40.869  55.689 -49.767  1.00  0.00     0.035 A 
HETATM   32  C   UNL     1     -42.956  55.354 -51.668  1.00  0.00     0.033 A 
HETATM   33  C   UNL     1     -42.406  54.256 -50.998  1.00  0.00     0.002 A 
HETATM   34  C   UNL     1     -41.380  54.417 -50.064  1.00  0.00     0.002 A 
ENDBRANCH  25  26
ENDBRANCH   2  25
TORSDOF 8
ENDMDL
MODEL 8
REMARK VINA RESULT:      -8.3      2.451      4.035
REMARK  8 active torsions:
REMARK  status: ('A' for Active; 'I' for Inactive)
REMARK    1  A    between atoms: C_5  and  C_6 
REMARK    2  A    between atoms: C_6  and  N_7 
REMARK       I    between atoms: N_7  and  C_8 
REMARK    3  A    between atoms: N_7  and  C_20 
REMARK    4  A    between atoms: C_8  and  C_9 
REMARK    5  A    between atoms: C_9  and  N_10 
REMARK    6  A    between atoms: C_20  and  C_21 
REMARK       I    between atoms: C_21  and  N_22 
REMARK    7  A    between atoms: N_22  and  C_23 
REMARK    8  A    between atoms: C_26  and  O_27 
ROOT
HETATM    1  N   UNL     1     -42.649  57.376 -55.266  1.00  0.00    -0.338 N 
HETATM    2  C   UNL     1     -43.513  58.018 -56.161  1.00  0.00     0.239 C 
HETATM    3  O   UNL     1     -44.611  58.447 -55.785  1.00  0.00    -0.271 OA
ENDROOT
BRANCH   1   4
HETATM    4  C   UNL     1     -43.054  57.430 -53.857  1.00  0.00     0.165 C 
BRANCH   4   5
HETATM    5  C   UNL     1     -41.973  57.943 -52.931  1.00  0.00    -0.040 A 
HETATM    6  C   UNL     1     -40.831  58.564 -53.451  1.00  0.00     0.009 A 
HETATM    7  C   UNL     1     -39.853  59.079 -52.597  1.00  0.00     0.007 A 
HETATM    8  C   UNL     1     -39.996  58.976 -51.209  1.00  0.00    -0.062 A 
HETATM    9  C   UNL     1     -38.946  59.549 -50.303  1.00  0.00     0.048 C 
HETATM   10  C   UNL     1     -41.120  58.328 -50.687  1.00  0.00     0.007 A 
HETATM   11  C   UNL     1     -42.097  57.810 -51.541  1.00  0.00     0.009 A 
ENDBRANCH   4   5
ENDBRANCH   1   4
BRANCH   1  12
HETATM   12  C   UNL     1     -41.894  56.175 -55.678  1.00  0.00     0.229 C 
BRANCH  12  13
HETATM   13  C   UNL     1     -42.724  54.911 -55.887  1.00  0.00     0.240 C 
HETATM   14  N   UNL     1     -42.956  54.044 -54.856  1.00  0.00    -0.326 N 
HETATM   15  H   UNL     1     -43.653  53.356 -55.121  1.00  0.00     0.169 HD
HETATM   16  O   UNL     1     -43.260  54.665 -56.975  1.00  0.00    -0.271 OA
BRANCH  14  17
HETATM   17  C   UNL     1     -42.482  53.957 -53.533  1.00  0.00     0.034 A 
HETATM   18  C   UNL     1     -41.133  53.611 -53.378  1.00  0.00     0.032 A 
HETATM   19  C   UNL     1     -40.561  53.490 -52.106  1.00  0.00     0.039 A 
HETATM   20  C   UNL     1     -41.321  53.720 -50.963  1.00  0.00     0.068 A 
HETATM   21  C   UNL     1     -42.649  54.106 -51.107  1.00  0.00     0.039 A 
HETATM   22  C   UNL     1     -43.223  54.224 -52.382  1.00  0.00     0.032 A 
BRANCH  20  23
HETATM   23  O   UNL     1     -40.659  53.559 -49.778  1.00  0.00    -0.356 OA
HETATM   24  C   UNL     1     -39.493  54.355 -49.592  1.00  0.00     0.210 C 
ENDBRANCH  20  23
ENDBRANCH  14  17
ENDBRANCH  12  13
ENDBRANCH   1  12
BRANCH   2  25
HETATM   25  C   UNL     1     -43.008  58.398 -57.536  1.00  0.00     0.250 C 
BRANCH  25  26
HETATM   26  N   UNL     1     -43.301  57.489 -58.619  1.00  0.00    -0.263 N 
HETATM   27  N   UNL     1     -42.336  56.774 -59.228  1.00  0.00     0.006 NA
HETATM   28  N   UNL     1     -42.916  56.035 -60.165  1.00  0.00    -0.158 NA
HETATM   29  C   UNL     1     -44.268  56.244 -60.100  1.00  0.00     0.102 A 
HETATM   30  C   UNL     1     -44.546  57.170 -59.103  1.00  0.00     0.079 A 
HETATM   31  C   UNL     1     -45.322  55.684 -60.837  1.00  0.00     0.035 A 
HETATM   32  C   UNL     1     -45.846  57.578 -58.781  1.00  0.00     0.033 A 
HETATM   33  C   UNL     1     -46.887  57.002 -59.517  1.00  0.00     0.002 A 
HETATM   34  C   UNL     1     -46.633  56.073 -60.529  1.00  0.00     0.002 A 
ENDBRANCH  25  26
ENDBRANCH   2  25
TORSDOF 8
ENDMDL
MODEL 9
REMARK VINA RESULT:      -8.3      2.140      3.771
REMARK  8 active torsions:
REMARK  status: ('A' for Active; 'I' for Inactive)
REMARK    1  A    between atoms: C_5  and  C_6 
REMARK    2  A    between atoms: C_6  and  N_7 
REMARK       I    between atoms: N_7  and  C_8 
REMARK    3  A    between atoms: N_7  and  C_20 
REMARK    4  A    between atoms: C_8  and  C_9 
REMARK    5  A    between atoms: C_9  and  N_10 
REMARK    6  A    between atoms: C_20  and  C_21 
REMARK       I    between atoms: C_21  and  N_22 
REMARK    7  A    between atoms: N_22  and  C_23 
REMARK    8  A    between atoms: C_26  and  O_27 
ROOT
HETATM    1  N   UNL     1     -42.204  56.077 -53.484  1.00  0.00    -0.338 N 
HETATM    2  C   UNL     1     -42.071  57.295 -54.161  1.00  0.00     0.239 C 
HETATM    3  O   UNL     1     -41.043  57.975 -54.050  1.00  0.00    -0.271 OA
ENDROOT
BRANCH   1   4
HETATM    4  C   UNL     1     -40.989  55.597 -52.817  1.00  0.00     0.165 C 
BRANCH   4   5
HETATM    5  C   UNL     1     -40.665  54.148 -53.109  1.00  0.00    -0.040 A 
HETATM    6  C   UNL     1     -40.730  53.658 -54.420  1.00  0.00     0.009 A 
HETATM    7  C   UNL     1     -40.387  52.333 -54.700  1.00  0.00     0.007 A 
HETATM    8  C   UNL     1     -39.981  51.472 -53.674  1.00  0.00    -0.062 A 
HETATM    9  C   UNL     1     -39.599  50.057 -53.991  1.00  0.00     0.048 C 
HETATM   10  C   UNL     1     -39.945  51.950 -52.360  1.00  0.00     0.007 A 
HETATM   11  C   UNL     1     -40.291  53.274 -52.079  1.00  0.00     0.009 A 
ENDBRANCH   4   5
ENDBRANCH   1   4
BRANCH   1  12
HETATM   12  C   UNL     1     -43.484  55.704 -52.848  1.00  0.00     0.229 C 
BRANCH  12  13
HETATM   13  C   UNL     1     -43.549  55.891 -51.335  1.00  0.00     0.240 C 
HETATM   14  N   UNL     1     -43.680  57.136 -50.785  1.00  0.00    -0.326 N 
HETATM   15  H   UNL     1     -43.873  57.067 -49.791  1.00  0.00     0.169 HD
HETATM   16  O   UNL     1     -43.546  54.922 -50.565  1.00  0.00    -0.271 OA
BRANCH  14  17
HETATM   17  C   UNL     1     -43.661  58.440 -51.315  1.00  0.00     0.034 A 
HETATM   18  C   UNL     1     -42.492  59.182 -51.095  1.00  0.00     0.032 A 
HETATM   19  C   UNL     1     -42.369  60.492 -51.573  1.00  0.00     0.039 A 
HETATM   20  C   UNL     1     -43.407  61.086 -52.287  1.00  0.00     0.068 A 
HETATM   21  C   UNL     1     -44.554  60.344 -52.546  1.00  0.00     0.039 A 
HETATM   22  C   UNL     1     -44.677  59.031 -52.064  1.00  0.00     0.032 A 
BRANCH  20  23
HETATM   23  O   UNL     1     -43.178  62.372 -52.691  1.00  0.00    -0.356 OA
HETATM   24  C   UNL     1     -43.358  62.640 -54.077  1.00  0.00     0.210 C 
ENDBRANCH  20  23
ENDBRANCH  14  17
ENDBRANCH  12  13
ENDBRANCH   1  12
BRANCH   2  25
HETATM   25  C   UNL     1     -43.089  57.673 -55.215  1.00  0.00     0.250 C 
BRANCH  25  26
HETATM   26  N   UNL     1     -42.932  57.079 -56.523  1.00  0.00    -0.263 N 
HETATM   27  N   UNL     1     -43.183  55.775 -56.746  1.00  0.00     0.006 NA
HETATM   28  N   UNL     1     -42.958  55.539 -58.033  1.00  0.00    -0.158 NA
HETATM   29  C   UNL     1     -42.622  56.723 -58.634  1.00  0.00     0.102 A 
HETATM   30  C   UNL     1     -42.608  57.737 -57.685  1.00  0.00     0.079 A 
HETATM   31  C   UNL     1     -42.326  57.024 -59.971  1.00  0.00     0.035 A 
HETATM   32  C   UNL     1     -42.317  59.070 -57.996  1.00  0.00     0.033 A 
HETATM   33  C   UNL     1     -42.036  59.357 -59.336  1.00  0.00     0.002 A 
HETATM   34  C   UNL     1     -42.037  58.354 -60.308  1.00  0.00     0.002 A 
ENDBRANCH  25  26
ENDBRANCH   2  25
TORSDOF 8
ENDMDL
MODEL 10
REMARK VINA RESULT:      -8.2      2.856      7.389
REMARK  8 active torsions:
REMARK  status: ('A' for Active; 'I' for Inactive)
REMARK    1  A    between atoms: C_5  and  C_6 
REMARK    2  A    between atoms: C_6  and  N_7 
REMARK       I    between atoms: N_7  and  C_8 
REMARK    3  A    between atoms: N_7  and  C_20 
REMARK    4  A    between atoms: C_8  and  C_9 
REMARK    5  A    between atoms: C_9  and  N_10 
REMARK    6  A    between atoms: C_20  and  C_21 
REMARK       I    between atoms: C_21  and  N_22 
REMARK    7  A    between atoms: N_22  and  C_23 
REMARK    8  A    between atoms: C_26  and  O_27 
ROOT
HETATM    1  N   UNL     1     -42.334  57.522 -53.322  1.00  0.00    -0.338 N 
HETATM    2  C   UNL     1     -43.399  57.317 -52.438  1.00  0.00     0.239 C 
HETATM    3  O   UNL     1     -43.270  56.585 -51.448  1.00  0.00    -0.271 OA
ENDROOT
BRANCH   1   4
HETATM    4  C   UNL     1     -41.044  56.978 -52.885  1.00  0.00     0.165 C 
BRANCH   4   5
HETATM    5  C   UNL     1     -40.824  55.535 -53.282  1.00  0.00    -0.040 A 
HETATM    6  C   UNL     1     -41.006  54.508 -52.348  1.00  0.00     0.009 A 
HETATM    7  C   UNL     1     -40.849  53.171 -52.722  1.00  0.00     0.007 A 
HETATM    8  C   UNL     1     -40.500  52.839 -54.037  1.00  0.00    -0.062 A 
HETATM    9  C   UNL     1     -40.352  51.399 -54.430  1.00  0.00     0.048 C 
HETATM   10  C   UNL     1     -40.287  53.863 -54.964  1.00  0.00     0.007 A 
HETATM   11  C   UNL     1     -40.441  55.200 -54.588  1.00  0.00     0.009 A 
ENDBRANCH   4   5
ENDBRANCH   1   4
BRANCH   1  12
HETATM   12  C   UNL     1     -42.563  57.557 -54.782  1.00  0.00     0.229 C 
BRANCH  12  13
HETATM   13  C   UNL     1     -42.119  58.834 -55.490  1.00  0.00     0.240 C 
HETATM   14  N   UNL     1     -42.356  59.016 -56.824  1.00  0.00    -0.326 N 
HETATM   15  H   UNL     1     -42.150  59.973 -57.093  1.00  0.00     0.169 HD
HETATM   16  O   UNL     1     -41.588  59.764 -54.870  1.00  0.00    -0.271 OA
BRANCH  14  17
HETATM   17  C   UNL     1     -42.865  58.189 -57.843  1.00  0.00     0.034 A 
HETATM   18  C   UNL     1     -41.971  57.841 -58.864  1.00  0.00     0.032 A 
HETATM   19  C   UNL     1     -42.375  57.029 -59.931  1.00  0.00     0.039 A 
HETATM   20  C   UNL     1     -43.678  56.541 -59.996  1.00  0.00     0.068 A 
HETATM   21  C   UNL     1     -44.561  56.847 -58.965  1.00  0.00     0.039 A 
HETATM   22  C   UNL     1     -44.155  57.664 -57.898  1.00  0.00     0.032 A 
BRANCH  20  23
HETATM   23  O   UNL     1     -43.961  55.771 -61.089  1.00  0.00    -0.356 OA
HETATM   24  C   UNL     1     -45.260  55.192 -61.135  1.00  0.00     0.210 C 
ENDBRANCH  20  23
ENDBRANCH  14  17
ENDBRANCH  12  13
ENDBRANCH   1  12
BRANCH   2  25
HETATM   25  C   UNL     1     -44.641  58.173 -52.559  1.00  0.00     0.250 C 
BRANCH  25  26
HETATM   26  N   UNL     1     -45.013  58.959 -51.406  1.00  0.00    -0.263 N 
HETATM   27  N   UNL     1     -45.946  58.539 -50.531  1.00  0.00     0.006 NA
HETATM   28  N   UNL     1     -46.057  59.466 -49.587  1.00  0.00    -0.158 NA
HETATM   29  C   UNL     1     -45.138  60.449 -49.843  1.00  0.00     0.102 A 
HETATM   30  C   UNL     1     -44.442  60.143 -51.006  1.00  0.00     0.079 A 
HETATM   31  C   UNL     1     -44.825  61.621 -49.139  1.00  0.00     0.035 A 
HETATM   32  C   UNL     1     -43.421  60.950 -51.519  1.00  0.00     0.033 A 
HETATM   33  C   UNL     1     -43.112  62.110 -50.799  1.00  0.00     0.002 A 
HETATM   34  C   UNL     1     -43.801  62.443 -49.631  1.00  0.00     0.002 A 
ENDBRANCH  25  26
ENDBRANCH   2  25
TORSDOF 8
ENDMDL
