MODEL 1
REMARK VINA RESULT:      -8.4      0.000      0.000
REMARK  6 active torsions:
REMARK  status: ('A' for Active; 'I' for Inactive)
REMARK    1  A    between atoms: C_2  and  C_3 
REMARK    2  A    between atoms: C_3  and  C_4 
REMARK       I    between atoms: C_4  and  N_5 
REMARK    3  A    between atoms: N_5  and  C_6 
REMARK    4  A    between atoms: C_8  and  C_9 
REMARK    5  A    between atoms: C_9  and  N_10 
REMARK       I    between atoms: N_10  and  C_11 
REMARK    6  A    between atoms: C_11  and  C_12 
ROOT
HETATM    1  C   UNL     1     -42.111  58.244 -52.675  1.00  0.00     0.161 C 
ENDROOT
BRANCH   1   2
HETATM    2  C   UNL     1     -42.411  56.845 -52.211  1.00  0.00    -0.038 A 
HETATM    3  C   UNL     1     -41.622  55.770 -52.662  1.00  0.00     0.038 A 
HETATM    4  C   UNL     1     -41.868  54.467 -52.226  1.00  0.00     0.035 A 
HETATM    5  C   UNL     1     -42.922  54.240 -51.332  1.00  0.00     0.029 A 
HETATM    6  C   UNL     1     -43.728  55.296 -50.898  1.00  0.00     0.003 A 
HETATM    7  C   UNL     1     -43.476  56.593 -51.340  1.00  0.00     0.009 A 
BRANCH   4   8
HETATM    8  N   UNL     1     -41.104  53.347 -52.617  1.00  0.00    -0.327 N 
HETATM    9  C   UNL     1     -40.048  52.769 -51.937  1.00  0.00     0.226 C 
HETATM   10  O   UNL     1     -39.573  53.159 -50.874  1.00  0.00    -0.273 OA
HETATM   11  H   UNL     1     -41.337  52.958 -53.521  1.00  0.00     0.169 HD
BRANCH   9  12
HETATM   12  C   UNL     1     -39.473  51.521 -52.613  1.00  0.00     0.074 C 
HETATM   13  C   UNL     1     -39.545  50.334 -51.653  1.00  0.00     0.020 C 
BRANCH  12  14
HETATM   14  C   UNL     1     -40.136  51.180 -53.956  1.00  0.00     0.009 C 
HETATM   15  C   UNL     1     -39.654  49.856 -54.536  1.00  0.00     0.006 C 
ENDBRANCH  12  14
ENDBRANCH   9  12
ENDBRANCH   4   8
ENDBRANCH   1   2
BRANCH   1  16
HETATM   16  N   UNL     1     -41.860  58.295 -54.088  1.00  0.00    -0.351 N 
HETATM   17  C   UNL     1     -42.880  58.516 -54.986  1.00  0.00     0.273 C 
HETATM   18  O   UNL     1     -44.063  58.541 -54.660  1.00  0.00    -0.266 OA
HETATM   19  H   UNL     1     -40.917  58.410 -54.450  1.00  0.00     0.163 HD
BRANCH  17  20
HETATM   20  C   UNL     1     -42.412  58.743 -56.363  1.00  0.00     0.157 A 
HETATM   21  N   UNL     1     -41.705  59.845 -56.696  1.00  0.00    -0.168 NA
HETATM   22  N   UNL     1     -41.479  59.695 -58.013  1.00  0.00    -0.277 N 
HETATM   23  H   UNL     1     -40.954  60.415 -58.494  1.00  0.00     0.189 HD
HETATM   24  C   UNL     1     -42.008  58.557 -58.553  1.00  0.00     0.063 A 
HETATM   25  C   UNL     1     -42.630  57.906 -57.496  1.00  0.00     0.029 A 
HETATM   26  C   UNL     1     -41.998  58.058 -59.858  1.00  0.00     0.032 A 
HETATM   27  C   UNL     1     -43.287  56.683 -57.745  1.00  0.00     0.023 A 
HETATM   28  C   UNL     1     -43.299  56.155 -59.048  1.00  0.00    -0.061 A 
HETATM   29  C   UNL     1     -42.658  56.843 -60.084  1.00  0.00     0.009 A 
HETATM   30  C   UNL     1     -44.012  54.859 -59.308  1.00  0.00     0.048 C 
ENDBRANCH  17  20
ENDBRANCH   1  16
TORSDOF 6
ENDMDL
MODEL 2
REMARK VINA RESULT:      -8.1      1.967      7.319
REMARK  6 active torsions:
REMARK  status: ('A' for Active; 'I' for Inactive)
REMARK    1  A    between atoms: C_2  and  C_3 
REMARK    2  A    between atoms: C_3  and  C_4 
REMARK       I    between atoms: C_4  and  N_5 
REMARK    3  A    between atoms: N_5  and  C_6 
REMARK    4  A    between atoms: C_8  and  C_9 
REMARK    5  A    between atoms: C_9  and  N_10 
REMARK       I    between atoms: N_10  and  C_11 
REMARK    6  A    between atoms: C_11  and  C_12 
ROOT
HETATM    1  C   UNL     1     -41.258  56.090 -49.687  1.00  0.00     0.161 C 
ENDROOT
BRANCH   1   2
HETATM    2  C   UNL     1     -41.252  57.199 -50.704  1.00  0.00    -0.038 A 
HETATM    3  C   UNL     1     -41.599  56.930 -52.040  1.00  0.00     0.038 A 
HETATM    4  C   UNL     1     -41.622  57.949 -52.995  1.00  0.00     0.035 A 
HETATM    5  C   UNL     1     -41.288  59.251 -52.603  1.00  0.00     0.029 A 
HETATM    6  C   UNL     1     -40.916  59.525 -51.285  1.00  0.00     0.003 A 
HETATM    7  C   UNL     1     -40.893  58.501 -50.339  1.00  0.00     0.009 A 
BRANCH   4   8
HETATM    8  N   UNL     1     -41.984  57.756 -54.345  1.00  0.00    -0.327 N 
HETATM    9  C   UNL     1     -43.198  57.315 -54.837  1.00  0.00     0.226 C 
HETATM   10  O   UNL     1     -44.173  56.984 -54.167  1.00  0.00    -0.273 OA
HETATM   11  H   UNL     1     -41.248  57.921 -55.019  1.00  0.00     0.169 HD
BRANCH   9  12
HETATM   12  C   UNL     1     -43.280  57.274 -56.366  1.00  0.00     0.074 C 
HETATM   13  C   UNL     1     -42.326  58.309 -56.962  1.00  0.00     0.020 C 
BRANCH  12  14
HETATM   14  C   UNL     1     -43.023  55.883 -56.966  1.00  0.00     0.009 C 
HETATM   15  C   UNL     1     -43.043  55.881 -58.489  1.00  0.00     0.006 C 
ENDBRANCH  12  14
ENDBRANCH   9  12
ENDBRANCH   4   8
ENDBRANCH   1   2
BRANCH   1  16
HETATM   16  N   UNL     1     -40.764  54.860 -50.238  1.00  0.00    -0.351 N 
HETATM   17  C   UNL     1     -40.750  53.701 -49.494  1.00  0.00     0.273 C 
HETATM   18  O   UNL     1     -41.019  53.672 -48.297  1.00  0.00    -0.266 OA
HETATM   19  H   UNL     1     -40.637  54.747 -51.240  1.00  0.00     0.163 HD
BRANCH  17  20
HETATM   20  C   UNL     1     -40.409  52.504 -50.279  1.00  0.00     0.157 A 
HETATM   21  N   UNL     1     -40.166  51.314 -49.686  1.00  0.00    -0.168 NA
HETATM   22  N   UNL     1     -39.886  50.494 -50.713  1.00  0.00    -0.277 N 
HETATM   23  H   UNL     1     -39.667  49.527 -50.508  1.00  0.00     0.189 HD
HETATM   24  C   UNL     1     -39.928  51.090 -51.943  1.00  0.00     0.063 A 
HETATM   25  C   UNL     1     -40.269  52.413 -51.695  1.00  0.00     0.029 A 
HETATM   26  C   UNL     1     -39.694  50.588 -53.225  1.00  0.00     0.032 A 
HETATM   27  C   UNL     1     -40.384  53.299 -52.786  1.00  0.00     0.023 A 
HETATM   28  C   UNL     1     -40.150  52.828 -54.090  1.00  0.00    -0.061 A 
HETATM   29  C   UNL     1     -39.810  51.485 -54.295  1.00  0.00     0.009 A 
HETATM   30  C   UNL     1     -40.260  53.780 -55.246  1.00  0.00     0.048 C 
ENDBRANCH  17  20
ENDBRANCH   1  16
TORSDOF 6
ENDMDL
MODEL 3
REMARK VINA RESULT:      -7.9      2.054      7.733
REMARK  6 active torsions:
REMARK  status: ('A' for Active; 'I' for Inactive)
REMARK    1  A    between atoms: C_2  and  C_3 
REMARK    2  A    between atoms: C_3  and  C_4 
REMARK       I    between atoms: C_4  and  N_5 
REMARK    3  A    between atoms: N_5  and  C_6 
REMARK    4  A    between atoms: C_8  and  C_9 
REMARK    5  A    between atoms: C_9  and  N_10 
REMARK       I    between atoms: N_10  and  C_11 
REMARK    6  A    between atoms: C_11  and  C_12 
ROOT
HETATM    1  C   UNL     1     -41.386  57.463 -52.831  1.00  0.00     0.161 C 
ENDROOT
BRANCH   1   2
HETATM    2  C   UNL     1     -42.587  57.522 -53.734  1.00  0.00    -0.038 A 
HETATM    3  C   UNL     1     -42.420  57.476 -55.130  1.00  0.00     0.038 A 
HETATM    4  C   UNL     1     -43.523  57.506 -55.986  1.00  0.00     0.035 A 
HETATM    5  C   UNL     1     -44.807  57.589 -55.433  1.00  0.00     0.029 A 
HETATM    6  C   UNL     1     -44.983  57.662 -54.049  1.00  0.00     0.003 A 
HETATM    7  C   UNL     1     -43.876  57.634 -53.202  1.00  0.00     0.009 A 
BRANCH   4   8
HETATM    8  N   UNL     1     -43.431  57.440 -57.393  1.00  0.00    -0.327 N 
HETATM    9  C   UNL     1     -43.279  56.309 -58.174  1.00  0.00     0.226 C 
HETATM   10  O   UNL     1     -43.169  55.157 -57.764  1.00  0.00    -0.273 OA
HETATM   11  H   UNL     1     -43.435  58.331 -57.870  1.00  0.00     0.169 HD
BRANCH   9  12
HETATM   12  C   UNL     1     -43.276  56.582 -59.680  1.00  0.00     0.074 C 
HETATM   13  C   UNL     1     -44.432  55.835 -60.345  1.00  0.00     0.020 C 
BRANCH  12  14
HETATM   14  C   UNL     1     -43.308  58.075 -60.042  1.00  0.00     0.009 C 
HETATM   15  C   UNL     1     -41.972  58.589 -60.560  1.00  0.00     0.006 C 
ENDBRANCH  12  14
ENDBRANCH   9  12
ENDBRANCH   4   8
ENDBRANCH   1   2
BRANCH   1  16
HETATM   16  N   UNL     1     -41.301  56.209 -52.137  1.00  0.00    -0.351 N 
HETATM   17  C   UNL     1     -40.744  55.099 -52.734  1.00  0.00     0.273 C 
HETATM   18  O   UNL     1     -40.422  55.070 -53.918  1.00  0.00    -0.266 OA
HETATM   19  H   UNL     1     -41.421  56.157 -51.129  1.00  0.00     0.163 HD
BRANCH  17  20
HETATM   20  C   UNL     1     -40.553  53.970 -51.811  1.00  0.00     0.157 A 
HETATM   21  N   UNL     1     -40.644  54.127 -50.472  1.00  0.00    -0.168 NA
HETATM   22  N   UNL     1     -40.401  52.897 -49.987  1.00  0.00    -0.277 N 
HETATM   23  H   UNL     1     -40.416  52.766 -48.983  1.00  0.00     0.189 HD
HETATM   24  C   UNL     1     -40.149  51.950 -50.941  1.00  0.00     0.063 A 
HETATM   25  C   UNL     1     -40.241  52.621 -52.154  1.00  0.00     0.029 A 
HETATM   26  C   UNL     1     -39.849  50.590 -50.841  1.00  0.00     0.032 A 
HETATM   27  C   UNL     1     -40.019  51.901 -53.345  1.00  0.00     0.023 A 
HETATM   28  C   UNL     1     -39.710  50.530 -53.280  1.00  0.00    -0.061 A 
HETATM   29  C   UNL     1     -39.630  49.893 -52.036  1.00  0.00     0.009 A 
HETATM   30  C   UNL     1     -39.461  49.772 -54.552  1.00  0.00     0.048 C 
ENDBRANCH  17  20
ENDBRANCH   1  16
TORSDOF 6
ENDMDL
MODEL 4
REMARK VINA RESULT:      -7.8      2.068      7.506
REMARK  6 active torsions:
REMARK  status: ('A' for Active; 'I' for Inactive)
REMARK    1  A    between atoms: C_2  and  C_3 
REMARK    2  A    between atoms: C_3  and  C_4 
REMARK       I    between atoms: C_4  and  N_5 
REMARK    3  A    between atoms: N_5  and  C_6 
REMARK    4  A    between atoms: C_8  and  C_9 
REMARK    5  A    between atoms: C_9  and  N_10 
REMARK       I    between atoms: N_10  and  C_11 
REMARK    6  A    between atoms: C_11  and  C_12 
ROOT
HETATM    1  C   UNL     1     -43.482  57.718 -52.036  1.00  0.00     0.161 C 
ENDROOT
BRANCH   1   2
HETATM    2  C   UNL     1     -42.980  58.258 -53.348  1.00  0.00    -0.038 A 
HETATM    3  C   UNL     1     -42.872  57.407 -54.463  1.00  0.00     0.038 A 
HETATM    4  C   UNL     1     -42.431  57.892 -55.696  1.00  0.00     0.035 A 
HETATM    5  C   UNL     1     -42.089  59.246 -55.807  1.00  0.00     0.029 A 
HETATM    6  C   UNL     1     -42.167  60.094 -54.699  1.00  0.00     0.003 A 
HETATM    7  C   UNL     1     -42.607  59.600 -53.473  1.00  0.00     0.009 A 
BRANCH   4   8
HETATM    8  N   UNL     1     -42.321  57.103 -56.861  1.00  0.00    -0.327 N 
HETATM    9  C   UNL     1     -43.300  56.856 -57.805  1.00  0.00     0.226 C 
HETATM   10  O   UNL     1     -44.456  57.267 -57.772  1.00  0.00    -0.273 OA
HETATM   11  H   UNL     1     -41.434  56.635 -56.985  1.00  0.00     0.169 HD
BRANCH   9  12
HETATM   12  C   UNL     1     -42.831  56.002 -58.986  1.00  0.00     0.074 C 
HETATM   13  C   UNL     1     -44.037  55.357 -59.669  1.00  0.00     0.020 C 
BRANCH  12  14
HETATM   14  C   UNL     1     -41.969  56.765 -60.003  1.00  0.00     0.009 C 
HETATM   15  C   UNL     1     -42.514  58.151 -60.321  1.00  0.00     0.006 C 
ENDBRANCH  12  14
ENDBRANCH   9  12
ENDBRANCH   4   8
ENDBRANCH   1   2
BRANCH   1  16
HETATM   16  N   UNL     1     -42.777  56.530 -51.644  1.00  0.00    -0.351 N 
HETATM   17  C   UNL     1     -41.698  56.590 -50.791  1.00  0.00     0.273 C 
HETATM   18  O   UNL     1     -41.189  57.648 -50.430  1.00  0.00    -0.266 OA
HETATM   19  H   UNL     1     -43.184  55.609 -51.782  1.00  0.00     0.163 HD
BRANCH  17  20
HETATM   20  C   UNL     1     -41.234  55.269 -50.336  1.00  0.00     0.157 A 
HETATM   21  N   UNL     1     -41.121  54.973 -49.023  1.00  0.00    -0.168 NA
HETATM   22  N   UNL     1     -40.668  53.707 -49.018  1.00  0.00    -0.277 N 
HETATM   23  H   UNL     1     -40.504  53.261 -48.123  1.00  0.00     0.189 HD
HETATM   24  C   UNL     1     -40.474  53.168 -50.259  1.00  0.00     0.063 A 
HETATM   25  C   UNL     1     -40.837  54.169 -51.151  1.00  0.00     0.029 A 
HETATM   26  C   UNL     1     -40.015  51.913 -50.664  1.00  0.00     0.032 A 
HETATM   27  C   UNL     1     -40.737  53.913 -52.534  1.00  0.00     0.023 A 
HETATM   28  C   UNL     1     -40.273  52.661 -52.976  1.00  0.00    -0.061 A 
HETATM   29  C   UNL     1     -39.920  51.679 -52.042  1.00  0.00     0.009 A 
HETATM   30  C   UNL     1     -40.155  52.399 -54.450  1.00  0.00     0.048 C 
ENDBRANCH  17  20
ENDBRANCH   1  16
TORSDOF 6
ENDMDL
MODEL 5
REMARK VINA RESULT:      -7.8      2.834      6.378
REMARK  6 active torsions:
REMARK  status: ('A' for Active; 'I' for Inactive)
REMARK    1  A    between atoms: C_2  and  C_3 
REMARK    2  A    between atoms: C_3  and  C_4 
REMARK       I    between atoms: C_4  and  N_5 
REMARK    3  A    between atoms: N_5  and  C_6 
REMARK    4  A    between atoms: C_8  and  C_9 
REMARK    5  A    between atoms: C_9  and  N_10 
REMARK       I    between atoms: N_10  and  C_11 
REMARK    6  A    between atoms: C_11  and  C_12 
ROOT
HETATM    1  C   UNL     1     -43.298  54.242 -51.488  1.00  0.00     0.161 C 
ENDROOT
BRANCH   1   2
HETATM    2  C   UNL     1     -42.561  54.134 -52.796  1.00  0.00    -0.038 A 
HETATM    3  C   UNL     1     -43.189  54.527 -53.992  1.00  0.00     0.038 A 
HETATM    4  C   UNL     1     -42.516  54.456 -55.213  1.00  0.00     0.035 A 
HETATM    5  C   UNL     1     -41.199  53.979 -55.232  1.00  0.00     0.029 A 
HETATM    6  C   UNL     1     -40.575  53.560 -54.055  1.00  0.00     0.003 A 
HETATM    7  C   UNL     1     -41.256  53.633 -52.841  1.00  0.00     0.009 A 
BRANCH   4   8
HETATM    8  N   UNL     1     -43.074  54.856 -56.445  1.00  0.00    -0.327 N 
HETATM    9  C   UNL     1     -42.918  56.072 -57.085  1.00  0.00     0.226 C 
HETATM   10  O   UNL     1     -42.278  57.033 -56.666  1.00  0.00    -0.273 OA
HETATM   11  H   UNL     1     -43.692  54.184 -56.879  1.00  0.00     0.169 HD
BRANCH   9  12
HETATM   12  C   UNL     1     -43.613  56.159 -58.447  1.00  0.00     0.074 C 
HETATM   13  C   UNL     1     -44.363  57.486 -58.561  1.00  0.00     0.020 C 
BRANCH  12  14
HETATM   14  C   UNL     1     -42.669  55.959 -59.642  1.00  0.00     0.009 C 
HETATM   15  C   UNL     1     -42.046  57.260 -60.130  1.00  0.00     0.006 C 
ENDBRANCH  12  14
ENDBRANCH   9  12
ENDBRANCH   4   8
ENDBRANCH   1   2
BRANCH   1  16
HETATM   16  N   UNL     1     -44.104  55.429 -51.428  1.00  0.00    -0.351 N 
HETATM   17  C   UNL     1     -43.550  56.653 -51.125  1.00  0.00     0.273 C 
HETATM   18  O   UNL     1     -42.388  56.786 -50.754  1.00  0.00    -0.266 OA
HETATM   19  H   UNL     1     -45.036  55.451 -51.833  1.00  0.00     0.163 HD
BRANCH  17  20
HETATM   20  C   UNL     1     -44.478  57.780 -51.312  1.00  0.00     0.157 A 
HETATM   21  N   UNL     1     -45.446  58.056 -50.411  1.00  0.00    -0.168 NA
HETATM   22  N   UNL     1     -46.074  59.124 -50.933  1.00  0.00    -0.277 N 
HETATM   23  H   UNL     1     -46.854  59.519 -50.421  1.00  0.00     0.189 HD
HETATM   24  C   UNL     1     -45.569  59.552 -52.129  1.00  0.00     0.063 A 
HETATM   25  C   UNL     1     -44.516  58.690 -52.409  1.00  0.00     0.029 A 
HETATM   26  C   UNL     1     -45.944  60.599 -52.974  1.00  0.00     0.032 A 
HETATM   27  C   UNL     1     -43.790  58.873 -53.604  1.00  0.00     0.023 A 
HETATM   28  C   UNL     1     -44.144  59.915 -54.479  1.00  0.00    -0.061 A 
HETATM   29  C   UNL     1     -45.211  60.763 -54.156  1.00  0.00     0.009 A 
HETATM   30  C   UNL     1     -43.375  60.096 -55.755  1.00  0.00     0.048 C 
ENDBRANCH  17  20
ENDBRANCH   1  16
TORSDOF 6
ENDMDL
MODEL 6
REMARK VINA RESULT:      -7.8      2.914      8.884
REMARK  6 active torsions:
REMARK  status: ('A' for Active; 'I' for Inactive)
REMARK    1  A    between atoms: C_2  and  C_3 
REMARK    2  A    between atoms: C_3  and  C_4 
REMARK       I    between atoms: C_4  and  N_5 
REMARK    3  A    between atoms: N_5  and  C_6 
REMARK    4  A    between atoms: C_8  and  C_9 
REMARK    5  A    between atoms: C_9  and  N_10 
REMARK       I    between atoms: N_10  and  C_11 
REMARK    6  A    between atoms: C_11  and  C_12 
ROOT
HETATM    1  C   UNL     1     -42.597  55.924 -57.411  1.00  0.00     0.161 C 
ENDROOT
BRANCH   1   2
HETATM    2  C   UNL     1     -43.110  57.327 -57.584  1.00  0.00    -0.038 A 
HETATM    3  C   UNL     1     -42.381  58.253 -58.354  1.00  0.00     0.038 A 
HETATM    4  C   UNL     1     -42.850  59.553 -58.546  1.00  0.00     0.035 A 
HETATM    5  C   UNL     1     -44.062  59.930 -57.953  1.00  0.00     0.029 A 
HETATM    6  C   UNL     1     -44.781  59.027 -57.164  1.00  0.00     0.003 A 
HETATM    7  C   UNL     1     -44.303  57.732 -56.977  1.00  0.00     0.009 A 
BRANCH   4   8
HETATM    8  N   UNL     1     -42.186  60.525 -59.324  1.00  0.00    -0.327 N 
HETATM    9  C   UNL     1     -41.123  61.324 -58.945  1.00  0.00     0.226 C 
HETATM   10  O   UNL     1     -40.589  61.341 -57.839  1.00  0.00    -0.273 OA
HETATM   11  H   UNL     1     -42.567  60.675 -60.248  1.00  0.00     0.169 HD
BRANCH   9  12
HETATM   12  C   UNL     1     -40.595  62.235 -60.056  1.00  0.00     0.074 C 
HETATM   13  C   UNL     1     -41.575  62.243 -61.229  1.00  0.00     0.020 C 
BRANCH  12  14
HETATM   14  C   UNL     1     -40.285  63.667 -59.592  1.00  0.00     0.009 C 
HETATM   15  C   UNL     1     -38.792  63.958 -59.524  1.00  0.00     0.006 C 
ENDBRANCH  12  14
ENDBRANCH   9  12
ENDBRANCH   4   8
ENDBRANCH   1   2
BRANCH   1  16
HETATM   16  N   UNL     1     -42.133  55.687 -56.074  1.00  0.00    -0.351 N 
HETATM   17  C   UNL     1     -42.589  54.614 -55.340  1.00  0.00     0.273 C 
HETATM   18  O   UNL     1     -43.507  53.890 -55.716  1.00  0.00    -0.266 OA
HETATM   19  H   UNL     1     -41.296  56.143 -55.720  1.00  0.00     0.163 HD
BRANCH  17  20
HETATM   20  C   UNL     1     -41.856  54.409 -54.080  1.00  0.00     0.157 A 
HETATM   21  N   UNL     1     -41.850  55.345 -53.105  1.00  0.00    -0.168 NA
HETATM   22  N   UNL     1     -41.079  54.803 -52.146  1.00  0.00    -0.277 N 
HETATM   23  H   UNL     1     -40.927  55.334 -51.297  1.00  0.00     0.189 HD
HETATM   24  C   UNL     1     -40.579  53.568 -52.450  1.00  0.00     0.063 A 
HETATM   25  C   UNL     1     -41.070  53.277 -53.716  1.00  0.00     0.029 A 
HETATM   26  C   UNL     1     -39.748  52.702 -51.735  1.00  0.00     0.032 A 
HETATM   27  C   UNL     1     -40.714  52.051 -54.316  1.00  0.00     0.023 A 
HETATM   28  C   UNL     1     -39.876  51.158 -53.625  1.00  0.00    -0.061 A 
HETATM   29  C   UNL     1     -39.405  51.491 -52.349  1.00  0.00     0.009 A 
HETATM   30  C   UNL     1     -39.490  49.861 -54.275  1.00  0.00     0.048 C 
ENDBRANCH  17  20
ENDBRANCH   1  16
TORSDOF 6
ENDMDL
MODEL 7
REMARK VINA RESULT:      -7.7      1.672      2.344
REMARK  6 active torsions:
REMARK  status: ('A' for Active; 'I' for Inactive)
REMARK    1  A    between atoms: C_2  and  C_3 
REMARK    2  A    between atoms: C_3  and  C_4 
REMARK       I    between atoms: C_4  and  N_5 
REMARK    3  A    between atoms: N_5  and  C_6 
REMARK    4  A    between atoms: C_8  and  C_9 
REMARK    5  A    between atoms: C_9  and  N_10 
REMARK       I    between atoms: N_10  and  C_11 
REMARK    6  A    between atoms: C_11  and  C_12 
ROOT
HETATM    1  C   UNL     1     -44.224  57.060 -53.313  1.00  0.00     0.161 C 
ENDROOT
BRANCH   1   2
HETATM    2  C   UNL     1     -43.067  56.576 -52.483  1.00  0.00    -0.038 A 
HETATM    3  C   UNL     1     -42.368  55.415 -52.859  1.00  0.00     0.038 A 
HETATM    4  C   UNL     1     -41.277  54.961 -52.116  1.00  0.00     0.035 A 
HETATM    5  C   UNL     1     -40.887  55.680 -50.979  1.00  0.00     0.029 A 
HETATM    6  C   UNL     1     -41.590  56.820 -50.581  1.00  0.00     0.003 A 
HETATM    7  C   UNL     1     -42.679  57.264 -51.327  1.00  0.00     0.009 A 
BRANCH   4   8
HETATM    8  N   UNL     1     -40.516  53.820 -52.449  1.00  0.00    -0.327 N 
HETATM    9  C   UNL     1     -40.278  52.709 -51.661  1.00  0.00     0.226 C 
HETATM   10  O   UNL     1     -40.672  52.540 -50.510  1.00  0.00    -0.273 OA
HETATM   11  H   UNL     1     -40.063  53.849 -53.352  1.00  0.00     0.169 HD
BRANCH   9  12
HETATM   12  C   UNL     1     -39.457  51.615 -52.350  1.00  0.00     0.074 C 
HETATM   13  C   UNL     1     -39.580  50.306 -51.570  1.00  0.00     0.020 C 
BRANCH  12  14
HETATM   14  C   UNL     1     -39.815  51.407 -53.829  1.00  0.00     0.009 C 
HETATM   15  C   UNL     1     -39.707  49.952 -54.267  1.00  0.00     0.006 C 
ENDBRANCH  12  14
ENDBRANCH   9  12
ENDBRANCH   4   8
ENDBRANCH   1   2
BRANCH   1  16
HETATM   16  N   UNL     1     -43.996  56.857 -54.715  1.00  0.00    -0.351 N 
HETATM   17  C   UNL     1     -43.253  57.751 -55.454  1.00  0.00     0.273 C 
HETATM   18  O   UNL     1     -42.866  58.827 -55.007  1.00  0.00    -0.266 OA
HETATM   19  H   UNL     1     -44.161  55.953 -55.149  1.00  0.00     0.163 HD
BRANCH  17  20
HETATM   20  C   UNL     1     -42.948  57.280 -56.814  1.00  0.00     0.157 A 
HETATM   21  N   UNL     1     -42.927  55.963 -57.118  1.00  0.00    -0.168 NA
HETATM   22  N   UNL     1     -42.607  55.940 -58.423  1.00  0.00    -0.277 N 
HETATM   23  H   UNL     1     -42.531  55.041 -58.882  1.00  0.00     0.189 HD
HETATM   24  C   UNL     1     -42.412  57.173 -58.982  1.00  0.00     0.063 A 
HETATM   25  C   UNL     1     -42.629  58.078 -57.951  1.00  0.00     0.029 A 
HETATM   26  C   UNL     1     -42.065  57.559 -60.279  1.00  0.00     0.032 A 
HETATM   27  C   UNL     1     -42.490  59.456 -58.219  1.00  0.00     0.023 A 
HETATM   28  C   UNL     1     -42.138  59.879 -59.513  1.00  0.00    -0.061 A 
HETATM   29  C   UNL     1     -41.931  58.932 -60.523  1.00  0.00     0.009 A 
HETATM   30  C   UNL     1     -41.979  61.346 -59.788  1.00  0.00     0.048 C 
ENDBRANCH  17  20
ENDBRANCH   1  16
TORSDOF 6
ENDMDL
MODEL 8
REMARK VINA RESULT:      -7.7      2.471      7.053
REMARK  6 active torsions:
REMARK  status: ('A' for Active; 'I' for Inactive)
REMARK    1  A    between atoms: C_2  and  C_3 
REMARK    2  A    between atoms: C_3  and  C_4 
REMARK       I    between atoms: C_4  and  N_5 
REMARK    3  A    between atoms: N_5  and  C_6 
REMARK    4  A    between atoms: C_8  and  C_9 
REMARK    5  A    between atoms: C_9  and  N_10 
REMARK       I    between atoms: N_10  and  C_11 
REMARK    6  A    between atoms: C_11  and  C_12 
ROOT
HETATM    1  C   UNL     1     -43.345  58.620 -51.155  1.00  0.00     0.161 C 
ENDROOT
BRANCH   1   2
HETATM    2  C   UNL     1     -43.977  58.738 -52.515  1.00  0.00    -0.038 A 
HETATM    3  C   UNL     1     -43.662  57.805 -53.520  1.00  0.00     0.038 A 
HETATM    4  C   UNL     1     -44.253  57.882 -54.782  1.00  0.00     0.035 A 
HETATM    5  C   UNL     1     -45.168  58.911 -55.039  1.00  0.00     0.029 A 
HETATM    6  C   UNL     1     -45.469  59.858 -54.057  1.00  0.00     0.003 A 
HETATM    7  C   UNL     1     -44.871  59.775 -52.801  1.00  0.00     0.009 A 
BRANCH   4   8
HETATM    8  N   UNL     1     -44.003  56.968 -55.828  1.00  0.00    -0.327 N 
HETATM    9  C   UNL     1     -43.049  57.069 -56.824  1.00  0.00     0.226 C 
HETATM   10  O   UNL     1     -42.265  58.001 -56.982  1.00  0.00    -0.273 OA
HETATM   11  H   UNL     1     -44.628  56.175 -55.869  1.00  0.00     0.169 HD
BRANCH   9  12
HETATM   12  C   UNL     1     -43.001  55.868 -57.772  1.00  0.00     0.074 C 
HETATM   13  C   UNL     1     -43.304  54.585 -56.998  1.00  0.00     0.020 C 
BRANCH  12  14
HETATM   14  C   UNL     1     -43.925  56.003 -58.993  1.00  0.00     0.009 C 
HETATM   15  C   UNL     1     -44.291  54.659 -59.611  1.00  0.00     0.006 C 
ENDBRANCH  12  14
ENDBRANCH   9  12
ENDBRANCH   4   8
ENDBRANCH   1   2
BRANCH   1  16
HETATM   16  N   UNL     1     -42.794  57.313 -50.935  1.00  0.00    -0.351 N 
HETATM   17  C   UNL     1     -41.488  57.149 -50.526  1.00  0.00     0.273 C 
HETATM   18  O   UNL     1     -40.687  58.077 -50.463  1.00  0.00    -0.266 OA
HETATM   19  H   UNL     1     -43.395  56.499 -50.838  1.00  0.00     0.163 HD
BRANCH  17  20
HETATM   20  C   UNL     1     -41.160  55.765 -50.151  1.00  0.00     0.157 A 
HETATM   21  N   UNL     1     -41.090  55.380 -48.857  1.00  0.00    -0.168 NA
HETATM   22  N   UNL     1     -40.762  54.079 -48.927  1.00  0.00    -0.277 N 
HETATM   23  H   UNL     1     -40.651  53.565 -48.061  1.00  0.00     0.189 HD
HETATM   24  C   UNL     1     -40.608  53.599 -50.198  1.00  0.00     0.063 A 
HETATM   25  C   UNL     1     -40.863  54.682 -51.029  1.00  0.00     0.029 A 
HETATM   26  C   UNL     1     -40.268  52.331 -50.676  1.00  0.00     0.032 A 
HETATM   27  C   UNL     1     -40.772  54.501 -52.425  1.00  0.00     0.023 A 
HETATM   28  C   UNL     1     -40.428  53.238 -52.940  1.00  0.00    -0.061 A 
HETATM   29  C   UNL     1     -40.181  52.173 -52.065  1.00  0.00     0.009 A 
HETATM   30  C   UNL     1     -40.320  53.056 -54.426  1.00  0.00     0.048 C 
ENDBRANCH  17  20
ENDBRANCH   1  16
TORSDOF 6
ENDMDL
MODEL 9
REMARK VINA RESULT:      -7.5      2.556      7.557
REMARK  6 active torsions:
REMARK  status: ('A' for Active; 'I' for Inactive)
REMARK    1  A    between atoms: C_2  and  C_3 
REMARK    2  A    between atoms: C_3  and  C_4 
REMARK       I    between atoms: C_4  and  N_5 
REMARK    3  A    between atoms: N_5  and  C_6 
REMARK    4  A    between atoms: C_8  and  C_9 
REMARK    5  A    between atoms: C_9  and  N_10 
REMARK       I    between atoms: N_10  and  C_11 
REMARK    6  A    between atoms: C_11  and  C_12 
ROOT
HETATM    1  C   UNL     1     -43.000  60.314 -55.015  1.00  0.00     0.161 C 
ENDROOT
BRANCH   1   2
HETATM    2  C   UNL     1     -42.783  59.995 -56.469  1.00  0.00    -0.038 A 
HETATM    3  C   UNL     1     -43.597  59.043 -57.110  1.00  0.00     0.038 A 
HETATM    4  C   UNL     1     -43.428  58.749 -58.464  1.00  0.00     0.035 A 
HETATM    5  C   UNL     1     -42.427  59.415 -59.181  1.00  0.00     0.029 A 
HETATM    6  C   UNL     1     -41.595  60.343 -58.549  1.00  0.00     0.003 A 
HETATM    7  C   UNL     1     -41.770  60.629 -57.197  1.00  0.00     0.009 A 
BRANCH   4   8
HETATM    8  N   UNL     1     -44.222  57.824 -59.175  1.00  0.00    -0.327 N 
HETATM    9  C   UNL     1     -43.930  56.501 -59.452  1.00  0.00     0.226 C 
HETATM   10  O   UNL     1     -42.900  55.908 -59.143  1.00  0.00    -0.273 OA
HETATM   11  H   UNL     1     -45.081  58.196 -59.558  1.00  0.00     0.169 HD
BRANCH   9  12
HETATM   12  C   UNL     1     -45.041  55.756 -60.197  1.00  0.00     0.074 C 
HETATM   13  C   UNL     1     -44.943  54.258 -59.909  1.00  0.00     0.020 C 
BRANCH  12  14
HETATM   14  C   UNL     1     -46.454  56.280 -59.895  1.00  0.00     0.009 C 
HETATM   15  C   UNL     1     -47.280  56.518 -61.152  1.00  0.00     0.006 C 
ENDBRANCH  12  14
ENDBRANCH   9  12
ENDBRANCH   4   8
ENDBRANCH   1   2
BRANCH   1  16
HETATM   16  N   UNL     1     -42.870  59.147 -54.189  1.00  0.00    -0.351 N 
HETATM   17  C   UNL     1     -41.713  58.896 -53.485  1.00  0.00     0.273 C 
HETATM   18  O   UNL     1     -40.690  59.559 -53.624  1.00  0.00    -0.266 OA
HETATM   19  H   UNL     1     -43.686  58.609 -53.909  1.00  0.00     0.163 HD
BRANCH  17  20
HETATM   20  C   UNL     1     -41.834  57.777 -52.536  1.00  0.00     0.157 A 
HETATM   21  N   UNL     1     -42.292  57.963 -51.279  1.00  0.00    -0.168 NA
HETATM   22  N   UNL     1     -42.244  56.734 -50.735  1.00  0.00    -0.277 N 
HETATM   23  H   UNL     1     -42.546  56.623 -49.775  1.00  0.00     0.189 HD
HETATM   24  C   UNL     1     -41.772  55.762 -51.572  1.00  0.00     0.063 A 
HETATM   25  C   UNL     1     -41.492  56.412 -52.766  1.00  0.00     0.029 A 
HETATM   26  C   UNL     1     -41.566  54.393 -51.381  1.00  0.00     0.032 A 
HETATM   27  C   UNL     1     -40.973  55.662 -53.841  1.00  0.00     0.023 A 
HETATM   28  C   UNL     1     -40.749  54.283 -53.681  1.00  0.00    -0.061 A 
HETATM   29  C   UNL     1     -41.047  53.667 -52.460  1.00  0.00     0.009 A 
HETATM   30  C   UNL     1     -40.183  53.493 -54.825  1.00  0.00     0.048 C 
ENDBRANCH  17  20
ENDBRANCH   1  16
TORSDOF 6
ENDMDL
MODEL 10
REMARK VINA RESULT:      -7.4      3.689      9.101
REMARK  6 active torsions:
REMARK  status: ('A' for Active; 'I' for Inactive)
REMARK    1  A    between atoms: C_2  and  C_3 
REMARK    2  A    between atoms: C_3  and  C_4 
REMARK       I    between atoms: C_4  and  N_5 
REMARK    3  A    between atoms: N_5  and  C_6 
REMARK    4  A    between atoms: C_8  and  C_9 
REMARK    5  A    between atoms: C_9  and  N_10 
REMARK       I    between atoms: N_10  and  C_11 
REMARK    6  A    between atoms: C_11  and  C_12 
ROOT
HETATM    1  C   UNL     1     -42.491  56.438 -57.344  1.00  0.00     0.161 C 
ENDROOT
BRANCH   1   2
HETATM    2  C   UNL     1     -43.830  57.123 -57.372  1.00  0.00    -0.038 A 
HETATM    3  C   UNL     1     -44.613  57.090 -58.540  1.00  0.00     0.038 A 
HETATM    4  C   UNL     1     -45.868  57.699 -58.581  1.00  0.00     0.035 A 
HETATM    5  C   UNL     1     -46.340  58.354 -57.436  1.00  0.00     0.029 A 
HETATM    6  C   UNL     1     -45.560  58.416 -56.278  1.00  0.00     0.003 A 
HETATM    7  C   UNL     1     -44.307  57.807 -56.248  1.00  0.00     0.009 A 
BRANCH   4   8
HETATM    8  N   UNL     1     -46.716  57.684 -59.709  1.00  0.00    -0.327 N 
HETATM    9  C   UNL     1     -46.892  58.688 -60.643  1.00  0.00     0.226 C 
HETATM   10  O   UNL     1     -46.350  59.790 -60.631  1.00  0.00    -0.273 OA
HETATM   11  H   UNL     1     -47.288  56.857 -59.810  1.00  0.00     0.169 HD
BRANCH   9  12
HETATM   12  C   UNL     1     -47.846  58.325 -61.784  1.00  0.00     0.074 C 
HETATM   13  C   UNL     1     -48.104  56.818 -61.783  1.00  0.00     0.020 C 
BRANCH  12  14
HETATM   14  C   UNL     1     -49.169  59.107 -61.761  1.00  0.00     0.009 C 
HETATM   15  C   UNL     1     -50.252  58.465 -62.618  1.00  0.00     0.006 C 
ENDBRANCH  12  14
ENDBRANCH   9  12
ENDBRANCH   4   8
ENDBRANCH   1   2
BRANCH   1  16
HETATM   16  N   UNL     1     -42.100  56.086 -56.008  1.00  0.00    -0.351 N 
HETATM   17  C   UNL     1     -42.446  54.870 -55.460  1.00  0.00     0.273 C 
HETATM   18  O   UNL     1     -43.213  54.085 -56.010  1.00  0.00    -0.266 OA
HETATM   19  H   UNL     1     -41.371  56.601 -55.521  1.00  0.00     0.163 HD
BRANCH  17  20
HETATM   20  C   UNL     1     -41.789  54.598 -54.172  1.00  0.00     0.157 A 
HETATM   21  N   UNL     1     -41.810  55.497 -53.163  1.00  0.00    -0.168 NA
HETATM   22  N   UNL     1     -41.109  54.898 -52.185  1.00  0.00    -0.277 N 
HETATM   23  H   UNL     1     -40.988  55.393 -51.310  1.00  0.00     0.189 HD
HETATM   24  C   UNL     1     -40.627  53.660 -52.509  1.00  0.00     0.063 A 
HETATM   25  C   UNL     1     -41.056  53.430 -53.809  1.00  0.00     0.029 A 
HETATM   26  C   UNL     1     -39.861  52.744 -51.783  1.00  0.00     0.032 A 
HETATM   27  C   UNL     1     -40.702  52.217 -54.435  1.00  0.00     0.023 A 
HETATM   28  C   UNL     1     -39.928  51.275 -53.735  1.00  0.00    -0.061 A 
HETATM   29  C   UNL     1     -39.519  51.547 -52.424  1.00  0.00     0.009 A 
HETATM   30  C   UNL     1     -39.543  49.992 -54.412  1.00  0.00     0.048 C 
ENDBRANCH  17  20
ENDBRANCH   1  16
TORSDOF 6
ENDMDL
