MODEL 1
REMARK VINA RESULT:      -8.7      0.000      0.000
REMARK  10 active torsions:
REMARK  status: ('A' for Active; 'I' for Inactive)
REMARK    1  A    between atoms: C_3  and  C_4 
REMARK    2  A    between atoms: C_8  and  N_9 
REMARK    3  A    between atoms: N_9  and  C_10 
REMARK    4  A    between atoms: C_10  and  N_11 
REMARK    5  A    between atoms: N_11  and  N_12 
REMARK       I    between atoms: N_12  and  C_13 
REMARK    6  A    between atoms: C_13  and  C_14 
REMARK    7  A    between atoms: C_14  and  C_15 
REMARK    8  A    between atoms: C_15  and  C_16 
REMARK    9  A    between atoms: C_18  and  O_19 
REMARK   10  A    between atoms: C_20  and  O_21 
ROOT
HETATM    1  N   UNL     1     -44.320  55.275 -54.652  1.00  0.00    -0.274 N 
HETATM    2  H   UNL     1     -45.108  54.647 -54.816  1.00  0.00     0.189 HD
ENDROOT
BRANCH   1   3
HETATM    3  C   UNL     1     -44.546  56.484 -54.051  1.00  0.00     0.191 C 
HETATM    4  S   UNL     1     -45.090  57.852 -54.856  1.00  0.00    -0.039 SA
BRANCH   3   5
HETATM    5  N   UNL     1     -44.282  56.587 -52.713  1.00  0.00    -0.331 N 
HETATM    6  H   UNL     1     -45.057  56.245 -52.144  1.00  0.00     0.168 HD
BRANCH   5   7
HETATM    7  C   UNL     1     -43.107  56.964 -52.018  1.00  0.00     0.049 A 
HETATM    8  C   UNL     1     -42.567  56.101 -51.043  1.00  0.00     0.074 A 
HETATM    9  C   UNL     1     -41.384  56.472 -50.369  1.00  0.00     0.018 A 
HETATM   10  C   UNL     1     -40.726  57.660 -50.673  1.00  0.00     0.001 A 
HETATM   11  C   UNL     1     -41.238  58.492 -51.659  1.00  0.00     0.002 A 
HETATM   12  C   UNL     1     -42.413  58.143 -52.331  1.00  0.00     0.030 A 
BRANCH   8  13
HETATM   13  C   UNL     1     -43.241  54.816 -50.632  1.00  0.00     0.419 C 
HETATM   14  F   UNL     1     -44.525  54.992 -50.210  1.00  0.00    -0.166 F 
HETATM   15  F   UNL     1     -43.304  53.914 -51.650  1.00  0.00    -0.166 F 
HETATM   16  F   UNL     1     -42.606  54.176 -49.607  1.00  0.00    -0.166 F 
ENDBRANCH   8  13
ENDBRANCH   5   7
ENDBRANCH   3   5
ENDBRANCH   1   3
BRANCH   1  17
HETATM   17  N   UNL     1     -43.078  54.634 -54.566  1.00  0.00    -0.268 N 
HETATM   18  C   UNL     1     -42.088  55.005 -55.452  1.00  0.00     0.236 C 
HETATM   19  O   UNL     1     -42.286  55.783 -56.383  1.00  0.00    -0.272 OA
HETATM   20  H   UNL     1     -42.925  54.014 -53.774  1.00  0.00     0.190 HD
BRANCH  18  21
HETATM   21  C   UNL     1     -40.744  54.389 -55.125  1.00  0.00     0.109 C 
BRANCH  21  22
HETATM   22  C   UNL     1     -40.608  54.095 -53.632  1.00  0.00     0.048 C 
BRANCH  22  23
HETATM   23  C   UNL     1     -40.268  52.670 -53.246  1.00  0.00    -0.055 A 
HETATM   24  C   UNL     1     -40.300  51.690 -54.258  1.00  0.00     0.046 A 
HETATM   25  C   UNL     1     -39.970  50.371 -53.965  1.00  0.00     0.099 A 
HETATM   26  C   UNL     1     -39.608  50.010 -52.672  1.00  0.00     0.098 A 
HETATM   27  C   UNL     1     -39.578  50.951 -51.658  1.00  0.00     0.040 A 
HETATM   28  C   UNL     1     -39.911  52.280 -51.943  1.00  0.00     0.010 A 
BRANCH  25  29
HETATM   29  O   UNL     1     -39.982  49.393 -54.920  1.00  0.00    -0.358 OA
HETATM   30  H   UNL     1     -40.093  49.821 -55.787  1.00  0.00     0.218 HD
ENDBRANCH  25  29
BRANCH  26  31
HETATM   31  O   UNL     1     -39.274  48.715 -52.393  1.00  0.00    -0.358 OA
HETATM   32  H   UNL     1     -38.302  48.731 -52.293  1.00  0.00     0.218 HD
ENDBRANCH  26  31
ENDBRANCH  22  23
ENDBRANCH  21  22
ENDBRANCH  18  21
ENDBRANCH   1  17
TORSDOF 10
ENDMDL
MODEL 2
REMARK VINA RESULT:      -8.2      1.757      2.330
REMARK  10 active torsions:
REMARK  status: ('A' for Active; 'I' for Inactive)
REMARK    1  A    between atoms: C_3  and  C_4 
REMARK    2  A    between atoms: C_8  and  N_9 
REMARK    3  A    between atoms: N_9  and  C_10 
REMARK    4  A    between atoms: C_10  and  N_11 
REMARK    5  A    between atoms: N_11  and  N_12 
REMARK       I    between atoms: N_12  and  C_13 
REMARK    6  A    between atoms: C_13  and  C_14 
REMARK    7  A    between atoms: C_14  and  C_15 
REMARK    8  A    between atoms: C_15  and  C_16 
REMARK    9  A    between atoms: C_18  and  O_19 
REMARK   10  A    between atoms: C_20  and  O_21 
ROOT
HETATM    1  N   UNL     1     -44.203  55.755 -54.296  1.00  0.00    -0.274 N 
HETATM    2  H   UNL     1     -45.000  55.161 -54.530  1.00  0.00     0.189 HD
ENDROOT
BRANCH   1   3
HETATM    3  C   UNL     1     -44.418  56.913 -53.598  1.00  0.00     0.191 C 
HETATM    4  S   UNL     1     -44.878  58.367 -54.296  1.00  0.00    -0.039 SA
BRANCH   3   5
HETATM    5  N   UNL     1     -44.215  56.884 -52.245  1.00  0.00    -0.331 N 
HETATM    6  H   UNL     1     -44.969  57.347 -51.736  1.00  0.00     0.168 HD
BRANCH   5   7
HETATM    7  C   UNL     1     -43.229  56.237 -51.462  1.00  0.00     0.049 A 
HETATM    8  C   UNL     1     -41.997  56.880 -51.222  1.00  0.00     0.074 A 
HETATM    9  C   UNL     1     -41.026  56.240 -50.423  1.00  0.00     0.018 A 
HETATM   10  C   UNL     1     -41.275  55.000 -49.844  1.00  0.00     0.001 A 
HETATM   11  C   UNL     1     -42.502  54.383 -50.050  1.00  0.00     0.002 A 
HETATM   12  C   UNL     1     -43.472  55.000 -50.845  1.00  0.00     0.030 A 
BRANCH   8  13
HETATM   13  C   UNL     1     -41.638  58.205 -51.845  1.00  0.00     0.419 C 
HETATM   14  F   UNL     1     -40.465  58.720 -51.379  1.00  0.00    -0.166 F 
HETATM   15  F   UNL     1     -41.499  58.124 -53.197  1.00  0.00    -0.166 F 
HETATM   16  F   UNL     1     -42.573  59.177 -51.625  1.00  0.00    -0.166 F 
ENDBRANCH   8  13
ENDBRANCH   5   7
ENDBRANCH   3   5
ENDBRANCH   1   3
BRANCH   1  17
HETATM   17  N   UNL     1     -42.976  55.084 -54.244  1.00  0.00    -0.268 N 
HETATM   18  C   UNL     1     -42.245  54.963 -55.407  1.00  0.00     0.236 C 
HETATM   19  O   UNL     1     -42.677  55.313 -56.503  1.00  0.00    -0.272 OA
HETATM   20  H   UNL     1     -42.624  54.826 -53.325  1.00  0.00     0.190 HD
BRANCH  18  21
HETATM   21  C   UNL     1     -40.859  54.401 -55.176  1.00  0.00     0.109 C 
BRANCH  21  22
HETATM   22  C   UNL     1     -40.600  54.135 -53.694  1.00  0.00     0.048 C 
BRANCH  22  23
HETATM   23  C   UNL     1     -40.258  52.710 -53.306  1.00  0.00    -0.055 A 
HETATM   24  C   UNL     1     -40.329  51.723 -54.308  1.00  0.00     0.046 A 
HETATM   25  C   UNL     1     -39.999  50.404 -54.014  1.00  0.00     0.099 A 
HETATM   26  C   UNL     1     -39.599  50.051 -52.730  1.00  0.00     0.098 A 
HETATM   27  C   UNL     1     -39.531  51.001 -51.726  1.00  0.00     0.040 A 
HETATM   28  C   UNL     1     -39.863  52.329 -52.012  1.00  0.00     0.010 A 
BRANCH  25  29
HETATM   29  O   UNL     1     -40.049  49.418 -54.960  1.00  0.00    -0.358 OA
HETATM   30  H   UNL     1     -40.870  48.913 -54.825  1.00  0.00     0.218 HD
ENDBRANCH  25  29
BRANCH  26  31
HETATM   31  O   UNL     1     -39.267  48.756 -52.451  1.00  0.00    -0.358 OA
HETATM   32  H   UNL     1     -38.615  48.518 -53.140  1.00  0.00     0.218 HD
ENDBRANCH  26  31
ENDBRANCH  22  23
ENDBRANCH  21  22
ENDBRANCH  18  21
ENDBRANCH   1  17
TORSDOF 10
ENDMDL
MODEL 3
REMARK VINA RESULT:      -7.8      4.661      6.354
REMARK  10 active torsions:
REMARK  status: ('A' for Active; 'I' for Inactive)
REMARK    1  A    between atoms: C_3  and  C_4 
REMARK    2  A    between atoms: C_8  and  N_9 
REMARK    3  A    between atoms: N_9  and  C_10 
REMARK    4  A    between atoms: C_10  and  N_11 
REMARK    5  A    between atoms: N_11  and  N_12 
REMARK       I    between atoms: N_12  and  C_13 
REMARK    6  A    between atoms: C_13  and  C_14 
REMARK    7  A    between atoms: C_14  and  C_15 
REMARK    8  A    between atoms: C_15  and  C_16 
REMARK    9  A    between atoms: C_18  and  O_19 
REMARK   10  A    between atoms: C_20  and  O_21 
ROOT
HETATM    1  N   UNL     1     -43.531  55.851 -57.004  1.00  0.00    -0.274 N 
HETATM    2  H   UNL     1     -44.292  55.274 -56.642  1.00  0.00     0.189 HD
ENDROOT
BRANCH   1   3
HETATM    3  C   UNL     1     -43.797  57.138 -57.387  1.00  0.00     0.191 C 
HETATM    4  S   UNL     1     -43.928  58.433 -56.329  1.00  0.00    -0.039 SA
BRANCH   3   5
HETATM    5  N   UNL     1     -43.996  57.374 -58.720  1.00  0.00    -0.331 N 
HETATM    6  H   UNL     1     -43.116  57.456 -59.229  1.00  0.00     0.168 HD
BRANCH   5   7
HETATM    7  C   UNL     1     -45.179  57.401 -59.498  1.00  0.00     0.049 A 
HETATM    8  C   UNL     1     -45.540  56.270 -60.258  1.00  0.00     0.074 A 
HETATM    9  C   UNL     1     -46.731  56.294 -61.014  1.00  0.00     0.018 A 
HETATM   10  C   UNL     1     -47.570  57.404 -60.997  1.00  0.00     0.001 A 
HETATM   11  C   UNL     1     -47.234  58.504 -60.219  1.00  0.00     0.002 A 
HETATM   12  C   UNL     1     -46.053  58.499 -59.471  1.00  0.00     0.030 A 
BRANCH   8  13
HETATM   13  C   UNL     1     -44.666  55.045 -60.357  1.00  0.00     0.419 C 
HETATM   14  F   UNL     1     -44.903  54.132 -59.373  1.00  0.00    -0.166 F 
HETATM   15  F   UNL     1     -44.835  54.379 -61.532  1.00  0.00    -0.166 F 
HETATM   16  F   UNL     1     -43.331  55.325 -60.278  1.00  0.00    -0.166 F 
ENDBRANCH   8  13
ENDBRANCH   5   7
ENDBRANCH   3   5
ENDBRANCH   1   3
BRANCH   1  17
HETATM   17  N   UNL     1     -42.256  55.461 -56.579  1.00  0.00    -0.268 N 
HETATM   18  C   UNL     1     -42.114  54.971 -55.297  1.00  0.00     0.236 C 
HETATM   19  O   UNL     1     -43.031  54.974 -54.479  1.00  0.00    -0.272 OA
HETATM   20  H   UNL     1     -41.517  55.440 -57.278  1.00  0.00     0.190 HD
BRANCH  18  21
HETATM   21  C   UNL     1     -40.737  54.400 -55.034  1.00  0.00     0.109 C 
BRANCH  21  22
HETATM   22  C   UNL     1     -40.535  54.075 -53.555  1.00  0.00     0.048 C 
BRANCH  22  23
HETATM   23  C   UNL     1     -40.211  52.635 -53.211  1.00  0.00    -0.055 A 
HETATM   24  C   UNL     1     -40.269  51.684 -54.248  1.00  0.00     0.046 A 
HETATM   25  C   UNL     1     -39.956  50.352 -53.994  1.00  0.00     0.099 A 
HETATM   26  C   UNL     1     -39.584  49.952 -52.716  1.00  0.00     0.098 A 
HETATM   27  C   UNL     1     -39.529  50.865 -51.678  1.00  0.00     0.040 A 
HETATM   28  C   UNL     1     -39.845  52.206 -51.923  1.00  0.00     0.010 A 
BRANCH  25  29
HETATM   29  O   UNL     1     -39.994  49.401 -54.974  1.00  0.00    -0.358 OA
HETATM   30  H   UNL     1     -39.092  49.294 -55.325  1.00  0.00     0.218 HD
ENDBRANCH  25  29
BRANCH  26  31
HETATM   31  O   UNL     1     -39.267  48.645 -52.475  1.00  0.00    -0.358 OA
HETATM   32  H   UNL     1     -39.547  48.174 -53.284  1.00  0.00     0.218 HD
ENDBRANCH  26  31
ENDBRANCH  22  23
ENDBRANCH  21  22
ENDBRANCH  18  21
ENDBRANCH   1  17
TORSDOF 10
ENDMDL
MODEL 4
REMARK VINA RESULT:      -7.8      2.268      3.962
REMARK  10 active torsions:
REMARK  status: ('A' for Active; 'I' for Inactive)
REMARK    1  A    between atoms: C_3  and  C_4 
REMARK    2  A    between atoms: C_8  and  N_9 
REMARK    3  A    between atoms: N_9  and  C_10 
REMARK    4  A    between atoms: C_10  and  N_11 
REMARK    5  A    between atoms: N_11  and  N_12 
REMARK       I    between atoms: N_12  and  C_13 
REMARK    6  A    between atoms: C_13  and  C_14 
REMARK    7  A    between atoms: C_14  and  C_15 
REMARK    8  A    between atoms: C_15  and  C_16 
REMARK    9  A    between atoms: C_18  and  O_19 
REMARK   10  A    between atoms: C_20  and  O_21 
ROOT
HETATM    1  N   UNL     1     -43.654  56.617 -50.695  1.00  0.00    -0.274 N 
HETATM    2  H   UNL     1     -43.593  57.078 -49.787  1.00  0.00     0.189 HD
ENDROOT
BRANCH   1   3
HETATM    3  C   UNL     1     -43.740  57.384 -51.826  1.00  0.00     0.191 C 
HETATM    4  S   UNL     1     -43.106  58.930 -51.971  1.00  0.00    -0.039 SA
BRANCH   3   5
HETATM    5  N   UNL     1     -44.414  56.862 -52.896  1.00  0.00    -0.331 N 
HETATM    6  H   UNL     1     -45.166  56.236 -52.606  1.00  0.00     0.168 HD
BRANCH   5   7
HETATM    7  C   UNL     1     -44.318  57.132 -54.283  1.00  0.00     0.049 A 
HETATM    8  C   UNL     1     -43.471  56.344 -55.089  1.00  0.00     0.074 A 
HETATM    9  C   UNL     1     -43.395  56.603 -56.474  1.00  0.00     0.018 A 
HETATM   10  C   UNL     1     -44.166  57.602 -57.061  1.00  0.00     0.001 A 
HETATM   11  C   UNL     1     -45.027  58.353 -56.274  1.00  0.00     0.002 A 
HETATM   12  C   UNL     1     -45.108  58.114 -54.899  1.00  0.00     0.030 A 
BRANCH   8  13
HETATM   13  C   UNL     1     -42.578  55.270 -54.521  1.00  0.00     0.419 C 
HETATM   14  F   UNL     1     -43.256  54.324 -53.811  1.00  0.00    -0.166 F 
HETATM   15  F   UNL     1     -41.899  54.593 -55.489  1.00  0.00    -0.166 F 
HETATM   16  F   UNL     1     -41.627  55.751 -53.668  1.00  0.00    -0.166 F 
ENDBRANCH   8  13
ENDBRANCH   5   7
ENDBRANCH   3   5
ENDBRANCH   1   3
BRANCH   1  17
HETATM   17  N   UNL     1     -43.120  55.324 -50.726  1.00  0.00    -0.268 N 
HETATM   18  C   UNL     1     -41.786  55.158 -50.417  1.00  0.00     0.236 C 
HETATM   19  O   UNL     1     -41.024  56.105 -50.235  1.00  0.00    -0.272 OA
HETATM   20  H   UNL     1     -43.772  54.552 -50.852  1.00  0.00     0.190 HD
BRANCH  18  21
HETATM   21  C   UNL     1     -41.387  53.704 -50.289  1.00  0.00     0.109 C 
BRANCH  21  22
HETATM   22  C   UNL     1     -40.032  53.432 -50.940  1.00  0.00     0.048 C 
BRANCH  22  23
HETATM   23  C   UNL     1     -40.001  52.391 -52.041  1.00  0.00    -0.055 A 
HETATM   24  C   UNL     1     -39.615  51.081 -51.695  1.00  0.00     0.046 A 
HETATM   25  C   UNL     1     -39.594  50.080 -52.661  1.00  0.00     0.099 A 
HETATM   26  C   UNL     1     -39.954  50.365 -53.974  1.00  0.00     0.098 A 
HETATM   27  C   UNL     1     -40.327  51.647 -54.341  1.00  0.00     0.040 A 
HETATM   28  C   UNL     1     -40.348  52.660 -53.376  1.00  0.00     0.010 A 
BRANCH  25  29
HETATM   29  O   UNL     1     -39.233  48.796 -52.365  1.00  0.00    -0.358 OA
HETATM   30  H   UNL     1     -39.924  48.202 -52.706  1.00  0.00     0.218 HD
ENDBRANCH  25  29
BRANCH  26  31
HETATM   31  O   UNL     1     -39.942  49.376 -54.915  1.00  0.00    -0.358 OA
HETATM   32  H   UNL     1     -40.882  49.264 -55.161  1.00  0.00     0.218 HD
ENDBRANCH  26  31
ENDBRANCH  22  23
ENDBRANCH  21  22
ENDBRANCH  18  21
ENDBRANCH   1  17
TORSDOF 10
ENDMDL
MODEL 5
REMARK VINA RESULT:      -7.6      2.941      4.421
REMARK  10 active torsions:
REMARK  status: ('A' for Active; 'I' for Inactive)
REMARK    1  A    between atoms: C_3  and  C_4 
REMARK    2  A    between atoms: C_8  and  N_9 
REMARK    3  A    between atoms: N_9  and  C_10 
REMARK    4  A    between atoms: C_10  and  N_11 
REMARK    5  A    between atoms: N_11  and  N_12 
REMARK       I    between atoms: N_12  and  C_13 
REMARK    6  A    between atoms: C_13  and  C_14 
REMARK    7  A    between atoms: C_14  and  C_15 
REMARK    8  A    between atoms: C_15  and  C_16 
REMARK    9  A    between atoms: C_18  and  O_19 
REMARK   10  A    between atoms: C_20  and  O_21 
ROOT
HETATM    1  N   UNL     1     -43.421  56.640 -50.587  1.00  0.00    -0.274 N 
HETATM    2  H   UNL     1     -43.252  57.160 -49.724  1.00  0.00     0.189 HD
ENDROOT
BRANCH   1   3
HETATM    3  C   UNL     1     -43.598  57.330 -51.756  1.00  0.00     0.191 C 
HETATM    4  S   UNL     1     -44.887  58.359 -52.060  1.00  0.00    -0.039 SA
BRANCH   3   5
HETATM    5  N   UNL     1     -42.675  57.143 -52.749  1.00  0.00    -0.331 N 
HETATM    6  H   UNL     1     -41.765  57.533 -52.502  1.00  0.00     0.168 HD
BRANCH   5   7
HETATM    7  C   UNL     1     -42.744  56.420 -53.964  1.00  0.00     0.049 A 
HETATM    8  C   UNL     1     -42.494  57.082 -55.183  1.00  0.00     0.074 A 
HETATM    9  C   UNL     1     -42.542  56.351 -56.390  1.00  0.00     0.018 A 
HETATM   10  C   UNL     1     -42.803  54.984 -56.393  1.00  0.00     0.001 A 
HETATM   11  C   UNL     1     -43.012  54.326 -55.189  1.00  0.00     0.002 A 
HETATM   12  C   UNL     1     -42.976  55.036 -53.985  1.00  0.00     0.030 A 
BRANCH   8  13
HETATM   13  C   UNL     1     -42.242  58.566 -55.266  1.00  0.00     0.419 C 
HETATM   14  F   UNL     1     -43.329  59.317 -54.931  1.00  0.00    -0.166 F 
HETATM   15  F   UNL     1     -41.241  58.970 -54.436  1.00  0.00    -0.166 F 
HETATM   16  F   UNL     1     -41.881  58.985 -56.514  1.00  0.00    -0.166 F 
ENDBRANCH   8  13
ENDBRANCH   5   7
ENDBRANCH   3   5
ENDBRANCH   1   3
BRANCH   1  17
HETATM   17  N   UNL     1     -42.934  55.328 -50.577  1.00  0.00    -0.268 N 
HETATM   18  C   UNL     1     -41.581  55.133 -50.392  1.00  0.00     0.236 C 
HETATM   19  O   UNL     1     -40.774  56.059 -50.355  1.00  0.00    -0.272 OA
HETATM   20  H   UNL     1     -43.619  54.575 -50.581  1.00  0.00     0.190 HD
BRANCH  18  21
HETATM   21  C   UNL     1     -41.217  53.676 -50.200  1.00  0.00     0.109 C 
BRANCH  21  22
HETATM   22  C   UNL     1     -39.875  53.340 -50.848  1.00  0.00     0.048 C 
BRANCH  22  23
HETATM   23  C   UNL     1     -39.899  52.336 -51.984  1.00  0.00    -0.055 A 
HETATM   24  C   UNL     1     -39.556  51.003 -51.688  1.00  0.00     0.046 A 
HETATM   25  C   UNL     1     -39.587  50.035 -52.687  1.00  0.00     0.099 A 
HETATM   26  C   UNL     1     -39.955  50.377 -53.983  1.00  0.00     0.098 A 
HETATM   27  C   UNL     1     -40.287  51.682 -54.301  1.00  0.00     0.040 A 
HETATM   28  C   UNL     1     -40.256  52.663 -53.304  1.00  0.00     0.010 A 
BRANCH  25  29
HETATM   29  O   UNL     1     -39.268  48.729 -52.439  1.00  0.00    -0.358 OA
HETATM   30  H   UNL     1     -39.435  48.219 -53.251  1.00  0.00     0.218 HD
ENDBRANCH  25  29
BRANCH  26  31
HETATM   31  O   UNL     1     -39.995  49.420 -54.956  1.00  0.00    -0.358 OA
HETATM   32  H   UNL     1     -40.417  48.652 -54.525  1.00  0.00     0.218 HD
ENDBRANCH  26  31
ENDBRANCH  22  23
ENDBRANCH  21  22
ENDBRANCH  18  21
ENDBRANCH   1  17
TORSDOF 10
ENDMDL
MODEL 6
REMARK VINA RESULT:      -7.5      3.721      6.760
REMARK  10 active torsions:
REMARK  status: ('A' for Active; 'I' for Inactive)
REMARK    1  A    between atoms: C_3  and  C_4 
REMARK    2  A    between atoms: C_8  and  N_9 
REMARK    3  A    between atoms: N_9  and  C_10 
REMARK    4  A    between atoms: C_10  and  N_11 
REMARK    5  A    between atoms: N_11  and  N_12 
REMARK       I    between atoms: N_12  and  C_13 
REMARK    6  A    between atoms: C_13  and  C_14 
REMARK    7  A    between atoms: C_14  and  C_15 
REMARK    8  A    between atoms: C_15  and  C_16 
REMARK    9  A    between atoms: C_18  and  O_19 
REMARK   10  A    between atoms: C_20  and  O_21 
ROOT
HETATM    1  N   UNL     1     -43.929  55.215 -53.852  1.00  0.00    -0.274 N 
HETATM    2  H   UNL     1     -44.509  54.375 -53.836  1.00  0.00     0.189 HD
ENDROOT
BRANCH   1   3
HETATM    3  C   UNL     1     -43.154  55.509 -52.762  1.00  0.00     0.191 C 
HETATM    4  S   UNL     1     -43.738  56.177 -51.338  1.00  0.00    -0.039 SA
BRANCH   3   5
HETATM    5  N   UNL     1     -41.811  55.266 -52.855  1.00  0.00    -0.331 N 
HETATM    6  H   UNL     1     -41.261  56.118 -52.745  1.00  0.00     0.168 HD
BRANCH   5   7
HETATM    7  C   UNL     1     -41.086  54.054 -52.957  1.00  0.00     0.049 A 
HETATM    8  C   UNL     1     -40.531  53.475 -51.797  1.00  0.00     0.074 A 
HETATM    9  C   UNL     1     -39.827  52.256 -51.901  1.00  0.00     0.018 A 
HETATM   10  C   UNL     1     -39.699  51.602 -53.123  1.00  0.00     0.001 A 
HETATM   11  C   UNL     1     -40.277  52.153 -54.258  1.00  0.00     0.002 A 
HETATM   12  C   UNL     1     -40.970  53.365 -54.174  1.00  0.00     0.030 A 
BRANCH   8  13
HETATM   13  C   UNL     1     -40.595  54.141 -50.446  1.00  0.00     0.419 C 
HETATM   14  F   UNL     1     -41.791  53.966 -49.815  1.00  0.00    -0.166 F 
HETATM   15  F   UNL     1     -39.649  53.669 -49.589  1.00  0.00    -0.166 F 
HETATM   16  F   UNL     1     -40.408  55.492 -50.499  1.00  0.00    -0.166 F 
ENDBRANCH   8  13
ENDBRANCH   5   7
ENDBRANCH   3   5
ENDBRANCH   1   3
BRANCH   1  17
HETATM   17  N   UNL     1     -43.591  55.662 -55.134  1.00  0.00    -0.268 N 
HETATM   18  C   UNL     1     -43.871  56.971 -55.467  1.00  0.00     0.236 C 
HETATM   19  O   UNL     1     -44.508  57.722 -54.732  1.00  0.00    -0.272 OA
HETATM   20  H   UNL     1     -43.041  55.035 -55.717  1.00  0.00     0.190 HD
BRANCH  18  21
HETATM   21  C   UNL     1     -43.276  57.381 -56.797  1.00  0.00     0.109 C 
BRANCH  21  22
HETATM   22  C   UNL     1     -43.241  56.212 -57.781  1.00  0.00     0.048 C 
BRANCH  22  23
HETATM   23  C   UNL     1     -44.270  56.226 -58.894  1.00  0.00    -0.055 A 
HETATM   24  C   UNL     1     -44.089  55.332 -59.966  1.00  0.00     0.046 A 
HETATM   25  C   UNL     1     -45.018  55.284 -61.001  1.00  0.00     0.099 A 
HETATM   26  C   UNL     1     -46.129  56.119 -60.984  1.00  0.00     0.098 A 
HETATM   27  C   UNL     1     -46.324  57.014 -59.946  1.00  0.00     0.040 A 
HETATM   28  C   UNL     1     -45.394  57.071 -58.903  1.00  0.00     0.010 A 
BRANCH  25  29
HETATM   29  O   UNL     1     -44.882  54.425 -62.056  1.00  0.00    -0.358 OA
HETATM   30  H   UNL     1     -45.772  54.224 -62.396  1.00  0.00     0.218 HD
ENDBRANCH  25  29
BRANCH  26  31
HETATM   31  O   UNL     1     -47.043  56.060 -61.997  1.00  0.00    -0.358 OA
HETATM   32  H   UNL     1     -47.532  56.904 -61.933  1.00  0.00     0.218 HD
ENDBRANCH  26  31
ENDBRANCH  22  23
ENDBRANCH  21  22
ENDBRANCH  18  21
ENDBRANCH   1  17
TORSDOF 10
ENDMDL
MODEL 7
REMARK VINA RESULT:      -7.5      3.738      6.274
REMARK  10 active torsions:
REMARK  status: ('A' for Active; 'I' for Inactive)
REMARK    1  A    between atoms: C_3  and  C_4 
REMARK    2  A    between atoms: C_8  and  N_9 
REMARK    3  A    between atoms: N_9  and  C_10 
REMARK    4  A    between atoms: C_10  and  N_11 
REMARK    5  A    between atoms: N_11  and  N_12 
REMARK       I    between atoms: N_12  and  C_13 
REMARK    6  A    between atoms: C_13  and  C_14 
REMARK    7  A    between atoms: C_14  and  C_15 
REMARK    8  A    between atoms: C_15  and  C_16 
REMARK    9  A    between atoms: C_18  and  O_19 
REMARK   10  A    between atoms: C_20  and  O_21 
ROOT
HETATM    1  N   UNL     1     -44.269  55.943 -53.351  1.00  0.00    -0.274 N 
HETATM    2  H   UNL     1     -45.173  55.544 -53.608  1.00  0.00     0.189 HD
ENDROOT
BRANCH   1   3
HETATM    3  C   UNL     1     -43.130  55.418 -53.901  1.00  0.00     0.191 C 
HETATM    4  S   UNL     1     -42.264  56.137 -55.145  1.00  0.00    -0.039 SA
BRANCH   3   5
HETATM    5  N   UNL     1     -42.691  54.215 -53.422  1.00  0.00    -0.331 N 
HETATM    6  H   UNL     1     -42.964  53.440 -54.027  1.00  0.00     0.168 HD
BRANCH   5   7
HETATM    7  C   UNL     1     -41.849  53.896 -52.329  1.00  0.00     0.049 A 
HETATM    8  C   UNL     1     -40.686  53.128 -52.545  1.00  0.00     0.074 A 
HETATM    9  C   UNL     1     -39.839  52.832 -51.456  1.00  0.00     0.018 A 
HETATM   10  C   UNL     1     -40.117  53.310 -50.179  1.00  0.00     0.001 A 
HETATM   11  C   UNL     1     -41.242  54.096 -49.973  1.00  0.00     0.002 A 
HETATM   12  C   UNL     1     -42.096  54.393 -51.039  1.00  0.00     0.030 A 
BRANCH   8  13
HETATM   13  C   UNL     1     -40.338  52.544 -53.891  1.00  0.00     0.419 C 
HETATM   14  F   UNL     1     -39.266  51.702 -53.852  1.00  0.00    -0.166 F 
HETATM   15  F   UNL     1     -41.361  51.821 -54.424  1.00  0.00    -0.166 F 
HETATM   16  F   UNL     1     -40.024  53.488 -54.826  1.00  0.00    -0.166 F 
ENDBRANCH   8  13
ENDBRANCH   5   7
ENDBRANCH   3   5
ENDBRANCH   1   3
BRANCH   1  17
HETATM   17  N   UNL     1     -44.325  57.269 -52.907  1.00  0.00    -0.268 N 
HETATM   18  C   UNL     1     -44.557  57.501 -51.567  1.00  0.00     0.236 C 
HETATM   19  O   UNL     1     -44.831  56.604 -50.774  1.00  0.00    -0.272 OA
HETATM   20  H   UNL     1     -44.069  57.996 -53.571  1.00  0.00     0.190 HD
BRANCH  18  21
HETATM   21  C   UNL     1     -44.393  58.957 -51.185  1.00  0.00     0.109 C 
BRANCH  21  22
HETATM   22  C   UNL     1     -43.341  59.651 -52.050  1.00  0.00     0.048 C 
BRANCH  22  23
HETATM   23  C   UNL     1     -41.903  59.559 -51.580  1.00  0.00    -0.055 A 
HETATM   24  C   UNL     1     -40.915  59.276 -52.542  1.00  0.00     0.046 A 
HETATM   25  C   UNL     1     -39.576  59.207 -52.170  1.00  0.00     0.099 A 
HETATM   26  C   UNL     1     -39.205  59.416 -50.847  1.00  0.00     0.098 A 
HETATM   27  C   UNL     1     -40.158  59.686 -49.880  1.00  0.00     0.040 A 
HETATM   28  C   UNL     1     -41.507  59.754 -50.245  1.00  0.00     0.010 A 
BRANCH  25  29
HETATM   29  O   UNL     1     -38.587  58.942 -53.075  1.00  0.00    -0.358 OA
HETATM   30  H   UNL     1     -39.006  58.640 -53.900  1.00  0.00     0.218 HD
ENDBRANCH  25  29
BRANCH  26  31
HETATM   31  O   UNL     1     -37.888  59.358 -50.490  1.00  0.00    -0.358 OA
HETATM   32  H   UNL     1     -37.836  58.598 -49.877  1.00  0.00     0.218 HD
ENDBRANCH  26  31
ENDBRANCH  22  23
ENDBRANCH  21  22
ENDBRANCH  18  21
ENDBRANCH   1  17
TORSDOF 10
ENDMDL
MODEL 8
REMARK VINA RESULT:      -7.4      3.697      5.384
REMARK  10 active torsions:
REMARK  status: ('A' for Active; 'I' for Inactive)
REMARK    1  A    between atoms: C_3  and  C_4 
REMARK    2  A    between atoms: C_8  and  N_9 
REMARK    3  A    between atoms: N_9  and  C_10 
REMARK    4  A    between atoms: C_10  and  N_11 
REMARK    5  A    between atoms: N_11  and  N_12 
REMARK       I    between atoms: N_12  and  C_13 
REMARK    6  A    between atoms: C_13  and  C_14 
REMARK    7  A    between atoms: C_14  and  C_15 
REMARK    8  A    between atoms: C_15  and  C_16 
REMARK    9  A    between atoms: C_18  and  O_19 
REMARK   10  A    between atoms: C_20  and  O_21 
ROOT
HETATM    1  N   UNL     1     -44.917  56.609 -54.712  1.00  0.00    -0.274 N 
HETATM    2  H   UNL     1     -45.488  56.469 -53.877  1.00  0.00     0.189 HD
ENDROOT
BRANCH   1   3
HETATM    3  C   UNL     1     -44.692  57.884 -55.157  1.00  0.00     0.191 C 
HETATM    4  S   UNL     1     -44.856  59.259 -54.211  1.00  0.00    -0.039 SA
BRANCH   3   5
HETATM    5  N   UNL     1     -44.339  58.044 -56.469  1.00  0.00    -0.331 N 
HETATM    6  H   UNL     1     -43.389  58.404 -56.568  1.00  0.00     0.168 HD
BRANCH   5   7
HETATM    7  C   UNL     1     -45.007  57.691 -57.667  1.00  0.00     0.049 A 
HETATM    8  C   UNL     1     -44.332  56.929 -58.642  1.00  0.00     0.074 A 
HETATM    9  C   UNL     1     -45.010  56.561 -59.824  1.00  0.00     0.018 A 
HETATM   10  C   UNL     1     -46.341  56.912 -60.028  1.00  0.00     0.001 A 
HETATM   11  C   UNL     1     -47.016  57.631 -59.052  1.00  0.00     0.002 A 
HETATM   12  C   UNL     1     -46.357  58.010 -57.878  1.00  0.00     0.030 A 
BRANCH   8  13
HETATM   13  C   UNL     1     -42.881  56.542 -58.511  1.00  0.00     0.419 C 
HETATM   14  F   UNL     1     -42.067  57.595 -58.214  1.00  0.00    -0.166 F 
HETATM   15  F   UNL     1     -42.675  55.623 -57.528  1.00  0.00    -0.166 F 
HETATM   16  F   UNL     1     -42.363  55.992 -59.648  1.00  0.00    -0.166 F 
ENDBRANCH   8  13
ENDBRANCH   5   7
ENDBRANCH   3   5
ENDBRANCH   1   3
BRANCH   1  17
HETATM   17  N   UNL     1     -44.021  55.569 -54.982  1.00  0.00    -0.268 N 
HETATM   18  C   UNL     1     -43.039  55.292 -54.053  1.00  0.00     0.236 C 
HETATM   19  O   UNL     1     -42.847  55.991 -53.061  1.00  0.00    -0.272 OA
HETATM   20  H   UNL     1     -44.213  54.985 -55.793  1.00  0.00     0.190 HD
BRANCH  18  21
HETATM   21  C   UNL     1     -42.271  54.026 -54.368  1.00  0.00     0.109 C 
BRANCH  21  22
HETATM   22  C   UNL     1     -40.972  53.943 -53.568  1.00  0.00     0.048 C 
BRANCH  22  23
HETATM   23  C   UNL     1     -40.478  52.554 -53.213  1.00  0.00    -0.055 A 
HETATM   24  C   UNL     1     -40.458  51.584 -54.234  1.00  0.00     0.046 A 
HETATM   25  C   UNL     1     -39.989  50.301 -53.969  1.00  0.00     0.099 A 
HETATM   26  C   UNL     1     -39.539  49.968 -52.697  1.00  0.00     0.098 A 
HETATM   27  C   UNL     1     -39.558  50.900 -51.674  1.00  0.00     0.040 A 
HETATM   28  C   UNL     1     -40.030  52.192 -51.930  1.00  0.00     0.010 A 
BRANCH  25  29
HETATM   29  O   UNL     1     -39.946  49.334 -54.934  1.00  0.00    -0.358 OA
HETATM   30  H   UNL     1     -40.835  49.257 -55.322  1.00  0.00     0.218 HD
ENDBRANCH  25  29
BRANCH  26  31
HETATM   31  O   UNL     1     -39.070  48.710 -52.447  1.00  0.00    -0.358 OA
HETATM   32  H   UNL     1     -38.701  48.764 -51.543  1.00  0.00     0.218 HD
ENDBRANCH  26  31
ENDBRANCH  22  23
ENDBRANCH  21  22
ENDBRANCH  18  21
ENDBRANCH   1  17
TORSDOF 10
ENDMDL
MODEL 9
REMARK VINA RESULT:      -7.4      3.924      6.444
REMARK  10 active torsions:
REMARK  status: ('A' for Active; 'I' for Inactive)
REMARK    1  A    between atoms: C_3  and  C_4 
REMARK    2  A    between atoms: C_8  and  N_9 
REMARK    3  A    between atoms: N_9  and  C_10 
REMARK    4  A    between atoms: C_10  and  N_11 
REMARK    5  A    between atoms: N_11  and  N_12 
REMARK       I    between atoms: N_12  and  C_13 
REMARK    6  A    between atoms: C_13  and  C_14 
REMARK    7  A    between atoms: C_14  and  C_15 
REMARK    8  A    between atoms: C_15  and  C_16 
REMARK    9  A    between atoms: C_18  and  O_19 
REMARK   10  A    between atoms: C_20  and  O_21 
ROOT
HETATM    1  N   UNL     1     -44.388  55.408 -54.093  1.00  0.00    -0.274 N 
HETATM    2  H   UNL     1     -45.052  54.916 -53.493  1.00  0.00     0.189 HD
ENDROOT
BRANCH   1   3
HETATM    3  C   UNL     1     -43.272  54.746 -54.532  1.00  0.00     0.191 C 
HETATM    4  S   UNL     1     -42.456  55.107 -55.952  1.00  0.00    -0.039 SA
BRANCH   3   5
HETATM    5  N   UNL     1     -42.814  53.704 -53.773  1.00  0.00    -0.331 N 
HETATM    6  H   UNL     1     -43.063  52.800 -54.176  1.00  0.00     0.168 HD
BRANCH   5   7
HETATM    7  C   UNL     1     -41.981  53.677 -52.628  1.00  0.00     0.049 A 
HETATM    8  C   UNL     1     -40.708  53.076 -52.707  1.00  0.00     0.074 A 
HETATM    9  C   UNL     1     -39.873  53.071 -51.569  1.00  0.00     0.018 A 
HETATM   10  C   UNL     1     -40.273  53.676 -50.382  1.00  0.00     0.001 A 
HETATM   11  C   UNL     1     -41.511  54.300 -50.315  1.00  0.00     0.002 A 
HETATM   12  C   UNL     1     -42.354  54.306 -51.431  1.00  0.00     0.030 A 
BRANCH   8  13
HETATM   13  C   UNL     1     -40.219  52.369 -53.945  1.00  0.00     0.419 C 
HETATM   14  F   UNL     1     -39.918  53.218 -54.969  1.00  0.00    -0.166 F 
HETATM   15  F   UNL     1     -39.089  51.645 -53.718  1.00  0.00    -0.166 F 
HETATM   16  F   UNL     1     -41.127  51.488 -54.460  1.00  0.00    -0.166 F 
ENDBRANCH   8  13
ENDBRANCH   5   7
ENDBRANCH   3   5
ENDBRANCH   1   3
BRANCH   1  17
HETATM   17  N   UNL     1     -44.936  56.477 -54.810  1.00  0.00    -0.268 N 
HETATM   18  C   UNL     1     -44.580  57.760 -54.447  1.00  0.00     0.236 C 
HETATM   19  O   UNL     1     -43.902  58.005 -53.453  1.00  0.00    -0.272 OA
HETATM   20  H   UNL     1     -45.473  56.254 -55.645  1.00  0.00     0.190 HD
BRANCH  18  21
HETATM   21  C   UNL     1     -45.077  58.806 -55.421  1.00  0.00     0.109 C 
BRANCH  21  22
HETATM   22  C   UNL     1     -45.443  58.190 -56.771  1.00  0.00     0.048 C 
BRANCH  22  23
HETATM   23  C   UNL     1     -44.297  57.890 -57.716  1.00  0.00    -0.055 A 
HETATM   24  C   UNL     1     -44.533  56.979 -58.765  1.00  0.00     0.046 A 
HETATM   25  C   UNL     1     -43.525  56.687 -59.677  1.00  0.00     0.099 A 
HETATM   26  C   UNL     1     -42.278  57.291 -59.560  1.00  0.00     0.098 A 
HETATM   27  C   UNL     1     -42.018  58.181 -58.533  1.00  0.00     0.040 A 
HETATM   28  C   UNL     1     -43.025  58.479 -57.609  1.00  0.00     0.010 A 
BRANCH  25  29
HETATM   29  O   UNL     1     -43.716  55.815 -60.712  1.00  0.00    -0.358 OA
HETATM   30  H   UNL     1     -42.923  55.840 -61.276  1.00  0.00     0.218 HD
ENDBRANCH  25  29
BRANCH  26  31
HETATM   31  O   UNL     1     -41.295  57.008 -60.466  1.00  0.00    -0.358 OA
HETATM   32  H   UNL     1     -41.330  56.037 -60.567  1.00  0.00     0.218 HD
ENDBRANCH  26  31
ENDBRANCH  22  23
ENDBRANCH  21  22
ENDBRANCH  18  21
ENDBRANCH   1  17
TORSDOF 10
ENDMDL
MODEL 10
REMARK VINA RESULT:      -7.3      3.986      6.918
REMARK  10 active torsions:
REMARK  status: ('A' for Active; 'I' for Inactive)
REMARK    1  A    between atoms: C_3  and  C_4 
REMARK    2  A    between atoms: C_8  and  N_9 
REMARK    3  A    between atoms: N_9  and  C_10 
REMARK    4  A    between atoms: C_10  and  N_11 
REMARK    5  A    between atoms: N_11  and  N_12 
REMARK       I    between atoms: N_12  and  C_13 
REMARK    6  A    between atoms: C_13  and  C_14 
REMARK    7  A    between atoms: C_14  and  C_15 
REMARK    8  A    between atoms: C_15  and  C_16 
REMARK    9  A    between atoms: C_18  and  O_19 
REMARK   10  A    between atoms: C_20  and  O_21 
ROOT
HETATM    1  N   UNL     1     -44.412  55.971 -53.727  1.00  0.00    -0.274 N 
HETATM    2  H   UNL     1     -45.020  55.151 -53.694  1.00  0.00     0.189 HD
ENDROOT
BRANCH   1   3
HETATM    3  C   UNL     1     -43.545  56.198 -52.692  1.00  0.00     0.191 C 
HETATM    4  S   UNL     1     -43.979  56.899 -51.231  1.00  0.00    -0.039 SA
BRANCH   3   5
HETATM    5  N   UNL     1     -42.233  55.855 -52.877  1.00  0.00    -0.331 N 
HETATM    6  H   UNL     1     -41.678  56.639 -53.221  1.00  0.00     0.168 HD
BRANCH   5   7
HETATM    7  C   UNL     1     -41.526  54.668 -52.567  1.00  0.00     0.049 A 
HETATM    8  C   UNL     1     -40.891  53.946 -53.598  1.00  0.00     0.074 A 
HETATM    9  C   UNL     1     -40.168  52.776 -53.281  1.00  0.00     0.018 A 
HETATM   10  C   UNL     1     -40.047  52.341 -51.965  1.00  0.00     0.001 A 
HETATM   11  C   UNL     1     -40.640  53.072 -50.945  1.00  0.00     0.002 A 
HETATM   12  C   UNL     1     -41.366  54.229 -51.243  1.00  0.00     0.030 A 
BRANCH   8  13
HETATM   13  C   UNL     1     -41.008  54.332 -55.051  1.00  0.00     0.419 C 
HETATM   14  F   UNL     1     -40.827  55.665 -55.271  1.00  0.00    -0.166 F 
HETATM   15  F   UNL     1     -40.092  53.697 -55.833  1.00  0.00    -0.166 F 
HETATM   16  F   UNL     1     -42.226  54.036 -55.593  1.00  0.00    -0.166 F 
ENDBRANCH   8  13
ENDBRANCH   5   7
ENDBRANCH   3   5
ENDBRANCH   1   3
BRANCH   1  17
HETATM   17  N   UNL     1     -44.156  56.452 -55.016  1.00  0.00    -0.268 N 
HETATM   18  C   UNL     1     -44.587  57.722 -55.339  1.00  0.00     0.236 C 
HETATM   19  O   UNL     1     -45.285  58.398 -54.586  1.00  0.00    -0.272 OA
HETATM   20  H   UNL     1     -43.556  55.889 -55.614  1.00  0.00     0.190 HD
BRANCH  18  21
HETATM   21  C   UNL     1     -44.075  58.194 -56.682  1.00  0.00     0.109 C 
BRANCH  21  22
HETATM   22  C   UNL     1     -45.177  58.185 -57.740  1.00  0.00     0.048 C 
BRANCH  22  23
HETATM   23  C   UNL     1     -45.061  57.146 -58.837  1.00  0.00    -0.055 A 
HETATM   24  C   UNL     1     -46.100  57.074 -59.786  1.00  0.00     0.046 A 
HETATM   25  C   UNL     1     -46.031  56.156 -60.830  1.00  0.00     0.099 A 
HETATM   26  C   UNL     1     -44.938  55.304 -60.943  1.00  0.00     0.098 A 
HETATM   27  C   UNL     1     -43.910  55.348 -60.018  1.00  0.00     0.040 A 
HETATM   28  C   UNL     1     -43.971  56.266 -58.964  1.00  0.00     0.010 A 
BRANCH  25  29
HETATM   29  O   UNL     1     -47.014  56.060 -61.774  1.00  0.00    -0.358 OA
HETATM   30  H   UNL     1     -47.472  56.918 -61.820  1.00  0.00     0.218 HD
ENDBRANCH  25  29
BRANCH  26  31
HETATM   31  O   UNL     1     -44.872  54.413 -61.976  1.00  0.00    -0.358 OA
HETATM   32  H   UNL     1     -44.000  53.984 -61.870  1.00  0.00     0.218 HD
ENDBRANCH  26  31
ENDBRANCH  22  23
ENDBRANCH  21  22
ENDBRANCH  18  21
ENDBRANCH   1  17
TORSDOF 10
ENDMDL
