MODEL 1
REMARK VINA RESULT:      -7.8      0.000      0.000
REMARK  6 active torsions:
REMARK  status: ('A' for Active; 'I' for Inactive)
REMARK    1  A    between atoms: C_2  and  C_3 
REMARK       I    between atoms: C_3  and  N_4 
REMARK    2  A    between atoms: N_4  and  C_5 
REMARK    3  A    between atoms: C_7  and  N_8 
REMARK       I    between atoms: N_8  and  C_9 
REMARK    4  A    between atoms: C_9  and  C_10 
REMARK    5  A    between atoms: C_12  and  O_13 
REMARK    6  A    between atoms: O_13  and  C_14 
ROOT
HETATM    1  N   UNL     1     -41.682  56.111 -54.155  1.00  0.00    -0.323 N 
HETATM    2  C   UNL     1     -42.217  55.966 -52.887  1.00  0.00     0.256 C 
HETATM    3  O   UNL     1     -43.216  56.525 -52.448  1.00  0.00    -0.267 OA
HETATM    4  H   UNL     1     -40.774  55.701 -54.333  1.00  0.00     0.169 HD
ENDROOT
BRANCH   1   5
HETATM    5  C   UNL     1     -42.229  56.852 -55.228  1.00  0.00     0.037 A 
HETATM    6  C   UNL     1     -42.872  56.128 -56.247  1.00  0.00     0.059 A 
HETATM    7  C   UNL     1     -43.443  56.780 -57.346  1.00  0.00     0.036 A 
HETATM    8  C   UNL     1     -43.371  58.174 -57.418  1.00  0.00     0.029 A 
HETATM    9  C   UNL     1     -42.743  58.902 -56.409  1.00  0.00     0.004 A 
HETATM   10  C   UNL     1     -42.176  58.243 -55.318  1.00  0.00     0.029 A 
BRANCH   7  11
HETATM   11  N   UNL     1     -44.098  56.119 -58.407  1.00  0.00    -0.327 N 
HETATM   12  C   UNL     1     -43.569  55.751 -59.630  1.00  0.00     0.221 C 
HETATM   13  O   UNL     1     -42.420  55.936 -60.017  1.00  0.00    -0.273 OA
HETATM   14  H   UNL     1     -45.069  55.886 -58.245  1.00  0.00     0.169 HD
BRANCH  12  15
HETATM   15  C   UNL     1     -44.583  55.058 -60.521  1.00  0.00     0.098 C 
HETATM   16  C   UNL     1     -45.969  55.663 -60.386  1.00  0.00     0.014 C 
ENDBRANCH  12  15
ENDBRANCH   7  11
ENDBRANCH   1   5
BRANCH   2  17
HETATM   17  C   UNL     1     -41.477  55.059 -51.965  1.00  0.00     0.037 A 
HETATM   18  C   UNL     1     -40.718  53.983 -52.421  1.00  0.00     0.075 A 
HETATM   19  C   UNL     1     -40.133  53.165 -51.471  1.00  0.00     0.165 A 
HETATM   20  N   UNL     1     -40.239  53.351 -50.140  1.00  0.00    -0.237 NA
HETATM   21  C   UNL     1     -40.978  54.400 -49.727  1.00  0.00     0.120 A 
HETATM   22  C   UNL     1     -41.615  55.270 -50.591  1.00  0.00     0.036 A 
BRANCH  19  23
HETATM   23  O   UNL     1     -39.399  52.092 -51.940  1.00  0.00    -0.329 OA
BRANCH  23  24
HETATM   24  C   UNL     1     -40.103  51.185 -52.817  1.00  0.00     0.130 C 
HETATM   25  C   UNL     1     -39.743  51.328 -54.320  1.00  0.00     0.032 C 
HETATM   26  C   UNL     1     -39.893  49.801 -54.435  1.00  0.00     0.005 C 
HETATM   27  C   UNL     1     -39.573  49.729 -52.931  1.00  0.00     0.032 C 
ENDBRANCH  23  24
ENDBRANCH  19  23
ENDBRANCH   2  17
TORSDOF 6
ENDMDL
MODEL 2
REMARK VINA RESULT:      -7.6      1.684      8.607
REMARK  6 active torsions:
REMARK  status: ('A' for Active; 'I' for Inactive)
REMARK    1  A    between atoms: C_2  and  C_3 
REMARK       I    between atoms: C_3  and  N_4 
REMARK    2  A    between atoms: N_4  and  C_5 
REMARK    3  A    between atoms: C_7  and  N_8 
REMARK       I    between atoms: N_8  and  C_9 
REMARK    4  A    between atoms: C_9  and  C_10 
REMARK    5  A    between atoms: C_12  and  O_13 
REMARK    6  A    between atoms: O_13  and  C_14 
ROOT
HETATM    1  N   UNL     1     -41.134  54.661 -55.429  1.00  0.00    -0.323 N 
HETATM    2  C   UNL     1     -42.424  54.814 -55.904  1.00  0.00     0.256 C 
HETATM    3  O   UNL     1     -43.405  54.157 -55.574  1.00  0.00    -0.267 OA
HETATM    4  H   UNL     1     -40.396  55.175 -55.895  1.00  0.00     0.169 HD
ENDROOT
BRANCH   1   5
HETATM    5  C   UNL     1     -40.704  53.790 -54.402  1.00  0.00     0.037 A 
HETATM    6  C   UNL     1     -40.758  54.273 -53.084  1.00  0.00     0.059 A 
HETATM    7  C   UNL     1     -40.353  53.477 -52.006  1.00  0.00     0.036 A 
HETATM    8  C   UNL     1     -39.894  52.181 -52.256  1.00  0.00     0.029 A 
HETATM    9  C   UNL     1     -39.844  51.689 -53.559  1.00  0.00     0.004 A 
HETATM   10  C   UNL     1     -40.249  52.490 -54.627  1.00  0.00     0.029 A 
BRANCH   7  11
HETATM   11  N   UNL     1     -40.374  53.898 -50.659  1.00  0.00    -0.327 N 
HETATM   12  C   UNL     1     -41.433  54.449 -49.961  1.00  0.00     0.221 C 
HETATM   13  O   UNL     1     -42.558  54.674 -50.394  1.00  0.00    -0.273 OA
HETATM   14  H   UNL     1     -39.510  53.775 -50.148  1.00  0.00     0.169 HD
BRANCH  12  15
HETATM   15  C   UNL     1     -41.076  54.781 -48.523  1.00  0.00     0.098 C 
HETATM   16  C   UNL     1     -40.004  53.857 -47.974  1.00  0.00     0.014 C 
ENDBRANCH  12  15
ENDBRANCH   7  11
ENDBRANCH   1   5
BRANCH   2  17
HETATM   17  C   UNL     1     -42.619  55.866 -56.940  1.00  0.00     0.037 A 
HETATM   18  C   UNL     1     -43.018  55.571 -58.243  1.00  0.00     0.075 A 
HETATM   19  C   UNL     1     -43.097  56.619 -59.141  1.00  0.00     0.165 A 
HETATM   20  N   UNL     1     -42.827  57.905 -58.834  1.00  0.00    -0.237 NA
HETATM   21  C   UNL     1     -42.445  58.162 -57.567  1.00  0.00     0.120 A 
HETATM   22  C   UNL     1     -42.321  57.187 -56.596  1.00  0.00     0.036 A 
BRANCH  19  23
HETATM   23  O   UNL     1     -43.477  56.306 -60.432  1.00  0.00    -0.329 OA
BRANCH  23  24
HETATM   24  C   UNL     1     -44.878  56.490 -60.738  1.00  0.00     0.130 C 
HETATM   25  C   UNL     1     -45.773  55.259 -60.432  1.00  0.00     0.032 C 
HETATM   26  C   UNL     1     -46.873  56.248 -60.007  1.00  0.00     0.005 C 
HETATM   27  C   UNL     1     -45.750  57.257 -59.707  1.00  0.00     0.032 C 
ENDBRANCH  23  24
ENDBRANCH  19  23
ENDBRANCH   2  17
TORSDOF 6
ENDMDL
MODEL 3
REMARK VINA RESULT:      -7.4      2.209      3.011
REMARK  6 active torsions:
REMARK  status: ('A' for Active; 'I' for Inactive)
REMARK    1  A    between atoms: C_2  and  C_3 
REMARK       I    between atoms: C_3  and  N_4 
REMARK    2  A    between atoms: N_4  and  C_5 
REMARK    3  A    between atoms: C_7  and  N_8 
REMARK       I    between atoms: N_8  and  C_9 
REMARK    4  A    between atoms: C_9  and  C_10 
REMARK    5  A    between atoms: C_12  and  O_13 
REMARK    6  A    between atoms: O_13  and  C_14 
ROOT
HETATM    1  N   UNL     1     -41.996  56.717 -57.181  1.00  0.00    -0.323 N 
HETATM    2  C   UNL     1     -42.603  56.652 -55.939  1.00  0.00     0.256 C 
HETATM    3  O   UNL     1     -43.618  57.245 -55.592  1.00  0.00    -0.267 OA
HETATM    4  H   UNL     1     -41.084  56.290 -57.283  1.00  0.00     0.169 HD
ENDROOT
BRANCH   1   5
HETATM    5  C   UNL     1     -42.474  57.398 -58.325  1.00  0.00     0.037 A 
HETATM    6  C   UNL     1     -43.627  56.886 -58.944  1.00  0.00     0.059 A 
HETATM    7  C   UNL     1     -44.168  57.497 -60.080  1.00  0.00     0.036 A 
HETATM    8  C   UNL     1     -43.547  58.638 -60.597  1.00  0.00     0.029 A 
HETATM    9  C   UNL     1     -42.408  59.159 -59.986  1.00  0.00     0.004 A 
HETATM   10  C   UNL     1     -41.875  58.542 -58.854  1.00  0.00     0.029 A 
BRANCH   7  11
HETATM   11  N   UNL     1     -45.318  57.036 -60.756  1.00  0.00    -0.327 N 
HETATM   12  C   UNL     1     -46.600  56.905 -60.254  1.00  0.00     0.221 C 
HETATM   13  O   UNL     1     -46.972  57.171 -59.116  1.00  0.00    -0.273 OA
HETATM   14  H   UNL     1     -45.183  56.775 -61.724  1.00  0.00     0.169 HD
BRANCH  12  15
HETATM   15  C   UNL     1     -47.579  56.370 -61.282  1.00  0.00     0.098 C 
HETATM   16  C   UNL     1     -48.304  57.485 -62.015  1.00  0.00     0.014 C 
ENDBRANCH  12  15
ENDBRANCH   7  11
ENDBRANCH   1   5
BRANCH   2  17
HETATM   17  C   UNL     1     -41.927  55.796 -54.926  1.00  0.00     0.037 A 
HETATM   18  C   UNL     1     -41.220  54.644 -55.268  1.00  0.00     0.075 A 
HETATM   19  C   UNL     1     -40.694  53.887 -54.237  1.00  0.00     0.165 A 
HETATM   20  N   UNL     1     -40.811  54.197 -52.930  1.00  0.00    -0.237 NA
HETATM   21  C   UNL     1     -41.498  55.316 -52.628  1.00  0.00     0.120 A 
HETATM   22  C   UNL     1     -42.075  56.136 -53.579  1.00  0.00     0.036 A 
BRANCH  19  23
HETATM   23  O   UNL     1     -40.011  52.739 -54.594  1.00  0.00    -0.329 OA
BRANCH  23  24
HETATM   24  C   UNL     1     -40.345  51.550 -53.842  1.00  0.00     0.130 C 
HETATM   25  C   UNL     1     -40.001  50.216 -54.556  1.00  0.00     0.032 C 
HETATM   26  C   UNL     1     -39.635  49.647 -53.174  1.00  0.00     0.005 C 
HETATM   27  C   UNL     1     -39.362  51.095 -52.730  1.00  0.00     0.032 C 
ENDBRANCH  23  24
ENDBRANCH  19  23
ENDBRANCH   2  17
TORSDOF 6
ENDMDL
MODEL 4
REMARK VINA RESULT:      -7.3      2.224      8.883
REMARK  6 active torsions:
REMARK  status: ('A' for Active; 'I' for Inactive)
REMARK    1  A    between atoms: C_2  and  C_3 
REMARK       I    between atoms: C_3  and  N_4 
REMARK    2  A    between atoms: N_4  and  C_5 
REMARK    3  A    between atoms: C_7  and  N_8 
REMARK       I    between atoms: N_8  and  C_9 
REMARK    4  A    between atoms: C_9  and  C_10 
REMARK    5  A    between atoms: C_12  and  O_13 
REMARK    6  A    between atoms: O_13  and  C_14 
ROOT
HETATM    1  N   UNL     1     -41.274  54.657 -55.662  1.00  0.00    -0.323 N 
HETATM    2  C   UNL     1     -42.593  54.951 -55.959  1.00  0.00     0.256 C 
HETATM    3  O   UNL     1     -43.586  54.487 -55.409  1.00  0.00    -0.267 OA
HETATM    4  H   UNL     1     -40.561  55.002 -56.292  1.00  0.00     0.169 HD
ENDROOT
BRANCH   1   5
HETATM    5  C   UNL     1     -40.802  53.844 -54.605  1.00  0.00     0.037 A 
HETATM    6  C   UNL     1     -40.837  54.389 -53.310  1.00  0.00     0.059 A 
HETATM    7  C   UNL     1     -40.390  53.654 -52.206  1.00  0.00     0.036 A 
HETATM    8  C   UNL     1     -39.909  52.357 -52.405  1.00  0.00     0.029 A 
HETATM    9  C   UNL     1     -39.878  51.804 -53.685  1.00  0.00     0.004 A 
HETATM   10  C   UNL     1     -40.324  52.545 -54.779  1.00  0.00     0.029 A 
BRANCH   7  11
HETATM   11  N   UNL     1     -40.390  54.137 -50.880  1.00  0.00    -0.327 N 
HETATM   12  C   UNL     1     -41.483  54.435 -50.087  1.00  0.00     0.221 C 
HETATM   13  O   UNL     1     -42.664  54.332 -50.399  1.00  0.00    -0.273 OA
HETATM   14  H   UNL     1     -39.478  54.276 -50.464  1.00  0.00     0.169 HD
BRANCH  12  15
HETATM   15  C   UNL     1     -41.087  54.938 -48.711  1.00  0.00     0.098 C 
HETATM   16  C   UNL     1     -40.279  53.911 -47.939  1.00  0.00     0.014 C 
ENDBRANCH  12  15
ENDBRANCH   7  11
ENDBRANCH   1   5
BRANCH   2  17
HETATM   17  C   UNL     1     -42.813  55.905 -57.082  1.00  0.00     0.037 A 
HETATM   18  C   UNL     1     -42.687  57.285 -56.930  1.00  0.00     0.075 A 
HETATM   19  C   UNL     1     -42.985  58.078 -58.023  1.00  0.00     0.165 A 
HETATM   20  N   UNL     1     -43.376  57.603 -59.223  1.00  0.00    -0.237 NA
HETATM   21  C   UNL     1     -43.490  56.265 -59.342  1.00  0.00     0.120 A 
HETATM   22  C   UNL     1     -43.228  55.384 -58.310  1.00  0.00     0.036 A 
BRANCH  19  23
HETATM   23  O   UNL     1     -42.872  59.444 -57.850  1.00  0.00    -0.329 OA
BRANCH  23  24
HETATM   24  C   UNL     1     -41.724  60.064 -58.472  1.00  0.00     0.130 C 
HETATM   25  C   UNL     1     -42.016  60.744 -59.836  1.00  0.00     0.032 C 
HETATM   26  C   UNL     1     -40.998  61.828 -59.440  1.00  0.00     0.005 C 
HETATM   27  C   UNL     1     -41.299  61.471 -57.973  1.00  0.00     0.032 C 
ENDBRANCH  23  24
ENDBRANCH  19  23
ENDBRANCH   2  17
TORSDOF 6
ENDMDL
MODEL 5
REMARK VINA RESULT:      -7.2      1.353      8.139
REMARK  6 active torsions:
REMARK  status: ('A' for Active; 'I' for Inactive)
REMARK    1  A    between atoms: C_2  and  C_3 
REMARK       I    between atoms: C_3  and  N_4 
REMARK    2  A    between atoms: N_4  and  C_5 
REMARK    3  A    between atoms: C_7  and  N_8 
REMARK       I    between atoms: N_8  and  C_9 
REMARK    4  A    between atoms: C_9  and  C_10 
REMARK    5  A    between atoms: C_12  and  O_13 
REMARK    6  A    between atoms: O_13  and  C_14 
ROOT
HETATM    1  N   UNL     1     -41.502  55.927 -54.231  1.00  0.00    -0.323 N 
HETATM    2  C   UNL     1     -42.634  55.705 -54.996  1.00  0.00     0.256 C 
HETATM    3  O   UNL     1     -43.567  54.960 -54.719  1.00  0.00    -0.267 OA
HETATM    4  H   UNL     1     -40.747  56.455 -54.649  1.00  0.00     0.169 HD
ENDROOT
BRANCH   1   5
HETATM    5  C   UNL     1     -41.238  55.420 -52.938  1.00  0.00     0.037 A 
HETATM    6  C   UNL     1     -40.874  54.066 -52.839  1.00  0.00     0.059 A 
HETATM    7  C   UNL     1     -40.594  53.482 -51.599  1.00  0.00     0.036 A 
HETATM    8  C   UNL     1     -40.676  54.268 -50.446  1.00  0.00     0.029 A 
HETATM    9  C   UNL     1     -41.028  55.614 -50.533  1.00  0.00     0.004 A 
HETATM   10  C   UNL     1     -41.306  56.187 -51.774  1.00  0.00     0.029 A 
BRANCH   7  11
HETATM   11  N   UNL     1     -40.229  52.130 -51.424  1.00  0.00    -0.327 N 
HETATM   12  C   UNL     1     -39.574  51.307 -52.322  1.00  0.00     0.221 C 
HETATM   13  O   UNL     1     -39.187  51.610 -53.446  1.00  0.00    -0.273 OA
HETATM   14  H   UNL     1     -40.476  51.721 -50.532  1.00  0.00     0.169 HD
BRANCH  12  15
HETATM   15  C   UNL     1     -39.356  49.906 -51.779  1.00  0.00     0.098 C 
HETATM   16  C   UNL     1     -39.908  49.746 -50.374  1.00  0.00     0.014 C 
ENDBRANCH  12  15
ENDBRANCH   7  11
ENDBRANCH   1   5
BRANCH   2  17
HETATM   17  C   UNL     1     -42.695  56.428 -56.297  1.00  0.00     0.037 A 
HETATM   18  C   UNL     1     -42.967  55.783 -57.502  1.00  0.00     0.075 A 
HETATM   19  C   UNL     1     -42.928  56.541 -58.657  1.00  0.00     0.165 A 
HETATM   20  N   UNL     1     -42.657  57.863 -58.689  1.00  0.00    -0.237 NA
HETATM   21  C   UNL     1     -42.399  58.461 -57.510  1.00  0.00     0.120 A 
HETATM   22  C   UNL     1     -42.400  57.794 -56.300  1.00  0.00     0.036 A 
BRANCH  19  23
HETATM   23  O   UNL     1     -43.182  55.882 -59.844  1.00  0.00    -0.329 OA
BRANCH  23  24
HETATM   24  C   UNL     1     -44.373  56.295 -60.550  1.00  0.00     0.130 C 
HETATM   25  C   UNL     1     -45.167  55.138 -61.213  1.00  0.00     0.032 C 
HETATM   26  C   UNL     1     -46.454  55.901 -60.851  1.00  0.00     0.005 C 
HETATM   27  C   UNL     1     -45.654  56.564 -59.715  1.00  0.00     0.032 C 
ENDBRANCH  23  24
ENDBRANCH  19  23
ENDBRANCH   2  17
TORSDOF 6
ENDMDL
MODEL 6
REMARK VINA RESULT:      -7.2      2.855      7.637
REMARK  6 active torsions:
REMARK  status: ('A' for Active; 'I' for Inactive)
REMARK    1  A    between atoms: C_2  and  C_3 
REMARK       I    between atoms: C_3  and  N_4 
REMARK    2  A    between atoms: N_4  and  C_5 
REMARK    3  A    between atoms: C_7  and  N_8 
REMARK       I    between atoms: N_8  and  C_9 
REMARK    4  A    between atoms: C_9  and  C_10 
REMARK    5  A    between atoms: C_12  and  O_13 
REMARK    6  A    between atoms: O_13  and  C_14 
ROOT
HETATM    1  N   UNL     1     -42.611  56.538 -51.669  1.00  0.00    -0.323 N 
HETATM    2  C   UNL     1     -43.910  56.699 -51.222  1.00  0.00     0.256 C 
HETATM    3  O   UNL     1     -44.511  55.964 -50.446  1.00  0.00    -0.267 OA
HETATM    4  H   UNL     1     -42.293  57.139 -52.419  1.00  0.00     0.169 HD
ENDROOT
BRANCH   1   5
HETATM    5  C   UNL     1     -41.683  55.557 -51.249  1.00  0.00     0.037 A 
HETATM    6  C   UNL     1     -41.519  54.431 -52.074  1.00  0.00     0.059 A 
HETATM    7  C   UNL     1     -40.622  53.412 -51.736  1.00  0.00     0.036 A 
HETATM    8  C   UNL     1     -39.878  53.528 -50.558  1.00  0.00     0.029 A 
HETATM    9  C   UNL     1     -40.026  54.644 -49.737  1.00  0.00     0.004 A 
HETATM   10  C   UNL     1     -40.924  55.654 -50.082  1.00  0.00     0.029 A 
BRANCH   7  11
HETATM   11  N   UNL     1     -40.410  52.253 -52.513  1.00  0.00    -0.327 N 
HETATM   12  C   UNL     1     -40.121  52.180 -53.863  1.00  0.00     0.221 C 
HETATM   13  O   UNL     1     -39.995  53.122 -54.638  1.00  0.00    -0.273 OA
HETATM   14  H   UNL     1     -40.475  51.374 -52.015  1.00  0.00     0.169 HD
BRANCH  12  15
HETATM   15  C   UNL     1     -39.963  50.751 -54.351  1.00  0.00     0.098 C 
HETATM   16  C   UNL     1     -39.705  49.784 -53.209  1.00  0.00     0.014 C 
ENDBRANCH  12  15
ENDBRANCH   7  11
ENDBRANCH   1   5
BRANCH   2  17
HETATM   17  C   UNL     1     -44.650  57.869 -51.771  1.00  0.00     0.037 A 
HETATM   18  C   UNL     1     -44.642  58.193 -53.126  1.00  0.00     0.075 A 
HETATM   19  C   UNL     1     -45.305  59.343 -53.513  1.00  0.00     0.165 A 
HETATM   20  N   UNL     1     -45.967  60.160 -52.667  1.00  0.00    -0.237 NA
HETATM   21  C   UNL     1     -45.959  59.822 -51.362  1.00  0.00     0.120 A 
HETATM   22  C   UNL     1     -45.316  58.703 -50.869  1.00  0.00     0.036 A 
BRANCH  19  23
HETATM   23  O   UNL     1     -45.272  59.659 -54.858  1.00  0.00    -0.329 OA
BRANCH  23  24
HETATM   24  C   UNL     1     -45.220  58.536 -55.766  1.00  0.00     0.130 C 
HETATM   25  C   UNL     1     -46.108  58.684 -57.030  1.00  0.00     0.032 C 
HETATM   26  C   UNL     1     -45.004  57.949 -57.811  1.00  0.00     0.005 C 
HETATM   27  C   UNL     1     -44.015  58.448 -56.742  1.00  0.00     0.032 C 
ENDBRANCH  23  24
ENDBRANCH  19  23
ENDBRANCH   2  17
TORSDOF 6
ENDMDL
MODEL 7
REMARK VINA RESULT:      -7.0      1.873      2.096
REMARK  6 active torsions:
REMARK  status: ('A' for Active; 'I' for Inactive)
REMARK    1  A    between atoms: C_2  and  C_3 
REMARK       I    between atoms: C_3  and  N_4 
REMARK    2  A    between atoms: N_4  and  C_5 
REMARK    3  A    between atoms: C_7  and  N_8 
REMARK       I    between atoms: N_8  and  C_9 
REMARK    4  A    between atoms: C_9  and  C_10 
REMARK    5  A    between atoms: C_12  and  O_13 
REMARK    6  A    between atoms: O_13  and  C_14 
ROOT
HETATM    1  N   UNL     1     -43.029  56.138 -52.493  1.00  0.00    -0.323 N 
HETATM    2  C   UNL     1     -41.715  56.246 -52.073  1.00  0.00     0.256 C 
HETATM    3  O   UNL     1     -40.950  57.176 -52.303  1.00  0.00    -0.267 OA
HETATM    4  H   UNL     1     -43.497  55.251 -52.355  1.00  0.00     0.169 HD
ENDROOT
BRANCH   1   5
HETATM    5  C   UNL     1     -43.784  57.115 -53.183  1.00  0.00     0.037 A 
HETATM    6  C   UNL     1     -44.079  56.865 -54.534  1.00  0.00     0.059 A 
HETATM    7  C   UNL     1     -44.821  57.777 -55.292  1.00  0.00     0.036 A 
HETATM    8  C   UNL     1     -45.276  58.951 -54.684  1.00  0.00     0.029 A 
HETATM    9  C   UNL     1     -44.997  59.205 -53.342  1.00  0.00     0.004 A 
HETATM   10  C   UNL     1     -44.255  58.290 -52.596  1.00  0.00     0.029 A 
BRANCH   7  11
HETATM   11  N   UNL     1     -45.149  57.595 -56.652  1.00  0.00    -0.327 N 
HETATM   12  C   UNL     1     -44.298  57.634 -57.741  1.00  0.00     0.221 C 
HETATM   13  O   UNL     1     -43.089  57.837 -57.719  1.00  0.00    -0.273 OA
HETATM   14  H   UNL     1     -46.125  57.410 -56.847  1.00  0.00     0.169 HD
BRANCH  12  15
HETATM   15  C   UNL     1     -45.019  57.395 -59.056  1.00  0.00     0.098 C 
HETATM   16  C   UNL     1     -44.224  57.908 -60.243  1.00  0.00     0.014 C 
ENDBRANCH  12  15
ENDBRANCH   7  11
ENDBRANCH   1   5
BRANCH   2  17
HETATM   17  C   UNL     1     -41.182  55.095 -51.292  1.00  0.00     0.037 A 
HETATM   18  C   UNL     1     -40.448  54.066 -51.878  1.00  0.00     0.075 A 
HETATM   19  C   UNL     1     -40.065  53.012 -51.068  1.00  0.00     0.165 A 
HETATM   20  N   UNL     1     -40.345  52.925 -49.752  1.00  0.00    -0.237 NA
HETATM   21  C   UNL     1     -41.055  53.934 -49.211  1.00  0.00     0.120 A 
HETATM   22  C   UNL     1     -41.498  55.027 -49.932  1.00  0.00     0.036 A 
BRANCH  19  23
HETATM   23  O   UNL     1     -39.353  51.992 -51.670  1.00  0.00    -0.329 OA
BRANCH  23  24
HETATM   24  C   UNL     1     -40.070  51.224 -52.662  1.00  0.00     0.130 C 
HETATM   25  C   UNL     1     -39.626  51.484 -54.126  1.00  0.00     0.032 C 
HETATM   26  C   UNL     1     -39.873  49.989 -54.397  1.00  0.00     0.005 C 
HETATM   27  C   UNL     1     -39.634  49.752 -52.894  1.00  0.00     0.032 C 
ENDBRANCH  23  24
ENDBRANCH  19  23
ENDBRANCH   2  17
TORSDOF 6
ENDMDL
MODEL 8
REMARK VINA RESULT:      -7.0      2.836      4.060
REMARK  6 active torsions:
REMARK  status: ('A' for Active; 'I' for Inactive)
REMARK    1  A    between atoms: C_2  and  C_3 
REMARK       I    between atoms: C_3  and  N_4 
REMARK    2  A    between atoms: N_4  and  C_5 
REMARK    3  A    between atoms: C_7  and  N_8 
REMARK       I    between atoms: N_8  and  C_9 
REMARK    4  A    between atoms: C_9  and  C_10 
REMARK    5  A    between atoms: C_12  and  O_13 
REMARK    6  A    between atoms: O_13  and  C_14 
ROOT
HETATM    1  N   UNL     1     -42.065  56.417 -56.994  1.00  0.00    -0.323 N 
HETATM    2  C   UNL     1     -42.389  56.629 -55.666  1.00  0.00     0.256 C 
HETATM    3  O   UNL     1     -43.149  57.486 -55.228  1.00  0.00    -0.267 OA
HETATM    4  H   UNL     1     -41.313  55.771 -57.198  1.00  0.00     0.169 HD
ENDROOT
BRANCH   1   5
HETATM    5  C   UNL     1     -42.616  57.075 -58.118  1.00  0.00     0.037 A 
HETATM    6  C   UNL     1     -42.071  58.323 -58.464  1.00  0.00     0.059 A 
HETATM    7  C   UNL     1     -42.554  59.043 -59.563  1.00  0.00     0.036 A 
HETATM    8  C   UNL     1     -43.593  58.500 -60.324  1.00  0.00     0.029 A 
HETATM    9  C   UNL     1     -44.135  57.258 -59.995  1.00  0.00     0.004 A 
HETATM   10  C   UNL     1     -43.647  56.549 -58.897  1.00  0.00     0.029 A 
BRANCH   7  11
HETATM   11  N   UNL     1     -42.060  60.302 -59.965  1.00  0.00    -0.327 N 
HETATM   12  C   UNL     1     -41.303  61.191 -59.223  1.00  0.00     0.221 C 
HETATM   13  O   UNL     1     -40.921  61.041 -58.068  1.00  0.00    -0.273 OA
HETATM   14  H   UNL     1     -42.287  60.580 -60.911  1.00  0.00     0.169 HD
BRANCH  12  15
HETATM   15  C   UNL     1     -40.959  62.452 -59.995  1.00  0.00     0.098 C 
HETATM   16  C   UNL     1     -39.648  63.063 -59.533  1.00  0.00     0.014 C 
ENDBRANCH  12  15
ENDBRANCH   7  11
ENDBRANCH   1   5
BRANCH   2  17
HETATM   17  C   UNL     1     -41.716  55.740 -54.679  1.00  0.00     0.037 A 
HETATM   18  C   UNL     1     -41.037  54.581 -55.053  1.00  0.00     0.075 A 
HETATM   19  C   UNL     1     -40.512  53.794 -54.045  1.00  0.00     0.165 A 
HETATM   20  N   UNL     1     -40.604  54.081 -52.731  1.00  0.00    -0.237 NA
HETATM   21  C   UNL     1     -41.265  55.207 -52.397  1.00  0.00     0.120 A 
HETATM   22  C   UNL     1     -41.838  56.057 -53.323  1.00  0.00     0.036 A 
BRANCH  19  23
HETATM   23  O   UNL     1     -39.858  52.640 -54.433  1.00  0.00    -0.329 OA
BRANCH  23  24
HETATM   24  C   UNL     1     -40.279  51.426 -53.773  1.00  0.00     0.130 C 
HETATM   25  C   UNL     1     -39.833  50.117 -54.478  1.00  0.00     0.032 C 
HETATM   26  C   UNL     1     -39.649  49.503 -53.078  1.00  0.00     0.005 C 
HETATM   27  C   UNL     1     -39.448  50.937 -52.555  1.00  0.00     0.032 C 
ENDBRANCH  23  24
ENDBRANCH  19  23
ENDBRANCH   2  17
TORSDOF 6
ENDMDL
MODEL 9
REMARK VINA RESULT:      -6.9      1.918      7.619
REMARK  6 active torsions:
REMARK  status: ('A' for Active; 'I' for Inactive)
REMARK    1  A    between atoms: C_2  and  C_3 
REMARK       I    between atoms: C_3  and  N_4 
REMARK    2  A    between atoms: N_4  and  C_5 
REMARK    3  A    between atoms: C_7  and  N_8 
REMARK       I    between atoms: N_8  and  C_9 
REMARK    4  A    between atoms: C_9  and  C_10 
REMARK    5  A    between atoms: C_12  and  O_13 
REMARK    6  A    between atoms: O_13  and  C_14 
ROOT
HETATM    1  N   UNL     1     -42.328  57.394 -54.101  1.00  0.00    -0.323 N 
HETATM    2  C   UNL     1     -41.718  58.576 -54.480  1.00  0.00     0.256 C 
HETATM    3  O   UNL     1     -40.811  59.151 -53.889  1.00  0.00    -0.267 OA
HETATM    4  H   UNL     1     -43.160  57.111 -54.603  1.00  0.00     0.169 HD
ENDROOT
BRANCH   1   5
HETATM    5  C   UNL     1     -41.966  56.561 -53.016  1.00  0.00     0.037 A 
HETATM    6  C   UNL     1     -41.282  55.372 -53.319  1.00  0.00     0.059 A 
HETATM    7  C   UNL     1     -40.885  54.489 -52.308  1.00  0.00     0.036 A 
HETATM    8  C   UNL     1     -41.175  54.809 -50.978  1.00  0.00     0.029 A 
HETATM    9  C   UNL     1     -41.846  55.990 -50.666  1.00  0.00     0.004 A 
HETATM   10  C   UNL     1     -42.238  56.862 -51.682  1.00  0.00     0.029 A 
BRANCH   7  11
HETATM   11  N   UNL     1     -40.201  53.277 -52.538  1.00  0.00    -0.327 N 
HETATM   12  C   UNL     1     -40.476  52.318 -53.496  1.00  0.00     0.221 C 
HETATM   13  O   UNL     1     -41.376  52.352 -54.329  1.00  0.00    -0.273 OA
HETATM   14  H   UNL     1     -39.415  53.095 -51.928  1.00  0.00     0.169 HD
BRANCH  12  15
HETATM   15  C   UNL     1     -39.520  51.140 -53.436  1.00  0.00     0.098 C 
HETATM   16  C   UNL     1     -39.902  50.046 -54.416  1.00  0.00     0.014 C 
ENDBRANCH  12  15
ENDBRANCH   7  11
ENDBRANCH   1   5
BRANCH   2  17
HETATM   17  C   UNL     1     -42.247  59.218 -55.716  1.00  0.00     0.037 A 
HETATM   18  C   UNL     1     -42.427  58.518 -56.907  1.00  0.00     0.075 A 
HETATM   19  C   UNL     1     -42.856  59.232 -58.010  1.00  0.00     0.165 A 
HETATM   20  N   UNL     1     -43.124  60.554 -58.003  1.00  0.00    -0.237 NA
HETATM   21  C   UNL     1     -42.943  61.206 -56.837  1.00  0.00     0.120 A 
HETATM   22  C   UNL     1     -42.505  60.591 -55.680  1.00  0.00     0.036 A 
BRANCH  19  23
HETATM   23  O   UNL     1     -43.011  58.525 -59.188  1.00  0.00    -0.329 OA
BRANCH  23  24
HETATM   24  C   UNL     1     -43.566  57.197 -59.056  1.00  0.00     0.130 C 
HETATM   25  C   UNL     1     -44.640  56.836 -60.117  1.00  0.00     0.032 C 
HETATM   26  C   UNL     1     -44.078  55.403 -60.102  1.00  0.00     0.005 C 
HETATM   27  C   UNL     1     -42.745  56.009 -59.624  1.00  0.00     0.032 C 
ENDBRANCH  23  24
ENDBRANCH  19  23
ENDBRANCH   2  17
TORSDOF 6
ENDMDL
MODEL 10
REMARK VINA RESULT:      -6.8      2.713      4.565
REMARK  6 active torsions:
REMARK  status: ('A' for Active; 'I' for Inactive)
REMARK    1  A    between atoms: C_2  and  C_3 
REMARK       I    between atoms: C_3  and  N_4 
REMARK    2  A    between atoms: N_4  and  C_5 
REMARK    3  A    between atoms: C_7  and  N_8 
REMARK       I    between atoms: N_8  and  C_9 
REMARK    4  A    between atoms: C_9  and  C_10 
REMARK    5  A    between atoms: C_12  and  O_13 
REMARK    6  A    between atoms: O_13  and  C_14 
ROOT
HETATM    1  N   UNL     1     -42.212  55.663 -56.973  1.00  0.00    -0.323 N 
HETATM    2  C   UNL     1     -42.109  55.981 -55.631  1.00  0.00     0.256 C 
HETATM    3  O   UNL     1     -42.362  57.065 -55.117  1.00  0.00    -0.267 OA
HETATM    4  H   UNL     1     -41.832  54.776 -57.278  1.00  0.00     0.169 HD
ENDROOT
BRANCH   1   5
HETATM    5  C   UNL     1     -42.722  56.485 -58.005  1.00  0.00     0.037 A 
HETATM    6  C   UNL     1     -42.108  57.735 -58.194  1.00  0.00     0.059 A 
HETATM    7  C   UNL     1     -42.547  58.611 -59.192  1.00  0.00     0.036 A 
HETATM    8  C   UNL     1     -43.612  58.226 -60.012  1.00  0.00     0.029 A 
HETATM    9  C   UNL     1     -44.223  56.985 -59.837  1.00  0.00     0.004 A 
HETATM   10  C   UNL     1     -43.779  56.119 -58.839  1.00  0.00     0.029 A 
BRANCH   7  11
HETATM   11  N   UNL     1     -41.983  59.882 -59.436  1.00  0.00    -0.327 N 
HETATM   12  C   UNL     1     -41.402  60.740 -58.521  1.00  0.00     0.221 C 
HETATM   13  O   UNL     1     -41.272  60.547 -57.316  1.00  0.00    -0.273 OA
HETATM   14  H   UNL     1     -42.005  60.194 -60.398  1.00  0.00     0.169 HD
BRANCH  12  15
HETATM   15  C   UNL     1     -40.906  62.026 -59.157  1.00  0.00     0.098 C 
HETATM   16  C   UNL     1     -40.991  61.982 -60.672  1.00  0.00     0.014 C 
ENDBRANCH  12  15
ENDBRANCH   7  11
ENDBRANCH   1   5
BRANCH   2  17
HETATM   17  C   UNL     1     -41.609  54.898 -54.739  1.00  0.00     0.037 A 
HETATM   18  C   UNL     1     -42.018  54.770 -53.412  1.00  0.00     0.075 A 
HETATM   19  C   UNL     1     -41.433  53.770 -52.656  1.00  0.00     0.165 A 
HETATM   20  N   UNL     1     -40.508  52.907 -53.123  1.00  0.00    -0.237 NA
HETATM   21  C   UNL     1     -40.132  53.053 -54.409  1.00  0.00     0.120 A 
HETATM   22  C   UNL     1     -40.643  54.026 -55.247  1.00  0.00     0.036 A 
BRANCH  19  23
HETATM   23  O   UNL     1     -41.837  53.669 -51.339  1.00  0.00    -0.329 OA
BRANCH  23  24
HETATM   24  C   UNL     1     -40.855  54.053 -50.349  1.00  0.00     0.130 C 
HETATM   25  C   UNL     1     -41.401  54.959 -49.214  1.00  0.00     0.032 C 
HETATM   26  C   UNL     1     -40.454  54.215 -48.255  1.00  0.00     0.005 C 
HETATM   27  C   UNL     1     -40.512  53.029 -49.234  1.00  0.00     0.032 C 
ENDBRANCH  23  24
ENDBRANCH  19  23
ENDBRANCH   2  17
TORSDOF 6
ENDMDL
