MODEL 1
REMARK VINA RESULT:      -8.5      0.000      0.000
REMARK  7 active torsions:
REMARK  status: ('A' for Active; 'I' for Inactive)
REMARK    1  A    between atoms: C_2  and  O_3 
REMARK    2  A    between atoms: O_3  and  C_4 
REMARK       I    between atoms: C_4  and  N_5 
REMARK       I    between atoms: N_8  and  C_9 
REMARK    3  A    between atoms: C_9  and  C_10 
REMARK    4  A    between atoms: C_11  and  N_12 
REMARK       I    between atoms: N_12  and  C_13 
REMARK    5  A    between atoms: C_13  and  C_14 
REMARK    6  A    between atoms: N_16  and  C_17 
REMARK    7  A    between atoms: C_18  and  O_19 
ROOT
HETATM    1  C   UNL     1     -43.388  59.792 -52.007  1.00  0.00     0.059 A 
HETATM    2  C   UNL     1     -42.416  58.779 -52.029  1.00  0.00     0.050 A 
HETATM    3  C   UNL     1     -41.316  58.882 -51.157  1.00  0.00     0.030 A 
HETATM    4  C   UNL     1     -41.196  59.951 -50.265  1.00  0.00     0.002 A 
HETATM    5  C   UNL     1     -42.154  60.956 -50.254  1.00  0.00     0.001 A 
HETATM    6  C   UNL     1     -43.233  60.889 -51.135  1.00  0.00     0.019 A 
ENDROOT
BRANCH   2   7
HETATM    7  N   UNL     1     -42.374  57.684 -52.917  1.00  0.00    -0.326 N 
HETATM    8  C   UNL     1     -43.239  56.611 -52.981  1.00  0.00     0.228 C 
HETATM    9  O   UNL     1     -43.950  56.233 -52.053  1.00  0.00    -0.273 OA
HETATM   10  H   UNL     1     -41.550  57.636 -53.505  1.00  0.00     0.169 HD
BRANCH   8  11
HETATM   11  C   UNL     1     -43.249  55.877 -54.328  1.00  0.00     0.105 C 
HETATM   12  C   UNL     1     -43.058  54.376 -54.203  1.00  0.00     0.147 C 
HETATM   13  N   UNL     1     -41.618  54.222 -54.203  1.00  0.00    -0.315 N 
HETATM   14  C   UNL     1     -40.994  55.312 -54.827  1.00  0.00     0.225 C 
HETATM   15  O   UNL     1     -39.808  55.460 -55.074  1.00  0.00    -0.273 OA
HETATM   16  C   UNL     1     -42.069  56.310 -55.193  1.00  0.00     0.119 C 
BRANCH  13  17
HETATM   17  C   UNL     1     -40.956  53.181 -53.499  1.00  0.00     0.071 A 
HETATM   18  C   UNL     1     -40.509  53.333 -52.175  1.00  0.00     0.095 A 
HETATM   19  C   UNL     1     -39.722  52.350 -51.567  1.00  0.00     0.039 A 
HETATM   20  C   UNL     1     -39.393  51.187 -52.260  1.00  0.00     0.009 A 
HETATM   21  C   UNL     1     -39.867  50.987 -53.558  1.00  0.00    -0.060 A 
HETATM   22  C   UNL     1     -39.464  49.770 -54.340  1.00  0.00     0.048 C 
HETATM   23  C   UNL     1     -40.650  51.982 -54.163  1.00  0.00     0.039 A 
BRANCH  18  24
HETATM   24  O   UNL     1     -40.840  54.459 -51.459  1.00  0.00    -0.354 OA
HETATM   25  C   UNL     1     -41.726  54.129 -50.385  1.00  0.00     0.210 C 
ENDBRANCH  18  24
ENDBRANCH  13  17
ENDBRANCH   8  11
ENDBRANCH   2   7
BRANCH   1  26
HETATM   26  C   UNL     1     -44.459  59.917 -53.024  1.00  0.00     0.256 C 
HETATM   27  N   UNL     1     -44.113  60.271 -54.322  1.00  0.00    -0.345 N 
HETATM   28  C   UNL     1     -42.814  60.782 -54.770  1.00  0.00     0.146 C 
HETATM   29  C   UNL     1     -45.134  60.284 -55.366  1.00  0.00     0.146 C 
HETATM   30  C   UNL     1     -42.301  59.950 -55.951  1.00  0.00     0.148 C 
HETATM   31  N   UNL     1     -43.301  59.795 -57.012  1.00  0.00    -0.325 N 
HETATM   32  C   UNL     1     -42.840  59.431 -58.269  1.00  0.00     0.362 C 
HETATM   33  C   UNL     1     -44.674  59.476 -56.587  1.00  0.00     0.148 C 
HETATM   34  O   UNL     1     -41.653  59.385 -58.570  1.00  0.00    -0.238 OA
HETATM   35  O   UNL     1     -45.602  59.609 -52.687  1.00  0.00    -0.267 OA
BRANCH  32  36
HETATM   36  O   UNL     1     -43.852  59.131 -59.128  1.00  0.00    -0.304 OA
BRANCH  36  37
HETATM   37  C   UNL     1     -43.703  57.918 -59.878  1.00  0.00     0.176 C 
HETATM   38  C   UNL     1     -43.775  56.708 -58.965  1.00  0.00     0.034 C 
ENDBRANCH  36  37
ENDBRANCH  32  36
ENDBRANCH   1  26
TORSDOF 7
ENDMDL
MODEL 2
REMARK VINA RESULT:      -8.3      2.048      3.366
REMARK  7 active torsions:
REMARK  status: ('A' for Active; 'I' for Inactive)
REMARK    1  A    between atoms: C_2  and  O_3 
REMARK    2  A    between atoms: O_3  and  C_4 
REMARK       I    between atoms: C_4  and  N_5 
REMARK       I    between atoms: N_8  and  C_9 
REMARK    3  A    between atoms: C_9  and  C_10 
REMARK    4  A    between atoms: C_11  and  N_12 
REMARK       I    between atoms: N_12  and  C_13 
REMARK    5  A    between atoms: C_13  and  C_14 
REMARK    6  A    between atoms: N_16  and  C_17 
REMARK    7  A    between atoms: C_18  and  O_19 
ROOT
HETATM    1  C   UNL     1     -42.915  59.292 -53.865  1.00  0.00     0.059 A 
HETATM    2  C   UNL     1     -42.982  59.149 -52.469  1.00  0.00     0.050 A 
HETATM    3  C   UNL     1     -43.043  60.310 -51.677  1.00  0.00     0.030 A 
HETATM    4  C   UNL     1     -43.064  61.582 -52.253  1.00  0.00     0.002 A 
HETATM    5  C   UNL     1     -42.987  61.719 -53.633  1.00  0.00     0.001 A 
HETATM    6  C   UNL     1     -42.890  60.582 -54.434  1.00  0.00     0.019 A 
ENDROOT
BRANCH   2   7
HETATM    7  N   UNL     1     -42.904  57.938 -51.751  1.00  0.00    -0.326 N 
HETATM    8  C   UNL     1     -41.771  57.278 -51.323  1.00  0.00     0.228 C 
HETATM    9  O   UNL     1     -40.654  57.423 -51.811  1.00  0.00    -0.273 OA
HETATM   10  H   UNL     1     -43.785  57.450 -51.631  1.00  0.00     0.169 HD
BRANCH   8  11
HETATM   11  C   UNL     1     -42.001  56.300 -50.163  1.00  0.00     0.105 C 
HETATM   12  C   UNL     1     -40.997  55.161 -50.121  1.00  0.00     0.147 C 
HETATM   13  N   UNL     1     -41.588  54.165 -50.992  1.00  0.00    -0.315 N 
HETATM   14  C   UNL     1     -42.976  54.340 -51.091  1.00  0.00     0.225 C 
HETATM   15  O   UNL     1     -43.785  53.630 -51.666  1.00  0.00    -0.273 OA
HETATM   16  C   UNL     1     -43.339  55.583 -50.312  1.00  0.00     0.119 C 
BRANCH  13  17
HETATM   17  C   UNL     1     -40.810  53.262 -51.765  1.00  0.00     0.071 A 
HETATM   18  C   UNL     1     -40.630  53.418 -53.150  1.00  0.00     0.095 A 
HETATM   19  C   UNL     1     -39.995  52.427 -53.906  1.00  0.00     0.039 A 
HETATM   20  C   UNL     1     -39.504  51.279 -53.287  1.00  0.00     0.009 A 
HETATM   21  C   UNL     1     -39.623  51.123 -51.904  1.00  0.00    -0.060 A 
HETATM   22  C   UNL     1     -39.160  49.862 -51.235  1.00  0.00     0.048 C 
HETATM   23  C   UNL     1     -40.269  52.119 -51.155  1.00  0.00     0.039 A 
BRANCH  18  24
HETATM   24  O   UNL     1     -41.081  54.552 -53.782  1.00  0.00    -0.354 OA
HETATM   25  C   UNL     1     -42.100  54.226 -54.732  1.00  0.00     0.210 C 
ENDBRANCH  18  24
ENDBRANCH  13  17
ENDBRANCH   8  11
ENDBRANCH   2   7
BRANCH   1  26
HETATM   26  C   UNL     1     -42.617  58.169 -54.786  1.00  0.00     0.256 C 
HETATM   27  N   UNL     1     -43.619  57.712 -55.632  1.00  0.00    -0.345 N 
HETATM   28  C   UNL     1     -45.043  58.052 -55.560  1.00  0.00     0.146 C 
HETATM   29  C   UNL     1     -43.316  56.689 -56.629  1.00  0.00     0.146 C 
HETATM   30  C   UNL     1     -45.533  58.553 -56.924  1.00  0.00     0.148 C 
HETATM   31  N   UNL     1     -45.170  57.653 -58.023  1.00  0.00    -0.325 N 
HETATM   32  C   UNL     1     -45.885  57.774 -59.205  1.00  0.00     0.362 C 
HETATM   33  C   UNL     1     -43.795  57.125 -58.020  1.00  0.00     0.148 C 
HETATM   34  O   UNL     1     -46.885  58.472 -59.325  1.00  0.00    -0.238 OA
HETATM   35  O   UNL     1     -41.459  57.754 -54.820  1.00  0.00    -0.267 OA
BRANCH  32  36
HETATM   36  O   UNL     1     -45.353  57.033 -60.214  1.00  0.00    -0.304 OA
BRANCH  36  37
HETATM   37  C   UNL     1     -46.015  55.794 -60.502  1.00  0.00     0.176 C 
HETATM   38  C   UNL     1     -45.061  54.624 -60.341  1.00  0.00     0.034 C 
ENDBRANCH  36  37
ENDBRANCH  32  36
ENDBRANCH   1  26
TORSDOF 7
ENDMDL
MODEL 3
REMARK VINA RESULT:      -8.3      2.643      6.092
REMARK  7 active torsions:
REMARK  status: ('A' for Active; 'I' for Inactive)
REMARK    1  A    between atoms: C_2  and  O_3 
REMARK    2  A    between atoms: O_3  and  C_4 
REMARK       I    between atoms: C_4  and  N_5 
REMARK       I    between atoms: N_8  and  C_9 
REMARK    3  A    between atoms: C_9  and  C_10 
REMARK    4  A    between atoms: C_11  and  N_12 
REMARK       I    between atoms: N_12  and  C_13 
REMARK    5  A    between atoms: C_13  and  C_14 
REMARK    6  A    between atoms: N_16  and  C_17 
REMARK    7  A    between atoms: C_18  and  O_19 
ROOT
HETATM    1  C   UNL     1     -43.733  59.690 -54.180  1.00  0.00     0.059 A 
HETATM    2  C   UNL     1     -44.007  58.321 -54.034  1.00  0.00     0.050 A 
HETATM    3  C   UNL     1     -44.919  57.719 -54.921  1.00  0.00     0.030 A 
HETATM    4  C   UNL     1     -45.524  58.451 -55.946  1.00  0.00     0.002 A 
HETATM    5  C   UNL     1     -45.257  59.807 -56.080  1.00  0.00     0.001 A 
HETATM    6  C   UNL     1     -44.384  60.429 -55.189  1.00  0.00     0.019 A 
ENDROOT
BRANCH   2   7
HETATM    7  N   UNL     1     -43.524  57.479 -53.011  1.00  0.00    -0.326 N 
HETATM    8  C   UNL     1     -42.211  57.210 -52.685  1.00  0.00     0.228 C 
HETATM    9  O   UNL     1     -41.259  57.349 -53.450  1.00  0.00    -0.273 OA
HETATM   10  H   UNL     1     -44.230  56.931 -52.533  1.00  0.00     0.169 HD
BRANCH   8  11
HETATM   11  C   UNL     1     -42.000  56.692 -51.256  1.00  0.00     0.105 C 
HETATM   12  C   UNL     1     -40.856  55.700 -51.132  1.00  0.00     0.147 C 
HETATM   13  N   UNL     1     -41.484  54.429 -51.432  1.00  0.00    -0.315 N 
HETATM   14  C   UNL     1     -42.865  54.477 -51.187  1.00  0.00     0.225 C 
HETATM   15  O   UNL     1     -43.672  53.564 -51.251  1.00  0.00    -0.273 OA
HETATM   16  C   UNL     1     -43.210  55.892 -50.783  1.00  0.00     0.119 C 
BRANCH  13  17
HETATM   17  C   UNL     1     -40.791  53.358 -52.057  1.00  0.00     0.071 A 
HETATM   18  C   UNL     1     -40.655  53.261 -53.452  1.00  0.00     0.095 A 
HETATM   19  C   UNL     1     -40.109  52.116 -54.042  1.00  0.00     0.039 A 
HETATM   20  C   UNL     1     -39.663  51.063 -53.246  1.00  0.00     0.009 A 
HETATM   21  C   UNL     1     -39.737  51.155 -51.855  1.00  0.00    -0.060 A 
HETATM   22  C   UNL     1     -39.322  50.001 -50.989  1.00  0.00     0.048 C 
HETATM   23  C   UNL     1     -40.294  52.305 -51.272  1.00  0.00     0.039 A 
BRANCH  18  24
HETATM   24  O   UNL     1     -41.064  54.296 -54.260  1.00  0.00    -0.354 OA
HETATM   25  C   UNL     1     -42.326  53.995 -54.862  1.00  0.00     0.210 C 
ENDBRANCH  18  24
ENDBRANCH  13  17
ENDBRANCH   8  11
ENDBRANCH   2   7
BRANCH   1  26
HETATM   26  C   UNL     1     -42.979  60.482 -53.178  1.00  0.00     0.256 C 
HETATM   27  N   UNL     1     -43.659  61.005 -52.086  1.00  0.00    -0.345 N 
HETATM   28  C   UNL     1     -45.114  61.074 -51.917  1.00  0.00     0.146 C 
HETATM   29  C   UNL     1     -42.919  61.685 -51.028  1.00  0.00     0.146 C 
HETATM   30  C   UNL     1     -45.517  60.452 -50.575  1.00  0.00     0.148 C 
HETATM   31  N   UNL     1     -44.741  60.981 -49.449  1.00  0.00    -0.325 N 
HETATM   32  C   UNL     1     -45.271  60.813 -48.178  1.00  0.00     0.362 C 
HETATM   33  C   UNL     1     -43.288  61.116 -49.652  1.00  0.00     0.148 C 
HETATM   34  O   UNL     1     -46.403  60.395 -47.965  1.00  0.00    -0.238 OA
HETATM   35  O   UNL     1     -41.758  60.561 -53.318  1.00  0.00    -0.267 OA
BRANCH  32  36
HETATM   36  O   UNL     1     -44.396  61.165 -47.198  1.00  0.00    -0.304 OA
BRANCH  36  37
HETATM   37  C   UNL     1     -44.955  61.347 -45.890  1.00  0.00     0.176 C 
HETATM   38  C   UNL     1     -45.348  62.797 -45.668  1.00  0.00     0.034 C 
ENDBRANCH  36  37
ENDBRANCH  32  36
ENDBRANCH   1  26
TORSDOF 7
ENDMDL
MODEL 4
REMARK VINA RESULT:      -8.2      3.051      5.624
REMARK  7 active torsions:
REMARK  status: ('A' for Active; 'I' for Inactive)
REMARK    1  A    between atoms: C_2  and  O_3 
REMARK    2  A    between atoms: O_3  and  C_4 
REMARK       I    between atoms: C_4  and  N_5 
REMARK       I    between atoms: N_8  and  C_9 
REMARK    3  A    between atoms: C_9  and  C_10 
REMARK    4  A    between atoms: C_11  and  N_12 
REMARK       I    between atoms: N_12  and  C_13 
REMARK    5  A    between atoms: C_13  and  C_14 
REMARK    6  A    between atoms: N_16  and  C_17 
REMARK    7  A    between atoms: C_18  and  O_19 
ROOT
HETATM    1  C   UNL     1     -42.959  59.337 -51.495  1.00  0.00     0.059 A 
HETATM    2  C   UNL     1     -42.499  58.069 -51.884  1.00  0.00     0.050 A 
HETATM    3  C   UNL     1     -41.245  57.635 -51.416  1.00  0.00     0.030 A 
HETATM    4  C   UNL     1     -40.476  58.428 -50.562  1.00  0.00     0.002 A 
HETATM    5  C   UNL     1     -40.929  59.686 -50.188  1.00  0.00     0.001 A 
HETATM    6  C   UNL     1     -42.153  60.148 -50.669  1.00  0.00     0.019 A 
ENDROOT
BRANCH   2   7
HETATM    7  N   UNL     1     -43.136  57.194 -52.788  1.00  0.00    -0.326 N 
HETATM    8  C   UNL     1     -42.886  57.040 -54.136  1.00  0.00     0.228 C 
HETATM    9  O   UNL     1     -42.350  57.886 -54.847  1.00  0.00    -0.273 OA
HETATM   10  H   UNL     1     -43.938  56.698 -52.417  1.00  0.00     0.169 HD
BRANCH   8  11
HETATM   11  C   UNL     1     -43.352  55.701 -54.724  1.00  0.00     0.105 C 
HETATM   12  C   UNL     1     -43.173  54.527 -53.777  1.00  0.00     0.147 C 
HETATM   13  N   UNL     1     -41.815  54.094 -54.036  1.00  0.00    -0.315 N 
HETATM   14  C   UNL     1     -41.396  54.485 -55.317  1.00  0.00     0.225 C 
HETATM   15  O   UNL     1     -40.350  54.210 -55.882  1.00  0.00    -0.273 OA
HETATM   16  C   UNL     1     -42.503  55.311 -55.930  1.00  0.00     0.119 C 
BRANCH  13  17
HETATM   17  C   UNL     1     -40.991  53.512 -53.037  1.00  0.00     0.071 A 
HETATM   18  C   UNL     1     -40.489  52.203 -53.143  1.00  0.00     0.095 A 
HETATM   19  C   UNL     1     -39.816  51.604 -52.072  1.00  0.00     0.039 A 
HETATM   20  C   UNL     1     -39.608  52.313 -50.891  1.00  0.00     0.009 A 
HETATM   21  C   UNL     1     -40.050  53.633 -50.778  1.00  0.00    -0.060 A 
HETATM   22  C   UNL     1     -39.892  54.384 -49.487  1.00  0.00     0.048 C 
HETATM   23  C   UNL     1     -40.731  54.223 -51.855  1.00  0.00     0.039 A 
BRANCH  18  24
HETATM   24  O   UNL     1     -40.657  51.490 -54.306  1.00  0.00    -0.354 OA
HETATM   25  C   UNL     1     -40.066  50.193 -54.191  1.00  0.00     0.210 C 
ENDBRANCH  18  24
ENDBRANCH  13  17
ENDBRANCH   8  11
ENDBRANCH   2   7
BRANCH   1  26
HETATM   26  C   UNL     1     -44.142  59.996 -52.098  1.00  0.00     0.256 C 
HETATM   27  N   UNL     1     -45.186  60.388 -51.269  1.00  0.00    -0.345 N 
HETATM   28  C   UNL     1     -45.374  60.011 -49.866  1.00  0.00     0.146 C 
HETATM   29  C   UNL     1     -46.306  61.144 -51.823  1.00  0.00     0.146 C 
HETATM   30  C   UNL     1     -45.577  61.264 -49.006  1.00  0.00     0.148 C 
HETATM   31  N   UNL     1     -46.604  62.161 -49.545  1.00  0.00    -0.325 N 
HETATM   32  C   UNL     1     -47.156  63.090 -48.675  1.00  0.00     0.362 C 
HETATM   33  C   UNL     1     -46.571  62.410 -50.996  1.00  0.00     0.148 C 
HETATM   34  O   UNL     1     -46.947  63.096 -47.467  1.00  0.00    -0.238 OA
HETATM   35  O   UNL     1     -44.101  60.247 -53.302  1.00  0.00    -0.267 OA
BRANCH  32  36
HETATM   36  O   UNL     1     -47.953  63.990 -49.311  1.00  0.00    -0.304 OA
BRANCH  36  37
HETATM   37  C   UNL     1     -49.355  63.905 -49.019  1.00  0.00     0.176 C 
HETATM   38  C   UNL     1     -50.146  63.565 -50.270  1.00  0.00     0.034 C 
ENDBRANCH  36  37
ENDBRANCH  32  36
ENDBRANCH   1  26
TORSDOF 7
ENDMDL
MODEL 5
REMARK VINA RESULT:      -8.2      2.161      3.374
REMARK  7 active torsions:
REMARK  status: ('A' for Active; 'I' for Inactive)
REMARK    1  A    between atoms: C_2  and  O_3 
REMARK    2  A    between atoms: O_3  and  C_4 
REMARK       I    between atoms: C_4  and  N_5 
REMARK       I    between atoms: N_8  and  C_9 
REMARK    3  A    between atoms: C_9  and  C_10 
REMARK    4  A    between atoms: C_11  and  N_12 
REMARK       I    between atoms: N_12  and  C_13 
REMARK    5  A    between atoms: C_13  and  C_14 
REMARK    6  A    between atoms: N_16  and  C_17 
REMARK    7  A    between atoms: C_18  and  O_19 
ROOT
HETATM    1  C   UNL     1     -42.585  59.336 -52.984  1.00  0.00     0.059 A 
HETATM    2  C   UNL     1     -42.818  58.935 -51.658  1.00  0.00     0.050 A 
HETATM    3  C   UNL     1     -43.260  59.898 -50.732  1.00  0.00     0.030 A 
HETATM    4  C   UNL     1     -43.493  61.221 -51.117  1.00  0.00     0.002 A 
HETATM    5  C   UNL     1     -43.252  61.615 -52.426  1.00  0.00     0.001 A 
HETATM    6  C   UNL     1     -42.780  60.683 -53.350  1.00  0.00     0.019 A 
ENDROOT
BRANCH   2   7
HETATM    7  N   UNL     1     -42.564  57.658 -51.117  1.00  0.00    -0.326 N 
HETATM    8  C   UNL     1     -41.371  57.165 -50.631  1.00  0.00     0.228 C 
HETATM    9  O   UNL     1     -40.263  57.602 -50.929  1.00  0.00    -0.273 OA
HETATM   10  H   UNL     1     -43.329  56.997 -51.194  1.00  0.00     0.169 HD
BRANCH   8  11
HETATM   11  C   UNL     1     -41.515  55.979 -49.667  1.00  0.00     0.105 C 
HETATM   12  C   UNL     1     -40.626  54.799 -50.020  1.00  0.00     0.147 C 
HETATM   13  N   UNL     1     -41.429  54.047 -50.963  1.00  0.00    -0.315 N 
HETATM   14  C   UNL     1     -42.795  54.321 -50.793  1.00  0.00     0.225 C 
HETATM   15  O   UNL     1     -43.742  53.798 -51.357  1.00  0.00    -0.273 OA
HETATM   16  C   UNL     1     -42.921  55.391 -49.733  1.00  0.00     0.119 C 
BRANCH  13  17
HETATM   17  C   UNL     1     -40.863  53.284 -52.017  1.00  0.00     0.071 A 
HETATM   18  C   UNL     1     -40.171  52.081 -51.790  1.00  0.00     0.095 A 
HETATM   19  C   UNL     1     -39.488  51.439 -52.829  1.00  0.00     0.039 A 
HETATM   20  C   UNL     1     -39.510  51.972 -54.116  1.00  0.00     0.009 A 
HETATM   21  C   UNL     1     -40.233  53.136 -54.381  1.00  0.00    -0.060 A 
HETATM   22  C   UNL     1     -40.210  53.756 -55.748  1.00  0.00     0.048 C 
HETATM   23  C   UNL     1     -40.909  53.778 -53.331  1.00  0.00     0.039 A 
BRANCH  18  24
HETATM   24  O   UNL     1     -40.154  51.521 -50.535  1.00  0.00    -0.354 OA
HETATM   25  C   UNL     1     -39.815  50.133 -50.609  1.00  0.00     0.210 C 
ENDBRANCH  18  24
ENDBRANCH  13  17
ENDBRANCH   8  11
ENDBRANCH   2   7
BRANCH   1  26
HETATM   26  C   UNL     1     -41.905  58.481 -53.987  1.00  0.00     0.256 C 
HETATM   27  N   UNL     1     -42.678  57.763 -54.890  1.00  0.00    -0.345 N 
HETATM   28  C   UNL     1     -44.128  57.554 -54.824  1.00  0.00     0.146 C 
HETATM   29  C   UNL     1     -42.030  57.010 -55.960  1.00  0.00     0.146 C 
HETATM   30  C   UNL     1     -44.777  57.955 -56.154  1.00  0.00     0.148 C 
HETATM   31  N   UNL     1     -44.120  57.345 -57.313  1.00  0.00    -0.325 N 
HETATM   32  C   UNL     1     -44.839  57.298 -58.498  1.00  0.00     0.362 C 
HETATM   33  C   UNL     1     -42.647  57.357 -57.321  1.00  0.00     0.148 C 
HETATM   34  O   UNL     1     -46.026  57.590 -58.584  1.00  0.00    -0.238 OA
HETATM   35  O   UNL     1     -40.676  58.521 -54.027  1.00  0.00    -0.267 OA
BRANCH  32  36
HETATM   36  O   UNL     1     -44.081  56.890 -59.552  1.00  0.00    -0.304 OA
BRANCH  36  37
HETATM   37  C   UNL     1     -44.151  55.494 -59.874  1.00  0.00     0.176 C 
HETATM   38  C   UNL     1     -45.071  55.260 -61.059  1.00  0.00     0.034 C 
ENDBRANCH  36  37
ENDBRANCH  32  36
ENDBRANCH   1  26
TORSDOF 7
ENDMDL
MODEL 6
REMARK VINA RESULT:      -8.1      2.705      8.131
REMARK  7 active torsions:
REMARK  status: ('A' for Active; 'I' for Inactive)
REMARK    1  A    between atoms: C_2  and  O_3 
REMARK    2  A    between atoms: O_3  and  C_4 
REMARK       I    between atoms: C_4  and  N_5 
REMARK       I    between atoms: N_8  and  C_9 
REMARK    3  A    between atoms: C_9  and  C_10 
REMARK    4  A    between atoms: C_11  and  N_12 
REMARK       I    between atoms: N_12  and  C_13 
REMARK    5  A    between atoms: C_13  and  C_14 
REMARK    6  A    between atoms: N_16  and  C_17 
REMARK    7  A    between atoms: C_18  and  O_19 
ROOT
HETATM    1  C   UNL     1     -41.365  56.366 -53.663  1.00  0.00     0.059 A 
HETATM    2  C   UNL     1     -41.551  55.938 -54.988  1.00  0.00     0.050 A 
HETATM    3  C   UNL     1     -41.451  54.563 -55.270  1.00  0.00     0.030 A 
HETATM    4  C   UNL     1     -41.198  53.631 -54.260  1.00  0.00     0.002 A 
HETATM    5  C   UNL     1     -41.005  54.061 -52.954  1.00  0.00     0.001 A 
HETATM    6  C   UNL     1     -41.066  55.422 -52.660  1.00  0.00     0.019 A 
ENDROOT
BRANCH   2   7
HETATM    7  N   UNL     1     -41.746  56.767 -56.112  1.00  0.00    -0.326 N 
HETATM    8  C   UNL     1     -42.923  57.337 -56.550  1.00  0.00     0.228 C 
HETATM    9  O   UNL     1     -44.045  56.922 -56.272  1.00  0.00    -0.273 OA
HETATM   10  H   UNL     1     -40.941  56.865 -56.720  1.00  0.00     0.169 HD
BRANCH   8  11
HETATM   11  C   UNL     1     -42.740  58.561 -57.458  1.00  0.00     0.105 C 
HETATM   12  C   UNL     1     -44.034  59.047 -58.089  1.00  0.00     0.147 C 
HETATM   13  N   UNL     1     -44.137  58.249 -59.294  1.00  0.00    -0.315 N 
HETATM   14  C   UNL     1     -42.877  57.786 -59.702  1.00  0.00     0.225 C 
HETATM   15  O   UNL     1     -42.597  57.167 -60.716  1.00  0.00    -0.273 OA
HETATM   16  C   UNL     1     -41.869  58.220 -58.663  1.00  0.00     0.119 C 
BRANCH  13  17
HETATM   17  C   UNL     1     -45.383  57.862 -59.854  1.00  0.00     0.071 A 
HETATM   18  C   UNL     1     -45.790  56.519 -59.932  1.00  0.00     0.095 A 
HETATM   19  C   UNL     1     -46.946  56.159 -60.633  1.00  0.00     0.039 A 
HETATM   20  C   UNL     1     -47.730  57.138 -61.241  1.00  0.00     0.009 A 
HETATM   21  C   UNL     1     -47.378  58.485 -61.134  1.00  0.00    -0.060 A 
HETATM   22  C   UNL     1     -48.177  59.541 -61.841  1.00  0.00     0.048 C 
HETATM   23  C   UNL     1     -46.212  58.836 -60.436  1.00  0.00     0.039 A 
BRANCH  18  24
HETATM   24  O   UNL     1     -45.049  55.537 -59.320  1.00  0.00    -0.354 OA
HETATM   25  C   UNL     1     -44.954  54.382 -60.160  1.00  0.00     0.210 C 
ENDBRANCH  18  24
ENDBRANCH  13  17
ENDBRANCH   8  11
ENDBRANCH   2   7
BRANCH   1  26
HETATM   26  C   UNL     1     -41.218  57.791 -53.280  1.00  0.00     0.256 C 
HETATM   27  N   UNL     1     -42.342  58.493 -52.866  1.00  0.00    -0.345 N 
HETATM   28  C   UNL     1     -43.736  58.058 -52.989  1.00  0.00     0.146 C 
HETATM   29  C   UNL     1     -42.201  59.860 -52.372  1.00  0.00     0.146 C 
HETATM   30  C   UNL     1     -44.437  58.150 -51.629  1.00  0.00     0.148 C 
HETATM   31  N   UNL     1     -44.254  59.454 -50.983  1.00  0.00    -0.325 N 
HETATM   32  C   UNL     1     -45.148  59.795 -49.979  1.00  0.00     0.362 C 
HETATM   33  C   UNL     1     -42.896  60.022 -51.013  1.00  0.00     0.148 C 
HETATM   34  O   UNL     1     -46.155  59.148 -49.717  1.00  0.00    -0.238 OA
HETATM   35  O   UNL     1     -40.080  58.259 -53.261  1.00  0.00    -0.267 OA
BRANCH  32  36
HETATM   36  O   UNL     1     -44.783  60.929 -49.320  1.00  0.00    -0.304 OA
BRANCH  36  37
HETATM   37  C   UNL     1     -45.819  61.586 -48.578  1.00  0.00     0.176 C 
HETATM   38  C   UNL     1     -45.454  61.676 -47.107  1.00  0.00     0.034 C 
ENDBRANCH  36  37
ENDBRANCH  32  36
ENDBRANCH   1  26
TORSDOF 7
ENDMDL
MODEL 7
REMARK VINA RESULT:      -8.1      1.402      5.154
REMARK  7 active torsions:
REMARK  status: ('A' for Active; 'I' for Inactive)
REMARK    1  A    between atoms: C_2  and  O_3 
REMARK    2  A    between atoms: O_3  and  C_4 
REMARK       I    between atoms: C_4  and  N_5 
REMARK       I    between atoms: N_8  and  C_9 
REMARK    3  A    between atoms: C_9  and  C_10 
REMARK    4  A    between atoms: C_11  and  N_12 
REMARK       I    between atoms: N_12  and  C_13 
REMARK    5  A    between atoms: C_13  and  C_14 
REMARK    6  A    between atoms: N_16  and  C_17 
REMARK    7  A    between atoms: C_18  and  O_19 
ROOT
HETATM    1  C   UNL     1     -42.630  57.855 -58.263  1.00  0.00     0.059 A 
HETATM    2  C   UNL     1     -42.921  56.720 -57.490  1.00  0.00     0.050 A 
HETATM    3  C   UNL     1     -43.475  55.595 -58.128  1.00  0.00     0.030 A 
HETATM    4  C   UNL     1     -43.710  55.585 -59.505  1.00  0.00     0.002 A 
HETATM    5  C   UNL     1     -43.430  56.714 -60.264  1.00  0.00     0.001 A 
HETATM    6  C   UNL     1     -42.913  57.850 -59.644  1.00  0.00     0.019 A 
ENDROOT
BRANCH   2   7
HETATM    7  N   UNL     1     -42.799  56.612 -56.089  1.00  0.00    -0.326 N 
HETATM    8  C   UNL     1     -41.860  55.899 -55.373  1.00  0.00     0.228 C 
HETATM    9  O   UNL     1     -41.220  54.948 -55.815  1.00  0.00    -0.273 OA
HETATM   10  H   UNL     1     -43.554  57.027 -55.556  1.00  0.00     0.169 HD
BRANCH   8  11
HETATM   11  C   UNL     1     -41.665  56.372 -53.926  1.00  0.00     0.105 C 
HETATM   12  C   UNL     1     -40.636  55.562 -53.156  1.00  0.00     0.147 C 
HETATM   13  N   UNL     1     -41.412  54.460 -52.623  1.00  0.00    -0.315 N 
HETATM   14  C   UNL     1     -42.770  54.799 -52.527  1.00  0.00     0.225 C 
HETATM   15  O   UNL     1     -43.676  54.141 -52.042  1.00  0.00    -0.273 OA
HETATM   16  C   UNL     1     -42.941  56.181 -53.114  1.00  0.00     0.119 C 
BRANCH  13  17
HETATM   17  C   UNL     1     -40.863  53.168 -52.407  1.00  0.00     0.071 A 
HETATM   18  C   UNL     1     -40.461  52.723 -51.136  1.00  0.00     0.095 A 
HETATM   19  C   UNL     1     -39.778  51.511 -50.984  1.00  0.00     0.039 A 
HETATM   20  C   UNL     1     -39.513  50.712 -52.093  1.00  0.00     0.009 A 
HETATM   21  C   UNL     1     -39.948  51.105 -53.361  1.00  0.00    -0.060 A 
HETATM   22  C   UNL     1     -39.610  50.286 -54.573  1.00  0.00     0.048 C 
HETATM   23  C   UNL     1     -40.625  52.326 -53.505  1.00  0.00     0.039 A 
BRANCH  18  24
HETATM   24  O   UNL     1     -40.731  53.480 -50.021  1.00  0.00    -0.354 OA
HETATM   25  C   UNL     1     -39.573  54.218 -49.622  1.00  0.00     0.210 C 
ENDBRANCH  18  24
ENDBRANCH  13  17
ENDBRANCH   8  11
ENDBRANCH   2   7
BRANCH   1  26
HETATM   26  C   UNL     1     -42.264  59.168 -57.679  1.00  0.00     0.256 C 
HETATM   27  N   UNL     1     -43.190  59.827 -56.880  1.00  0.00    -0.345 N 
HETATM   28  C   UNL     1     -44.609  59.491 -56.730  1.00  0.00     0.146 C 
HETATM   29  C   UNL     1     -42.810  61.062 -56.199  1.00  0.00     0.146 C 
HETATM   30  C   UNL     1     -44.960  59.345 -55.245  1.00  0.00     0.148 C 
HETATM   31  N   UNL     1     -44.510  60.486 -54.441  1.00  0.00    -0.325 N 
HETATM   32  C   UNL     1     -45.108  60.664 -53.202  1.00  0.00     0.362 C 
HETATM   33  C   UNL     1     -43.150  60.985 -54.704  1.00  0.00     0.148 C 
HETATM   34  O   UNL     1     -46.081  60.026 -52.820  1.00  0.00    -0.238 OA
HETATM   35  O   UNL     1     -41.115  59.570 -57.858  1.00  0.00    -0.267 OA
BRANCH  32  36
HETATM   36  O   UNL     1     -44.495  61.627 -52.462  1.00  0.00    -0.304 OA
BRANCH  36  37
HETATM   37  C   UNL     1     -44.141  61.260 -51.122  1.00  0.00     0.176 C 
HETATM   38  C   UNL     1     -43.206  60.063 -51.120  1.00  0.00     0.034 C 
ENDBRANCH  36  37
ENDBRANCH  32  36
ENDBRANCH   1  26
TORSDOF 7
ENDMDL
MODEL 8
REMARK VINA RESULT:      -7.8      2.158      5.052
REMARK  7 active torsions:
REMARK  status: ('A' for Active; 'I' for Inactive)
REMARK    1  A    between atoms: C_2  and  O_3 
REMARK    2  A    between atoms: O_3  and  C_4 
REMARK       I    between atoms: C_4  and  N_5 
REMARK       I    between atoms: N_8  and  C_9 
REMARK    3  A    between atoms: C_9  and  C_10 
REMARK    4  A    between atoms: C_11  and  N_12 
REMARK       I    between atoms: N_12  and  C_13 
REMARK    5  A    between atoms: C_13  and  C_14 
REMARK    6  A    between atoms: N_16  and  C_17 
REMARK    7  A    between atoms: C_18  and  O_19 
ROOT
HETATM    1  C   UNL     1     -42.502  58.012 -56.833  1.00  0.00     0.059 A 
HETATM    2  C   UNL     1     -42.754  57.281 -55.661  1.00  0.00     0.050 A 
HETATM    3  C   UNL     1     -43.091  55.920 -55.776  1.00  0.00     0.030 A 
HETATM    4  C   UNL     1     -43.151  55.291 -57.022  1.00  0.00     0.002 A 
HETATM    5  C   UNL     1     -42.912  56.020 -58.179  1.00  0.00     0.001 A 
HETATM    6  C   UNL     1     -42.610  57.378 -58.088  1.00  0.00     0.019 A 
ENDROOT
BRANCH   2   7
HETATM    7  N   UNL     1     -42.793  57.798 -54.349  1.00  0.00    -0.326 N 
HETATM    8  C   UNL     1     -43.794  57.654 -53.412  1.00  0.00     0.228 C 
HETATM    9  O   UNL     1     -44.964  57.386 -53.675  1.00  0.00    -0.273 OA
HETATM   10  H   UNL     1     -42.040  58.433 -54.113  1.00  0.00     0.169 HD
BRANCH   8  11
HETATM   11  C   UNL     1     -43.347  57.873 -51.960  1.00  0.00     0.105 C 
HETATM   12  C   UNL     1     -42.069  57.136 -51.600  1.00  0.00     0.147 C 
HETATM   13  N   UNL     1     -42.543  55.830 -51.188  1.00  0.00    -0.315 N 
HETATM   14  C   UNL     1     -43.878  55.889 -50.762  1.00  0.00     0.225 C 
HETATM   15  O   UNL     1     -44.551  54.996 -50.273  1.00  0.00    -0.273 OA
HETATM   16  C   UNL     1     -44.369  57.301 -50.983  1.00  0.00     0.119 C 
BRANCH  13  17
HETATM   17  C   UNL     1     -41.784  54.644 -51.374  1.00  0.00     0.071 A 
HETATM   18  C   UNL     1     -41.216  53.937 -50.301  1.00  0.00     0.095 A 
HETATM   19  C   UNL     1     -40.343  52.868 -50.528  1.00  0.00     0.039 A 
HETATM   20  C   UNL     1     -40.048  52.469 -51.830  1.00  0.00     0.009 A 
HETATM   21  C   UNL     1     -40.639  53.121 -52.914  1.00  0.00    -0.060 A 
HETATM   22  C   UNL     1     -40.277  52.745 -54.322  1.00  0.00     0.048 C 
HETATM   23  C   UNL     1     -41.508  54.198 -52.676  1.00  0.00     0.039 A 
BRANCH  18  24
HETATM   24  O   UNL     1     -41.510  54.292 -49.006  1.00  0.00    -0.354 OA
HETATM   25  C   UNL     1     -40.387  54.057 -48.152  1.00  0.00     0.210 C 
ENDBRANCH  18  24
ENDBRANCH  13  17
ENDBRANCH   8  11
ENDBRANCH   2   7
BRANCH   1  26
HETATM   26  C   UNL     1     -42.366  59.488 -56.860  1.00  0.00     0.256 C 
HETATM   27  N   UNL     1     -43.486  60.269 -56.608  1.00  0.00    -0.345 N 
HETATM   28  C   UNL     1     -44.876  59.808 -56.549  1.00  0.00     0.146 C 
HETATM   29  C   UNL     1     -43.352  61.720 -56.512  1.00  0.00     0.146 C 
HETATM   30  C   UNL     1     -45.526  60.263 -55.237  1.00  0.00     0.148 C 
HETATM   31  N   UNL     1     -45.342  61.695 -54.980  1.00  0.00    -0.325 N 
HETATM   32  C   UNL     1     -46.203  62.292 -54.071  1.00  0.00     0.362 C 
HETATM   33  C   UNL     1     -43.997  62.243 -55.221  1.00  0.00     0.148 C 
HETATM   34  O   UNL     1     -47.187  61.733 -53.600  1.00  0.00    -0.238 OA
HETATM   35  O   UNL     1     -41.237  59.952 -57.018  1.00  0.00    -0.267 OA
BRANCH  32  36
HETATM   36  O   UNL     1     -45.834  63.565 -53.762  1.00  0.00    -0.304 OA
BRANCH  36  37
HETATM   37  C   UNL     1     -45.847  63.904 -52.369  1.00  0.00     0.176 C 
HETATM   38  C   UNL     1     -44.669  63.270 -51.650  1.00  0.00     0.034 C 
ENDBRANCH  36  37
ENDBRANCH  32  36
ENDBRANCH   1  26
TORSDOF 7
ENDMDL
MODEL 9
REMARK VINA RESULT:      -7.8      2.532      4.489
REMARK  7 active torsions:
REMARK  status: ('A' for Active; 'I' for Inactive)
REMARK    1  A    between atoms: C_2  and  O_3 
REMARK    2  A    between atoms: O_3  and  C_4 
REMARK       I    between atoms: C_4  and  N_5 
REMARK       I    between atoms: N_8  and  C_9 
REMARK    3  A    between atoms: C_9  and  C_10 
REMARK    4  A    between atoms: C_11  and  N_12 
REMARK       I    between atoms: N_12  and  C_13 
REMARK    5  A    between atoms: C_13  and  C_14 
REMARK    6  A    between atoms: N_16  and  C_17 
REMARK    7  A    between atoms: C_18  and  O_19 
ROOT
HETATM    1  C   UNL     1     -43.363  57.795 -56.850  1.00  0.00     0.059 A 
HETATM    2  C   UNL     1     -43.024  57.138 -55.657  1.00  0.00     0.050 A 
HETATM    3  C   UNL     1     -42.759  55.757 -55.701  1.00  0.00     0.030 A 
HETATM    4  C   UNL     1     -42.803  55.048 -56.905  1.00  0.00     0.002 A 
HETATM    5  C   UNL     1     -43.150  55.701 -58.081  1.00  0.00     0.001 A 
HETATM    6  C   UNL     1     -43.449  57.062 -58.051  1.00  0.00     0.019 A 
ENDROOT
BRANCH   2   7
HETATM    7  N   UNL     1     -43.005  57.709 -54.367  1.00  0.00    -0.326 N 
HETATM    8  C   UNL     1     -43.995  57.669 -53.409  1.00  0.00     0.228 C 
HETATM    9  O   UNL     1     -45.185  57.469 -53.642  1.00  0.00    -0.273 OA
HETATM   10  H   UNL     1     -42.207  58.302 -54.170  1.00  0.00     0.169 HD
BRANCH   8  11
HETATM   11  C   UNL     1     -43.508  57.918 -51.975  1.00  0.00     0.105 C 
HETATM   12  C   UNL     1     -42.204  57.212 -51.646  1.00  0.00     0.147 C 
HETATM   13  N   UNL     1     -42.637  55.902 -51.202  1.00  0.00    -0.315 N 
HETATM   14  C   UNL     1     -43.960  55.940 -50.735  1.00  0.00     0.225 C 
HETATM   15  O   UNL     1     -44.599  55.040 -50.214  1.00  0.00    -0.273 OA
HETATM   16  C   UNL     1     -44.487  57.338 -50.959  1.00  0.00     0.119 C 
BRANCH  13  17
HETATM   17  C   UNL     1     -41.861  54.729 -51.397  1.00  0.00     0.071 A 
HETATM   18  C   UNL     1     -41.275  54.028 -50.329  1.00  0.00     0.095 A 
HETATM   19  C   UNL     1     -40.386  52.974 -50.565  1.00  0.00     0.039 A 
HETATM   20  C   UNL     1     -40.091  52.585 -51.870  1.00  0.00     0.009 A 
HETATM   21  C   UNL     1     -40.699  53.230 -52.949  1.00  0.00    -0.060 A 
HETATM   22  C   UNL     1     -40.339  52.866 -54.360  1.00  0.00     0.048 C 
HETATM   23  C   UNL     1     -41.584  54.292 -52.702  1.00  0.00     0.039 A 
BRANCH  18  24
HETATM   24  O   UNL     1     -41.568  54.374 -49.032  1.00  0.00    -0.354 OA
HETATM   25  C   UNL     1     -40.458  54.094 -48.174  1.00  0.00     0.210 C 
ENDBRANCH  18  24
ENDBRANCH  13  17
ENDBRANCH   8  11
ENDBRANCH   2   7
BRANCH   1  26
HETATM   26  C   UNL     1     -43.883  59.183 -56.897  1.00  0.00     0.256 C 
HETATM   27  N   UNL     1     -43.159  60.148 -57.586  1.00  0.00    -0.345 N 
HETATM   28  C   UNL     1     -41.787  60.016 -58.086  1.00  0.00     0.146 C 
HETATM   29  C   UNL     1     -43.710  61.491 -57.746  1.00  0.00     0.146 C 
HETATM   30  C   UNL     1     -41.734  60.381 -59.574  1.00  0.00     0.148 C 
HETATM   31  N   UNL     1     -42.375  61.667 -59.866  1.00  0.00    -0.325 N 
HETATM   32  C   UNL     1     -42.041  62.285 -61.063  1.00  0.00     0.362 C 
HETATM   33  C   UNL     1     -43.672  61.922 -59.218  1.00  0.00     0.148 C 
HETATM   34  O   UNL     1     -41.141  61.898 -61.799  1.00  0.00    -0.238 OA
HETATM   35  O   UNL     1     -44.987  59.393 -56.396  1.00  0.00    -0.267 OA
BRANCH  32  36
HETATM   36  O   UNL     1     -42.823  63.367 -61.326  1.00  0.00    -0.304 OA
BRANCH  36  37
HETATM   37  C   UNL     1     -43.371  63.441 -62.649  1.00  0.00     0.176 C 
HETATM   38  C   UNL     1     -44.400  62.346 -62.868  1.00  0.00     0.034 C 
ENDBRANCH  36  37
ENDBRANCH  32  36
ENDBRANCH   1  26
TORSDOF 7
ENDMDL
MODEL 10
REMARK VINA RESULT:      -7.8      1.514      2.653
REMARK  7 active torsions:
REMARK  status: ('A' for Active; 'I' for Inactive)
REMARK    1  A    between atoms: C_2  and  O_3 
REMARK    2  A    between atoms: O_3  and  C_4 
REMARK       I    between atoms: C_4  and  N_5 
REMARK       I    between atoms: N_8  and  C_9 
REMARK    3  A    between atoms: C_9  and  C_10 
REMARK    4  A    between atoms: C_11  and  N_12 
REMARK       I    between atoms: N_12  and  C_13 
REMARK    5  A    between atoms: C_13  and  C_14 
REMARK    6  A    between atoms: N_16  and  C_17 
REMARK    7  A    between atoms: C_18  and  O_19 
ROOT
HETATM    1  C   UNL     1     -44.076  59.660 -52.277  1.00  0.00     0.059 A 
HETATM    2  C   UNL     1     -43.182  59.277 -51.264  1.00  0.00     0.050 A 
HETATM    3  C   UNL     1     -42.471  60.280 -50.580  1.00  0.00     0.030 A 
HETATM    4  C   UNL     1     -42.661  61.633 -50.875  1.00  0.00     0.002 A 
HETATM    5  C   UNL     1     -43.538  62.006 -51.885  1.00  0.00     0.001 A 
HETATM    6  C   UNL     1     -44.225  61.024 -52.597  1.00  0.00     0.019 A 
ENDROOT
BRANCH   2   7
HETATM    7  N   UNL     1     -42.844  57.955 -50.907  1.00  0.00    -0.326 N 
HETATM    8  C   UNL     1     -41.589  57.384 -50.863  1.00  0.00     0.228 C 
HETATM    9  O   UNL     1     -40.612  57.799 -51.482  1.00  0.00    -0.273 OA
HETATM   10  H   UNL     1     -43.630  57.332 -50.767  1.00  0.00     0.169 HD
BRANCH   8  11
HETATM   11  C   UNL     1     -41.484  56.139 -49.973  1.00  0.00     0.105 C 
HETATM   12  C   UNL     1     -40.486  55.112 -50.481  1.00  0.00     0.147 C 
HETATM   13  N   UNL     1     -41.270  54.311 -51.398  1.00  0.00    -0.315 N 
HETATM   14  C   UNL     1     -42.637  54.386 -51.093  1.00  0.00     0.225 C 
HETATM   15  O   UNL     1     -43.557  53.771 -51.607  1.00  0.00    -0.273 OA
HETATM   16  C   UNL     1     -42.801  55.369 -49.956  1.00  0.00     0.119 C 
BRANCH  13  17
HETATM   17  C   UNL     1     -40.711  53.691 -52.547  1.00  0.00     0.071 A 
HETATM   18  C   UNL     1     -40.606  54.351 -53.783  1.00  0.00     0.095 A 
HETATM   19  C   UNL     1     -40.201  53.662 -54.932  1.00  0.00     0.039 A 
HETATM   20  C   UNL     1     -39.866  52.312 -54.858  1.00  0.00     0.009 A 
HETATM   21  C   UNL     1     -39.911  51.644 -53.632  1.00  0.00    -0.060 A 
HETATM   22  C   UNL     1     -39.618  50.174 -53.551  1.00  0.00     0.048 C 
HETATM   23  C   UNL     1     -40.326  52.341 -52.486  1.00  0.00     0.039 A 
BRANCH  18  24
HETATM   24  O   UNL     1     -40.905  55.689 -53.880  1.00  0.00    -0.354 OA
HETATM   25  C   UNL     1     -42.169  55.876 -54.523  1.00  0.00     0.210 C 
ENDBRANCH  18  24
ENDBRANCH  13  17
ENDBRANCH   8  11
ENDBRANCH   2   7
BRANCH   1  26
HETATM   26  C   UNL     1     -44.704  58.699 -53.216  1.00  0.00     0.256 C 
HETATM   27  N   UNL     1     -44.846  59.061 -54.550  1.00  0.00    -0.345 N 
HETATM   28  C   UNL     1     -44.663  60.402 -55.114  1.00  0.00     0.146 C 
HETATM   29  C   UNL     1     -45.351  58.088 -55.515  1.00  0.00     0.146 C 
HETATM   30  C   UNL     1     -43.686  60.347 -56.294  1.00  0.00     0.148 C 
HETATM   31  N   UNL     1     -44.035  59.310 -57.271  1.00  0.00    -0.325 N 
HETATM   32  C   UNL     1     -43.493  59.429 -58.543  1.00  0.00     0.362 C 
HETATM   33  C   UNL     1     -44.421  57.995 -56.732  1.00  0.00     0.148 C 
HETATM   34  O   UNL     1     -42.878  60.416 -58.929  1.00  0.00    -0.238 OA
HETATM   35  O   UNL     1     -44.988  57.583 -52.782  1.00  0.00    -0.267 OA
BRANCH  32  36
HETATM   36  O   UNL     1     -43.721  58.329 -59.311  1.00  0.00    -0.304 OA
BRANCH  36  37
HETATM   37  C   UNL     1     -42.582  57.795 -59.999  1.00  0.00     0.176 C 
HETATM   38  C   UNL     1     -42.428  56.311 -59.716  1.00  0.00     0.034 C 
ENDBRANCH  36  37
ENDBRANCH  32  36
ENDBRANCH   1  26
TORSDOF 7
ENDMDL
