MODEL 1
REMARK VINA RESULT:      -8.6      0.000      0.000
REMARK  3 active torsions:
REMARK  status: ('A' for Active; 'I' for Inactive)
REMARK    1  A    between atoms: C_2  and  C_3 
REMARK    2  A    between atoms: C_6  and  C_7 
REMARK       I    between atoms: C_7  and  N_8 
REMARK    3  A    between atoms: N_8  and  N_9 
ROOT
HETATM    1  C   UNL     1     -44.002  57.086 -57.855  1.00  0.00    -0.021 A 
HETATM    2  C   UNL     1     -43.665  57.899 -56.754  1.00  0.00     0.011 A 
HETATM    3  C   UNL     1     -42.782  57.458 -55.758  1.00  0.00     0.018 A 
HETATM    4  C   UNL     1     -42.226  56.177 -55.827  1.00  0.00     0.033 A 
HETATM    5  C   UNL     1     -42.569  55.356 -56.909  1.00  0.00     0.018 A 
HETATM    6  C   UNL     1     -43.445  55.800 -57.906  1.00  0.00     0.011 A 
ENDROOT
BRANCH   4   7
HETATM    7  C   UNL     1     -41.246  55.641 -54.835  1.00  0.00     0.266 C 
HETATM    8  N   UNL     1     -41.124  54.255 -54.746  1.00  0.00    -0.284 N 
HETATM    9  H   UNL     1     -41.592  53.645 -55.404  1.00  0.00     0.184 HD
HETATM   10  O   UNL     1     -40.597  56.434 -54.156  1.00  0.00    -0.266 OA
BRANCH   8  11
HETATM   11  N   UNL     1     -40.249  53.625 -53.828  1.00  0.00    -0.220 NA
HETATM   12  C   UNL     1     -40.691  53.698 -52.410  1.00  0.00     0.153 C 
HETATM   13  C   UNL     1     -40.322  52.378 -51.811  1.00  0.00    -0.036 A 
HETATM   14  C   UNL     1     -39.898  51.508 -52.814  1.00  0.00    -0.036 A 
HETATM   15  C   UNL     1     -40.400  51.968 -50.490  1.00  0.00     0.009 A 
HETATM   16  C   UNL     1     -39.951  52.201 -54.138  1.00  0.00     0.153 C 
HETATM   17  C   UNL     1     -39.545  50.200 -52.525  1.00  0.00     0.009 A 
HETATM   18  C   UNL     1     -39.618  49.774 -51.197  1.00  0.00     0.001 A 
HETATM   19  C   UNL     1     -40.040  50.652 -50.186  1.00  0.00     0.001 A 
ENDBRANCH   8  11
ENDBRANCH   4   7
BRANCH   1  20
HETATM   20  C   UNL     1     -44.944  57.615 -58.934  1.00  0.00     0.139 A 
HETATM   21  C   UNL     1     -44.721  59.101 -59.215  1.00  0.00     0.054 C 
HETATM   22  N   UNL     1     -44.811  56.829 -60.148  1.00  0.00    -0.321 N 
HETATM   23  C   UNL     1     -45.966  56.176 -60.491  1.00  0.00     0.324 A 
HETATM   24  H   UNL     1     -43.955  56.653 -60.653  1.00  0.00     0.165 HD
HETATM   25  O   UNL     1     -46.085  55.424 -61.442  1.00  0.00    -0.247 OA
HETATM   26  N   UNL     1     -46.932  56.509 -59.611  1.00  0.00    -0.277 N 
HETATM   27  C   UNL     1     -46.454  57.376 -58.677  1.00  0.00     0.258 A 
HETATM   28  H   UNL     1     -47.881  56.182 -59.661  1.00  0.00     0.173 HD
HETATM   29  O   UNL     1     -47.136  57.878 -57.795  1.00  0.00    -0.270 OA
ENDBRANCH   1  20
TORSDOF 3
ENDMDL
MODEL 2
REMARK VINA RESULT:      -8.5      5.113      6.890
REMARK  3 active torsions:
REMARK  status: ('A' for Active; 'I' for Inactive)
REMARK    1  A    between atoms: C_2  and  C_3 
REMARK    2  A    between atoms: C_6  and  C_7 
REMARK       I    between atoms: C_7  and  N_8 
REMARK    3  A    between atoms: N_8  and  N_9 
ROOT
HETATM    1  C   UNL     1     -44.193  59.346 -51.195  1.00  0.00    -0.021 A 
HETATM    2  C   UNL     1     -44.656  58.187 -51.851  1.00  0.00     0.011 A 
HETATM    3  C   UNL     1     -43.770  57.245 -52.392  1.00  0.00     0.018 A 
HETATM    4  C   UNL     1     -42.389  57.449 -52.309  1.00  0.00     0.033 A 
HETATM    5  C   UNL     1     -41.921  58.607 -51.674  1.00  0.00     0.018 A 
HETATM    6  C   UNL     1     -42.806  59.543 -51.129  1.00  0.00     0.011 A 
ENDROOT
BRANCH   4   7
HETATM    7  C   UNL     1     -41.373  56.480 -52.820  1.00  0.00     0.266 C 
HETATM    8  N   UNL     1     -41.304  55.238 -52.190  1.00  0.00    -0.284 N 
HETATM    9  H   UNL     1     -41.989  54.964 -51.496  1.00  0.00     0.184 HD
HETATM   10  O   UNL     1     -40.658  56.815 -53.761  1.00  0.00    -0.266 OA
BRANCH   8  11
HETATM   11  N   UNL     1     -40.367  54.245 -52.565  1.00  0.00    -0.220 NA
HETATM   12  C   UNL     1     -40.059  53.257 -51.497  1.00  0.00     0.153 C 
HETATM   13  C   UNL     1     -39.912  51.945 -52.201  1.00  0.00    -0.036 A 
HETATM   14  C   UNL     1     -40.306  52.079 -53.531  1.00  0.00    -0.036 A 
HETATM   15  C   UNL     1     -39.506  50.723 -51.692  1.00  0.00     0.009 A 
HETATM   16  C   UNL     1     -40.729  53.489 -53.795  1.00  0.00     0.153 C 
HETATM   17  C   UNL     1     -40.310  50.991 -54.389  1.00  0.00     0.009 A 
HETATM   18  C   UNL     1     -39.902  49.752 -53.888  1.00  0.00     0.001 A 
HETATM   19  C   UNL     1     -39.501  49.620 -52.550  1.00  0.00     0.001 A 
ENDBRANCH   8  11
ENDBRANCH   4   7
BRANCH   1  20
HETATM   20  C   UNL     1     -45.191  60.332 -50.593  1.00  0.00     0.139 A 
HETATM   21  C   UNL     1     -46.508  60.365 -51.370  1.00  0.00     0.054 C 
HETATM   22  N   UNL     1     -45.420  60.025 -49.193  1.00  0.00    -0.321 N 
HETATM   23  C   UNL     1     -45.031  61.035 -48.352  1.00  0.00     0.324 A 
HETATM   24  H   UNL     1     -45.718  59.136 -48.818  1.00  0.00     0.165 HD
HETATM   25  O   UNL     1     -45.083  60.989 -47.137  1.00  0.00    -0.247 OA
HETATM   26  N   UNL     1     -44.591  62.072 -49.095  1.00  0.00    -0.277 N 
HETATM   27  C   UNL     1     -44.675  61.784 -50.422  1.00  0.00     0.258 A 
HETATM   28  H   UNL     1     -44.275  62.946 -48.714  1.00  0.00     0.173 HD
HETATM   29  O   UNL     1     -44.392  62.571 -51.314  1.00  0.00    -0.270 OA
ENDBRANCH   1  20
TORSDOF 3
ENDMDL
MODEL 3
REMARK VINA RESULT:      -8.0      5.779      7.392
REMARK  3 active torsions:
REMARK  status: ('A' for Active; 'I' for Inactive)
REMARK    1  A    between atoms: C_2  and  C_3 
REMARK    2  A    between atoms: C_6  and  C_7 
REMARK       I    between atoms: C_7  and  N_8 
REMARK    3  A    between atoms: N_8  and  N_9 
ROOT
HETATM    1  C   UNL     1     -44.557  60.990 -51.123  1.00  0.00    -0.021 A 
HETATM    2  C   UNL     1     -45.681  60.156 -50.954  1.00  0.00     0.011 A 
HETATM    3  C   UNL     1     -45.569  58.759 -50.970  1.00  0.00     0.018 A 
HETATM    4  C   UNL     1     -44.325  58.155 -51.177  1.00  0.00     0.033 A 
HETATM    5  C   UNL     1     -43.205  58.977 -51.363  1.00  0.00     0.018 A 
HETATM    6  C   UNL     1     -43.318  60.371 -51.341  1.00  0.00     0.011 A 
ENDROOT
BRANCH   4   7
HETATM    7  C   UNL     1     -44.105  56.677 -51.168  1.00  0.00     0.266 C 
HETATM    8  N   UNL     1     -43.110  56.176 -52.007  1.00  0.00    -0.284 N 
HETATM    9  H   UNL     1     -42.488  56.797 -52.510  1.00  0.00     0.184 HD
HETATM   10  O   UNL     1     -44.797  55.981 -50.429  1.00  0.00    -0.266 OA
BRANCH   8  11
HETATM   11  N   UNL     1     -42.824  54.793 -52.107  1.00  0.00    -0.220 NA
HETATM   12  C   UNL     1     -42.426  54.345 -53.468  1.00  0.00     0.153 C 
HETATM   13  C   UNL     1     -41.360  53.319 -53.252  1.00  0.00    -0.036 A 
HETATM   14  C   UNL     1     -40.990  53.300 -51.909  1.00  0.00    -0.036 A 
HETATM   15  C   UNL     1     -40.737  52.500 -54.180  1.00  0.00     0.009 A 
HETATM   16  C   UNL     1     -41.794  54.306 -51.149  1.00  0.00     0.153 C 
HETATM   17  C   UNL     1     -39.982  52.465 -51.456  1.00  0.00     0.009 A 
HETATM   18  C   UNL     1     -39.346  51.634 -52.381  1.00  0.00     0.001 A 
HETATM   19  C   UNL     1     -39.723  51.650 -53.734  1.00  0.00     0.001 A 
ENDBRANCH   8  11
ENDBRANCH   4   7
BRANCH   1  20
HETATM   20  C   UNL     1     -44.719  62.507 -51.069  1.00  0.00     0.139 A 
HETATM   21  C   UNL     1     -46.187  62.928 -51.000  1.00  0.00     0.054 C 
HETATM   22  N   UNL     1     -43.967  63.054 -49.953  1.00  0.00    -0.321 N 
HETATM   23  C   UNL     1     -42.969  63.907 -50.347  1.00  0.00     0.324 A 
HETATM   24  H   UNL     1     -44.050  62.777 -48.986  1.00  0.00     0.165 HD
HETATM   25  O   UNL     1     -42.181  64.451 -49.595  1.00  0.00    -0.247 OA
HETATM   26  N   UNL     1     -43.016  64.041 -51.688  1.00  0.00    -0.277 N 
HETATM   27  C   UNL     1     -44.026  63.293 -52.212  1.00  0.00     0.258 A 
HETATM   28  H   UNL     1     -42.404  64.635 -52.219  1.00  0.00     0.173 HD
HETATM   29  O   UNL     1     -44.321  63.275 -53.398  1.00  0.00    -0.270 OA
ENDBRANCH   1  20
TORSDOF 3
ENDMDL
MODEL 4
REMARK VINA RESULT:      -7.7      2.594      9.637
REMARK  3 active torsions:
REMARK  status: ('A' for Active; 'I' for Inactive)
REMARK    1  A    between atoms: C_2  and  C_3 
REMARK    2  A    between atoms: C_6  and  C_7 
REMARK       I    between atoms: C_7  and  N_8 
REMARK    3  A    between atoms: N_8  and  N_9 
ROOT
HETATM    1  C   UNL     1     -42.138  55.118 -54.019  1.00  0.00    -0.021 A 
HETATM    2  C   UNL     1     -42.800  54.156 -54.810  1.00  0.00     0.011 A 
HETATM    3  C   UNL     1     -43.206  54.437 -56.122  1.00  0.00     0.018 A 
HETATM    4  C   UNL     1     -42.977  55.700 -56.675  1.00  0.00     0.033 A 
HETATM    5  C   UNL     1     -42.335  56.668 -55.890  1.00  0.00     0.018 A 
HETATM    6  C   UNL     1     -41.925  56.384 -54.583  1.00  0.00     0.011 A 
ENDROOT
BRANCH   4   7
HETATM    7  C   UNL     1     -43.337  56.074 -58.076  1.00  0.00     0.266 C 
HETATM    8  N   UNL     1     -44.566  56.701 -58.272  1.00  0.00    -0.284 N 
HETATM    9  H   UNL     1     -45.135  56.994 -57.488  1.00  0.00     0.184 HD
HETATM   10  O   UNL     1     -42.542  55.820 -58.978  1.00  0.00    -0.266 OA
BRANCH   8  11
HETATM   11  N   UNL     1     -45.031  57.081 -59.555  1.00  0.00    -0.220 NA
HETATM   12  C   UNL     1     -45.965  56.108 -60.182  1.00  0.00     0.153 C 
HETATM   13  C   UNL     1     -46.983  56.939 -60.895  1.00  0.00    -0.036 A 
HETATM   14  C   UNL     1     -46.817  58.280 -60.557  1.00  0.00    -0.036 A 
HETATM   15  C   UNL     1     -48.003  56.533 -61.740  1.00  0.00     0.009 A 
HETATM   16  C   UNL     1     -45.671  58.423 -59.606  1.00  0.00     0.153 C 
HETATM   17  C   UNL     1     -47.670  59.254 -61.049  1.00  0.00     0.009 A 
HETATM   18  C   UNL     1     -48.702  58.858 -61.903  1.00  0.00     0.001 A 
HETATM   19  C   UNL     1     -48.867  57.508 -62.247  1.00  0.00     0.001 A 
ENDBRANCH   8  11
ENDBRANCH   4   7
BRANCH   1  20
HETATM   20  C   UNL     1     -41.687  54.762 -52.605  1.00  0.00     0.139 A 
HETATM   21  C   UNL     1     -40.835  53.493 -52.574  1.00  0.00     0.054 C 
HETATM   22  N   UNL     1     -40.979  55.880 -52.007  1.00  0.00    -0.321 N 
HETATM   23  C   UNL     1     -41.606  56.378 -50.895  1.00  0.00     0.324 A 
HETATM   24  H   UNL     1     -40.175  56.353 -52.395  1.00  0.00     0.165 HD
HETATM   25  O   UNL     1     -41.225  57.340 -50.252  1.00  0.00    -0.247 OA
HETATM   26  N   UNL     1     -42.696  55.626 -50.638  1.00  0.00    -0.277 N 
HETATM   27  C   UNL     1     -42.820  54.629 -51.556  1.00  0.00     0.258 A 
HETATM   28  H   UNL     1     -43.312  55.771 -49.858  1.00  0.00     0.173 HD
HETATM   29  O   UNL     1     -43.692  53.772 -51.524  1.00  0.00    -0.270 OA
ENDBRANCH   1  20
TORSDOF 3
ENDMDL
MODEL 5
REMARK VINA RESULT:      -7.7      3.810      4.917
REMARK  3 active torsions:
REMARK  status: ('A' for Active; 'I' for Inactive)
REMARK    1  A    between atoms: C_2  and  C_3 
REMARK    2  A    between atoms: C_6  and  C_7 
REMARK       I    between atoms: C_7  and  N_8 
REMARK    3  A    between atoms: N_8  and  N_9 
ROOT
HETATM    1  C   UNL     1     -42.055  60.584 -57.798  1.00  0.00    -0.021 A 
HETATM    2  C   UNL     1     -41.995  59.501 -58.699  1.00  0.00     0.011 A 
HETATM    3  C   UNL     1     -42.124  58.175 -58.264  1.00  0.00     0.018 A 
HETATM    4  C   UNL     1     -42.296  57.894 -56.905  1.00  0.00     0.033 A 
HETATM    5  C   UNL     1     -42.339  58.963 -56.001  1.00  0.00     0.018 A 
HETATM    6  C   UNL     1     -42.216  60.286 -56.437  1.00  0.00     0.011 A 
ENDROOT
BRANCH   4   7
HETATM    7  C   UNL     1     -42.483  56.516 -56.357  1.00  0.00     0.266 C 
HETATM    8  N   UNL     1     -41.881  56.231 -55.133  1.00  0.00    -0.284 N 
HETATM    9  H   UNL     1     -41.436  56.957 -54.586  1.00  0.00     0.184 HD
HETATM   10  O   UNL     1     -43.154  55.711 -56.999  1.00  0.00    -0.266 OA
BRANCH   8  11
HETATM   11  N   UNL     1     -41.963  54.956 -54.523  1.00  0.00    -0.220 NA
HETATM   12  C   UNL     1     -41.032  53.943 -55.087  1.00  0.00     0.153 C 
HETATM   13  C   UNL     1     -40.566  53.136 -53.917  1.00  0.00    -0.036 A 
HETATM   14  C   UNL     1     -40.996  53.732 -52.734  1.00  0.00    -0.036 A 
HETATM   15  C   UNL     1     -39.786  51.992 -53.902  1.00  0.00     0.009 A 
HETATM   16  C   UNL     1     -41.783  54.966 -53.045  1.00  0.00     0.153 C 
HETATM   17  C   UNL     1     -40.653  53.204 -51.500  1.00  0.00     0.009 A 
HETATM   18  C   UNL     1     -39.866  52.050 -51.471  1.00  0.00     0.001 A 
HETATM   19  C   UNL     1     -39.438  51.447 -52.664  1.00  0.00     0.001 A 
ENDBRANCH   8  11
ENDBRANCH   4   7
BRANCH   1  20
HETATM   20  C   UNL     1     -41.940  62.015 -58.318  1.00  0.00     0.139 A 
HETATM   21  C   UNL     1     -42.923  62.960 -57.625  1.00  0.00     0.054 C 
HETATM   22  N   UNL     1     -40.575  62.492 -58.181  1.00  0.00    -0.321 N 
HETATM   23  C   UNL     1     -39.988  62.786 -59.384  1.00  0.00     0.324 A 
HETATM   24  H   UNL     1     -40.031  62.509 -57.330  1.00  0.00     0.165 HD
HETATM   25  O   UNL     1     -38.837  63.158 -59.525  1.00  0.00    -0.247 OA
HETATM   26  N   UNL     1     -40.893  62.598 -60.366  1.00  0.00    -0.277 N 
HETATM   27  C   UNL     1     -42.082  62.182 -59.852  1.00  0.00     0.258 A 
HETATM   28  H   UNL     1     -40.715  62.772 -61.340  1.00  0.00     0.173 HD
HETATM   29  O   UNL     1     -43.088  61.990 -60.520  1.00  0.00    -0.270 OA
ENDBRANCH   1  20
TORSDOF 3
ENDMDL
MODEL 6
REMARK VINA RESULT:      -7.6      5.996      7.520
REMARK  3 active torsions:
REMARK  status: ('A' for Active; 'I' for Inactive)
REMARK    1  A    between atoms: C_2  and  C_3 
REMARK    2  A    between atoms: C_6  and  C_7 
REMARK       I    between atoms: C_7  and  N_8 
REMARK    3  A    between atoms: N_8  and  N_9 
ROOT
HETATM    1  C   UNL     1     -43.932  60.897 -50.499  1.00  0.00    -0.021 A 
HETATM    2  C   UNL     1     -44.864  59.900 -50.850  1.00  0.00     0.011 A 
HETATM    3  C   UNL     1     -44.456  58.617 -51.240  1.00  0.00     0.018 A 
HETATM    4  C   UNL     1     -43.095  58.302 -51.310  1.00  0.00     0.033 A 
HETATM    5  C   UNL     1     -42.161  59.292 -50.979  1.00  0.00     0.018 A 
HETATM    6  C   UNL     1     -42.571  60.571 -50.584  1.00  0.00     0.011 A 
ENDROOT
BRANCH   4   7
HETATM    7  C   UNL     1     -42.571  56.951 -51.674  1.00  0.00     0.266 C 
HETATM    8  N   UNL     1     -43.450  55.875 -51.561  1.00  0.00    -0.284 N 
HETATM    9  H   UNL     1     -44.430  56.019 -51.354  1.00  0.00     0.184 HD
HETATM   10  O   UNL     1     -41.407  56.852 -52.057  1.00  0.00    -0.266 OA
BRANCH   8  11
HETATM   11  N   UNL     1     -43.066  54.544 -51.853  1.00  0.00    -0.220 NA
HETATM   12  C   UNL     1     -42.651  54.319 -53.263  1.00  0.00     0.153 C 
HETATM   13  C   UNL     1     -41.512  53.353 -53.193  1.00  0.00    -0.036 A 
HETATM   14  C   UNL     1     -41.127  53.175 -51.865  1.00  0.00    -0.036 A 
HETATM   15  C   UNL     1     -40.842  52.718 -54.226  1.00  0.00     0.009 A 
HETATM   16  C   UNL     1     -41.994  54.004 -50.972  1.00  0.00     0.153 C 
HETATM   17  C   UNL     1     -40.057  52.361 -51.533  1.00  0.00     0.009 A 
HETATM   18  C   UNL     1     -39.372  51.715 -52.565  1.00  0.00     0.001 A 
HETATM   19  C   UNL     1     -39.763  51.890 -53.902  1.00  0.00     0.001 A 
ENDBRANCH   8  11
ENDBRANCH   4   7
BRANCH   1  20
HETATM   20  C   UNL     1     -44.420  62.273 -50.051  1.00  0.00     0.139 A 
HETATM   21  C   UNL     1     -43.287  63.299 -50.007  1.00  0.00     0.054 C 
HETATM   22  N   UNL     1     -45.501  62.727 -50.908  1.00  0.00    -0.321 N 
HETATM   23  C   UNL     1     -46.682  62.897 -50.234  1.00  0.00     0.324 A 
HETATM   24  H   UNL     1     -45.471  62.807 -51.914  1.00  0.00     0.165 HD
HETATM   25  O   UNL     1     -47.736  63.228 -50.747  1.00  0.00    -0.247 OA
HETATM   26  N   UNL     1     -46.476  62.645 -48.925  1.00  0.00    -0.277 N 
HETATM   27  C   UNL     1     -45.177  62.305 -48.699  1.00  0.00     0.258 A 
HETATM   28  H   UNL     1     -47.182  62.726 -48.215  1.00  0.00     0.173 HD
HETATM   29  O   UNL     1     -44.711  62.079 -47.592  1.00  0.00    -0.270 OA
ENDBRANCH   1  20
TORSDOF 3
ENDMDL
MODEL 7
REMARK VINA RESULT:      -7.5      2.524      9.531
REMARK  3 active torsions:
REMARK  status: ('A' for Active; 'I' for Inactive)
REMARK    1  A    between atoms: C_2  and  C_3 
REMARK    2  A    between atoms: C_6  and  C_7 
REMARK       I    between atoms: C_7  and  N_8 
REMARK    3  A    between atoms: N_8  and  N_9 
ROOT
HETATM    1  C   UNL     1     -42.256  55.001 -52.808  1.00  0.00    -0.021 A 
HETATM    2  C   UNL     1     -41.209  55.024 -53.752  1.00  0.00     0.011 A 
HETATM    3  C   UNL     1     -41.389  55.556 -55.036  1.00  0.00     0.018 A 
HETATM    4  C   UNL     1     -42.634  56.063 -55.420  1.00  0.00     0.033 A 
HETATM    5  C   UNL     1     -43.685  56.028 -54.494  1.00  0.00     0.018 A 
HETATM    6  C   UNL     1     -43.502  55.503 -53.211  1.00  0.00     0.011 A 
ENDROOT
BRANCH   4   7
HETATM    7  C   UNL     1     -42.905  56.685 -56.751  1.00  0.00     0.266 C 
HETATM    8  N   UNL     1     -44.027  56.238 -57.446  1.00  0.00    -0.284 N 
HETATM    9  H   UNL     1     -44.691  55.606 -57.018  1.00  0.00     0.184 HD
HETATM   10  O   UNL     1     -42.140  57.554 -57.164  1.00  0.00    -0.266 OA
BRANCH   8  11
HETATM   11  N   UNL     1     -44.376  56.732 -58.727  1.00  0.00    -0.220 NA
HETATM   12  C   UNL     1     -45.173  55.787 -59.553  1.00  0.00     0.153 C 
HETATM   13  C   UNL     1     -46.160  56.637 -60.287  1.00  0.00    -0.036 A 
HETATM   14  C   UNL     1     -46.117  57.939 -59.796  1.00  0.00    -0.036 A 
HETATM   15  C   UNL     1     -47.056  56.273 -61.279  1.00  0.00     0.009 A 
HETATM   16  C   UNL     1     -45.091  58.037 -58.711  1.00  0.00     0.153 C 
HETATM   17  C   UNL     1     -46.973  58.916 -60.278  1.00  0.00     0.009 A 
HETATM   18  C   UNL     1     -47.881  58.563 -61.279  1.00  0.00     0.001 A 
HETATM   19  C   UNL     1     -47.921  57.251 -61.778  1.00  0.00     0.001 A 
ENDBRANCH   8  11
ENDBRANCH   4   7
BRANCH   1  20
HETATM   20  C   UNL     1     -42.010  54.439 -51.409  1.00  0.00     0.139 A 
HETATM   21  C   UNL     1     -43.229  54.601 -50.501  1.00  0.00     0.054 C 
HETATM   22  N   UNL     1     -41.602  53.048 -51.491  1.00  0.00    -0.321 N 
HETATM   23  C   UNL     1     -40.339  52.831 -51.004  1.00  0.00     0.324 A 
HETATM   24  H   UNL     1     -42.105  52.305 -51.954  1.00  0.00     0.165 HD
HETATM   25  O   UNL     1     -39.766  51.757 -51.008  1.00  0.00    -0.247 OA
HETATM   26  N   UNL     1     -39.854  53.994 -50.524  1.00  0.00    -0.277 N 
HETATM   27  C   UNL     1     -40.763  54.995 -50.676  1.00  0.00     0.258 A 
HETATM   28  H   UNL     1     -38.954  54.095 -50.088  1.00  0.00     0.173 HD
HETATM   29  O   UNL     1     -40.596  56.139 -50.278  1.00  0.00    -0.270 OA
ENDBRANCH   1  20
TORSDOF 3
ENDMDL
MODEL 8
REMARK VINA RESULT:      -7.5      7.945      9.348
REMARK  3 active torsions:
REMARK  status: ('A' for Active; 'I' for Inactive)
REMARK    1  A    between atoms: C_2  and  C_3 
REMARK    2  A    between atoms: C_6  and  C_7 
REMARK       I    between atoms: C_7  and  N_8 
REMARK    3  A    between atoms: N_8  and  N_9 
ROOT
HETATM    1  C   UNL     1     -45.160  62.814 -48.855  1.00  0.00    -0.021 A 
HETATM    2  C   UNL     1     -44.000  63.316 -49.478  1.00  0.00     0.011 A 
HETATM    3  C   UNL     1     -43.177  62.501 -50.268  1.00  0.00     0.018 A 
HETATM    4  C   UNL     1     -43.483  61.147 -50.438  1.00  0.00     0.033 A 
HETATM    5  C   UNL     1     -44.625  60.635 -49.808  1.00  0.00     0.018 A 
HETATM    6  C   UNL     1     -45.448  61.452 -49.025  1.00  0.00     0.011 A 
ENDROOT
BRANCH   4   7
HETATM    7  C   UNL     1     -42.688  60.215 -51.294  1.00  0.00     0.266 C 
HETATM    8  N   UNL     1     -42.527  58.909 -50.833  1.00  0.00    -0.284 N 
HETATM    9  H   UNL     1     -43.024  58.577 -50.016  1.00  0.00     0.184 HD
HETATM   10  O   UNL     1     -42.223  60.635 -52.351  1.00  0.00    -0.266 OA
BRANCH   8  11
HETATM   11  N   UNL     1     -41.775  57.940 -51.540  1.00  0.00    -0.220 NA
HETATM   12  C   UNL     1     -41.109  56.929 -50.676  1.00  0.00     0.153 C 
HETATM   13  C   UNL     1     -41.211  55.639 -51.424  1.00  0.00    -0.036 A 
HETATM   14  C   UNL     1     -42.044  55.800 -52.530  1.00  0.00    -0.036 A 
HETATM   15  C   UNL     1     -40.646  54.410 -51.124  1.00  0.00     0.009 A 
HETATM   16  C   UNL     1     -42.539  57.210 -52.588  1.00  0.00     0.153 C 
HETATM   17  C   UNL     1     -42.341  54.735 -53.363  1.00  0.00     0.009 A 
HETATM   18  C   UNL     1     -41.778  53.490 -53.072  1.00  0.00     0.001 A 
HETATM   19  C   UNL     1     -40.935  53.329 -51.962  1.00  0.00     0.001 A 
ENDBRANCH   8  11
ENDBRANCH   4   7
BRANCH   1  20
HETATM   20  C   UNL     1     -46.045  63.743 -48.028  1.00  0.00     0.139 A 
HETATM   21  C   UNL     1     -45.225  64.689 -47.151  1.00  0.00     0.054 C 
HETATM   22  N   UNL     1     -46.945  64.483 -48.894  1.00  0.00    -0.321 N 
HETATM   23  C   UNL     1     -48.266  64.208 -48.654  1.00  0.00     0.324 A 
HETATM   24  H   UNL     1     -46.678  65.056 -49.681  1.00  0.00     0.165 HD
HETATM   25  O   UNL     1     -49.200  64.672 -49.282  1.00  0.00    -0.247 OA
HETATM   26  N   UNL     1     -48.349  63.352 -47.615  1.00  0.00    -0.277 N 
HETATM   27  C   UNL     1     -47.110  63.041 -47.147  1.00  0.00     0.258 A 
HETATM   28  H   UNL     1     -49.213  63.017 -47.226  1.00  0.00     0.173 HD
HETATM   29  O   UNL     1     -46.903  62.327 -46.176  1.00  0.00    -0.270 OA
ENDBRANCH   1  20
TORSDOF 3
ENDMDL
MODEL 9
REMARK VINA RESULT:      -7.4     16.419     21.460
REMARK  3 active torsions:
REMARK  status: ('A' for Active; 'I' for Inactive)
REMARK    1  A    between atoms: C_2  and  C_3 
REMARK    2  A    between atoms: C_6  and  C_7 
REMARK       I    between atoms: C_7  and  N_8 
REMARK    3  A    between atoms: N_8  and  N_9 
ROOT
HETATM    1  C   UNL     1     -31.437  38.987 -46.779  1.00  0.00    -0.021 A 
HETATM    2  C   UNL     1     -31.177  39.894 -47.827  1.00  0.00     0.011 A 
HETATM    3  C   UNL     1     -31.980  39.941 -48.974  1.00  0.00     0.018 A 
HETATM    4  C   UNL     1     -33.059  39.064 -49.115  1.00  0.00     0.033 A 
HETATM    5  C   UNL     1     -33.315  38.147 -48.086  1.00  0.00     0.018 A 
HETATM    6  C   UNL     1     -32.516  38.105 -46.939  1.00  0.00     0.011 A 
ENDROOT
BRANCH   4   7
HETATM    7  C   UNL     1     -33.992  39.071 -50.283  1.00  0.00     0.266 C 
HETATM    8  N   UNL     1     -33.509  39.597 -51.480  1.00  0.00    -0.284 N 
HETATM    9  H   UNL     1     -32.536  39.855 -51.583  1.00  0.00     0.184 HD
HETATM   10  O   UNL     1     -35.124  38.615 -50.138  1.00  0.00    -0.266 OA
BRANCH   8  11
HETATM   11  N   UNL     1     -34.303  39.683 -52.649  1.00  0.00    -0.220 NA
HETATM   12  C   UNL     1     -35.051  40.961 -52.791  1.00  0.00     0.153 C 
HETATM   13  C   UNL     1     -35.013  41.283 -54.251  1.00  0.00    -0.036 A 
HETATM   14  C   UNL     1     -34.145  40.409 -54.903  1.00  0.00    -0.036 A 
HETATM   15  C   UNL     1     -35.660  42.297 -54.937  1.00  0.00     0.009 A 
HETATM   16  C   UNL     1     -33.561  39.447 -53.917  1.00  0.00     0.153 C 
HETATM   17  C   UNL     1     -33.894  40.529 -56.260  1.00  0.00     0.009 A 
HETATM   18  C   UNL     1     -34.541  41.547 -56.964  1.00  0.00     0.001 A 
HETATM   19  C   UNL     1     -35.419  42.424 -56.308  1.00  0.00     0.001 A 
ENDBRANCH   8  11
ENDBRANCH   4   7
BRANCH   1  20
HETATM   20  C   UNL     1     -30.555  38.988 -45.533  1.00  0.00     0.139 A 
HETATM   21  C   UNL     1     -31.378  38.931 -44.245  1.00  0.00     0.054 C 
HETATM   22  N   UNL     1     -29.601  37.895 -45.591  1.00  0.00    -0.321 N 
HETATM   23  C   UNL     1     -28.299  38.322 -45.619  1.00  0.00     0.324 A 
HETATM   24  H   UNL     1     -29.821  36.918 -45.719  1.00  0.00     0.165 HD
HETATM   25  O   UNL     1     -27.329  37.592 -45.713  1.00  0.00    -0.247 OA
HETATM   26  N   UNL     1     -28.281  39.667 -45.523  1.00  0.00    -0.277 N 
HETATM   27  C   UNL     1     -29.546  40.160 -45.430  1.00  0.00     0.258 A 
HETATM   28  H   UNL     1     -27.443  40.221 -45.495  1.00  0.00     0.173 HD
HETATM   29  O   UNL     1     -29.811  41.345 -45.279  1.00  0.00    -0.270 OA
ENDBRANCH   1  20
TORSDOF 3
ENDMDL
MODEL 10
REMARK VINA RESULT:      -7.4      3.939      5.046
REMARK  3 active torsions:
REMARK  status: ('A' for Active; 'I' for Inactive)
REMARK    1  A    between atoms: C_2  and  C_3 
REMARK    2  A    between atoms: C_6  and  C_7 
REMARK       I    between atoms: C_7  and  N_8 
REMARK    3  A    between atoms: N_8  and  N_9 
ROOT
HETATM    1  C   UNL     1     -41.718  60.706 -59.699  1.00  0.00    -0.021 A 
HETATM    2  C   UNL     1     -41.486  60.699 -58.309  1.00  0.00     0.011 A 
HETATM    3  C   UNL     1     -41.797  59.585 -57.517  1.00  0.00     0.018 A 
HETATM    4  C   UNL     1     -42.371  58.449 -58.095  1.00  0.00     0.033 A 
HETATM    5  C   UNL     1     -42.622  58.454 -59.473  1.00  0.00     0.018 A 
HETATM    6  C   UNL     1     -42.305  59.564 -60.263  1.00  0.00     0.011 A 
ENDROOT
BRANCH   4   7
HETATM    7  C   UNL     1     -42.697  57.204 -57.336  1.00  0.00     0.266 C 
HETATM    8  N   UNL     1     -42.015  56.990 -56.139  1.00  0.00    -0.284 N 
HETATM    9  H   UNL     1     -41.413  57.703 -55.746  1.00  0.00     0.184 HD
HETATM   10  O   UNL     1     -43.543  56.438 -57.792  1.00  0.00    -0.266 OA
BRANCH   8  11
HETATM   11  N   UNL     1     -42.217  55.837 -55.344  1.00  0.00    -0.220 NA
HETATM   12  C   UNL     1     -41.435  54.648 -55.776  1.00  0.00     0.153 C 
HETATM   13  C   UNL     1     -41.013  53.969 -54.512  1.00  0.00    -0.036 A 
HETATM   14  C   UNL     1     -41.318  54.778 -53.419  1.00  0.00    -0.036 A 
HETATM   15  C   UNL     1     -40.369  52.754 -54.347  1.00  0.00     0.009 A 
HETATM   16  C   UNL     1     -41.970  56.039 -53.890  1.00  0.00     0.153 C 
HETATM   17  C   UNL     1     -40.982  54.397 -52.130  1.00  0.00     0.009 A 
HETATM   18  C   UNL     1     -40.333  53.173 -51.950  1.00  0.00     0.001 A 
HETATM   19  C   UNL     1     -40.031  52.356 -53.051  1.00  0.00     0.001 A 
ENDBRANCH   8  11
ENDBRANCH   4   7
BRANCH   1  20
HETATM   20  C   UNL     1     -41.337  61.929 -60.530  1.00  0.00     0.139 A 
HETATM   21  C   UNL     1     -40.116  62.653 -59.963  1.00  0.00     0.054 C 
HETATM   22  N   UNL     1     -41.121  61.548 -61.915  1.00  0.00    -0.321 N 
HETATM   23  C   UNL     1     -42.001  62.146 -62.778  1.00  0.00     0.324 A 
HETATM   24  H   UNL     1     -40.486  60.836 -62.245  1.00  0.00     0.165 HD
HETATM   25  O   UNL     1     -42.044  61.947 -63.979  1.00  0.00    -0.247 OA
HETATM   26  N   UNL     1     -42.796  62.982 -62.078  1.00  0.00    -0.277 N 
HETATM   27  C   UNL     1     -42.470  62.962 -60.757  1.00  0.00     0.258 A 
HETATM   28  H   UNL     1     -43.508  63.560 -62.487  1.00  0.00     0.173 HD
HETATM   29  O   UNL     1     -42.999  63.667 -59.910  1.00  0.00    -0.270 OA
ENDBRANCH   1  20
TORSDOF 3
ENDMDL
