MODEL 1
REMARK VINA RESULT:      -8.8      0.000      0.000
REMARK  2 active torsions:
REMARK  status: ('A' for Active; 'I' for Inactive)
REMARK    1  A    between atoms: C_3  and  C_4 
REMARK    2  A    between atoms: N_10  and  C_11 
ROOT
HETATM    1  C   UNL     1     -42.670  57.389 -56.970  1.00  0.00     0.049 A 
HETATM    2  N   UNL     1     -41.667  56.524 -56.580  1.00  0.00    -0.344 N 
HETATM    3  C   UNL     1     -41.778  55.738 -55.468  1.00  0.00     0.119 A 
HETATM    4  C   UNL     1     -42.872  55.793 -54.690  1.00  0.00     0.123 A 
HETATM    5  C   UNL     1     -42.712  54.767 -53.648  1.00  0.00     0.280 A 
HETATM    6  O   UNL     1     -43.524  54.524 -52.774  1.00  0.00    -0.265 OA
HETATM    7  N   UNL     1     -41.472  54.164 -53.912  1.00  0.00    -0.236 N 
HETATM    8  N   UNL     1     -40.873  54.791 -55.027  1.00  0.00    -0.179 NA
HETATM    9  C   UNL     1     -43.974  56.702 -55.017  1.00  0.00     0.193 A 
HETATM   10  O   UNL     1     -44.992  56.812 -54.347  1.00  0.00    -0.287 OA
HETATM   11  C   UNL     1     -43.806  57.517 -56.258  1.00  0.00     0.086 A 
HETATM   12  H   UNL     1     -40.821  56.469 -57.136  1.00  0.00     0.167 HD
HETATM   13  H   UNL     1     -40.661  54.130 -55.775  1.00  0.00     0.155 HD
ENDROOT
BRANCH   1  14
HETATM   14  C   UNL     1     -42.470  58.181 -58.204  1.00  0.00     0.012 A 
HETATM   15  C   UNL     1     -42.228  59.562 -58.085  1.00  0.00     0.015 A 
HETATM   16  C   UNL     1     -42.032  60.358 -59.217  1.00  0.00     0.001 A 
HETATM   17  C   UNL     1     -42.070  59.788 -60.485  1.00  0.00     0.002 A 
HETATM   18  C   UNL     1     -42.303  58.420 -60.625  1.00  0.00     0.025 A 
HETATM   19  C   UNL     1     -42.503  57.619 -59.494  1.00  0.00     0.046 A 
HETATM   20 CL   UNL     1     -42.801  55.935 -59.762  1.00  0.00    -0.083 Cl
ENDBRANCH   1  14
BRANCH   7  21
HETATM   21  C   UNL     1     -40.807  53.126 -53.225  1.00  0.00     0.055 A 
HETATM   22  C   UNL     1     -40.592  53.192 -51.840  1.00  0.00     0.034 A 
HETATM   23  C   UNL     1     -39.945  52.152 -51.162  1.00  0.00     0.044 A 
HETATM   24  C   UNL     1     -39.507  51.041 -51.866  1.00  0.00     0.116 A 
HETATM   25  F   UNL     1     -38.891  50.045 -51.217  1.00  0.00    -0.206 F 
HETATM   26  C   UNL     1     -39.699  50.950 -53.237  1.00  0.00     0.044 A 
HETATM   27  C   UNL     1     -40.345  51.990 -53.914  1.00  0.00     0.034 A 
ENDBRANCH   7  21
TORSDOF 2
ENDMDL
MODEL 2
REMARK VINA RESULT:      -8.6      3.821      8.300
REMARK  2 active torsions:
REMARK  status: ('A' for Active; 'I' for Inactive)
REMARK    1  A    between atoms: C_3  and  C_4 
REMARK    2  A    between atoms: N_10  and  C_11 
ROOT
HETATM    1  C   UNL     1     -40.902  53.702 -53.726  1.00  0.00     0.049 A 
HETATM    2  N   UNL     1     -41.317  53.908 -55.027  1.00  0.00    -0.344 N 
HETATM    3  C   UNL     1     -41.764  55.124 -55.463  1.00  0.00     0.119 A 
HETATM    4  C   UNL     1     -41.840  56.171 -54.625  1.00  0.00     0.123 A 
HETATM    5  C   UNL     1     -42.266  57.331 -55.424  1.00  0.00     0.280 A 
HETATM    6  O   UNL     1     -42.424  58.459 -54.993  1.00  0.00    -0.265 OA
HETATM    7  N   UNL     1     -42.413  56.843 -56.732  1.00  0.00    -0.236 N 
HETATM    8  N   UNL     1     -42.134  55.459 -56.752  1.00  0.00    -0.179 NA
HETATM    9  C   UNL     1     -41.445  56.033 -53.221  1.00  0.00     0.193 A 
HETATM   10  O   UNL     1     -41.501  56.942 -52.402  1.00  0.00    -0.287 OA
HETATM   11  C   UNL     1     -40.940  54.689 -52.810  1.00  0.00     0.086 A 
HETATM   12  H   UNL     1     -41.287  53.135 -55.682  1.00  0.00     0.167 HD
HETATM   13  H   UNL     1     -41.386  55.224 -57.406  1.00  0.00     0.155 HD
ENDROOT
BRANCH   1  14
HETATM   14  C   UNL     1     -40.408  52.358 -53.355  1.00  0.00     0.012 A 
HETATM   15  C   UNL     1     -40.395  51.351 -54.337  1.00  0.00     0.015 A 
HETATM   16  C   UNL     1     -39.939  50.063 -54.041  1.00  0.00     0.001 A 
HETATM   17  C   UNL     1     -39.484  49.761 -52.762  1.00  0.00     0.002 A 
HETATM   18  C   UNL     1     -39.484  50.746 -51.775  1.00  0.00     0.025 A 
HETATM   19  C   UNL     1     -39.944  52.036 -52.065  1.00  0.00     0.046 A 
HETATM   20 CL   UNL     1     -39.923  53.191 -50.775  1.00  0.00    -0.083 Cl
ENDBRANCH   1  14
BRANCH   7  21
HETATM   21  C   UNL     1     -42.812  57.515 -57.908  1.00  0.00     0.055 A 
HETATM   22  C   UNL     1     -44.060  57.267 -58.499  1.00  0.00     0.034 A 
HETATM   23  C   UNL     1     -44.457  57.947 -59.657  1.00  0.00     0.044 A 
HETATM   24  C   UNL     1     -43.605  58.879 -60.231  1.00  0.00     0.116 A 
HETATM   25  F   UNL     1     -43.984  59.531 -61.337  1.00  0.00    -0.206 F 
HETATM   26  C   UNL     1     -42.361  59.140 -59.674  1.00  0.00     0.044 A 
HETATM   27  C   UNL     1     -41.966  58.459 -58.517  1.00  0.00     0.034 A 
ENDBRANCH   7  21
TORSDOF 2
ENDMDL
MODEL 3
REMARK VINA RESULT:      -8.4      2.394      2.687
REMARK  2 active torsions:
REMARK  status: ('A' for Active; 'I' for Inactive)
REMARK    1  A    between atoms: C_3  and  C_4 
REMARK    2  A    between atoms: N_10  and  C_11 
ROOT
HETATM    1  C   UNL     1     -44.063  56.975 -57.637  1.00  0.00     0.049 A 
HETATM    2  N   UNL     1     -43.672  55.731 -57.182  1.00  0.00    -0.344 N 
HETATM    3  C   UNL     1     -42.741  55.579 -56.193  1.00  0.00     0.119 A 
HETATM    4  C   UNL     1     -42.147  56.647 -55.634  1.00  0.00     0.123 A 
HETATM    5  C   UNL     1     -41.282  56.144 -54.556  1.00  0.00     0.280 A 
HETATM    6  O   UNL     1     -40.601  56.838 -53.823  1.00  0.00    -0.265 OA
HETATM    7  N   UNL     1     -41.446  54.750 -54.572  1.00  0.00    -0.236 N 
HETATM    8  N   UNL     1     -42.330  54.393 -55.615  1.00  0.00    -0.179 NA
HETATM    9  C   UNL     1     -42.485  58.003 -56.075  1.00  0.00     0.193 A 
HETATM   10  O   UNL     1     -41.974  59.018 -55.619  1.00  0.00    -0.287 OA
HETATM   11  C   UNL     1     -43.527  58.107 -57.141  1.00  0.00     0.086 A 
HETATM   12  H   UNL     1     -44.088  54.903 -57.592  1.00  0.00     0.167 HD
HETATM   13  H   UNL     1     -43.136  53.867 -55.276  1.00  0.00     0.155 HD
ENDROOT
BRANCH   1  14
HETATM   14  C   UNL     1     -45.097  57.039 -58.692  1.00  0.00     0.012 A 
HETATM   15  C   UNL     1     -46.037  58.086 -58.651  1.00  0.00     0.015 A 
HETATM   16  C   UNL     1     -47.036  58.195 -59.622  1.00  0.00     0.001 A 
HETATM   17  C   UNL     1     -47.109  57.265 -60.654  1.00  0.00     0.002 A 
HETATM   18  C   UNL     1     -46.184  56.223 -60.717  1.00  0.00     0.025 A 
HETATM   19  C   UNL     1     -45.184  56.108 -59.744  1.00  0.00     0.046 A 
HETATM   20 CL   UNL     1     -44.089  54.775 -59.892  1.00  0.00    -0.083 Cl
ENDBRANCH   1  14
BRANCH   7  21
HETATM   21  C   UNL     1     -40.849  53.759 -53.763  1.00  0.00     0.055 A 
HETATM   22  C   UNL     1     -40.828  53.879 -52.365  1.00  0.00     0.034 A 
HETATM   23  C   UNL     1     -40.248  52.886 -51.566  1.00  0.00     0.044 A 
HETATM   24  C   UNL     1     -39.683  51.768 -52.162  1.00  0.00     0.116 A 
HETATM   25  F   UNL     1     -39.131  50.817 -51.399  1.00  0.00    -0.206 F 
HETATM   26  C   UNL     1     -39.683  51.626 -53.542  1.00  0.00     0.044 A 
HETATM   27  C   UNL     1     -40.262  52.619 -54.339  1.00  0.00     0.034 A 
ENDBRANCH   7  21
TORSDOF 2
ENDMDL
MODEL 4
REMARK VINA RESULT:      -8.3      4.084      7.997
REMARK  2 active torsions:
REMARK  status: ('A' for Active; 'I' for Inactive)
REMARK    1  A    between atoms: C_3  and  C_4 
REMARK    2  A    between atoms: N_10  and  C_11 
ROOT
HETATM    1  C   UNL     1     -41.540  56.057 -52.691  1.00  0.00     0.049 A 
HETATM    2  N   UNL     1     -42.324  55.466 -53.663  1.00  0.00    -0.344 N 
HETATM    3  C   UNL     1     -42.648  56.110 -54.824  1.00  0.00     0.119 A 
HETATM    4  C   UNL     1     -42.231  57.365 -55.057  1.00  0.00     0.123 A 
HETATM    5  C   UNL     1     -42.668  57.720 -56.416  1.00  0.00     0.280 A 
HETATM    6  O   UNL     1     -42.449  58.782 -56.968  1.00  0.00    -0.265 OA
HETATM    7  N   UNL     1     -43.343  56.585 -56.893  1.00  0.00    -0.236 N 
HETATM    8  N   UNL     1     -43.361  55.592 -55.889  1.00  0.00    -0.179 NA
HETATM    9  C   UNL     1     -41.416  58.075 -54.067  1.00  0.00     0.193 A 
HETATM   10  O   UNL     1     -41.014  59.223 -54.209  1.00  0.00    -0.287 OA
HETATM   11  C   UNL     1     -41.073  57.312 -52.830  1.00  0.00     0.086 A 
HETATM   12  H   UNL     1     -42.669  54.525 -53.513  1.00  0.00     0.167 HD
HETATM   13  H   UNL     1     -42.941  54.716 -56.203  1.00  0.00     0.155 HD
ENDROOT
BRANCH   1  14
HETATM   14  C   UNL     1     -41.220  55.271 -51.479  1.00  0.00     0.012 A 
HETATM   15  C   UNL     1     -41.486  55.840 -50.219  1.00  0.00     0.015 A 
HETATM   16  C   UNL     1     -41.202  55.142 -49.041  1.00  0.00     0.001 A 
HETATM   17  C   UNL     1     -40.655  53.865 -49.102  1.00  0.00     0.002 A 
HETATM   18  C   UNL     1     -40.389  53.281 -50.340  1.00  0.00     0.025 A 
HETATM   19  C   UNL     1     -40.667  53.977 -51.522  1.00  0.00     0.046 A 
HETATM   20 CL   UNL     1     -40.290  53.183 -53.014  1.00  0.00    -0.083 Cl
ENDBRANCH   1  14
BRANCH   7  21
HETATM   21  C   UNL     1     -43.979  56.366 -58.134  1.00  0.00     0.055 A 
HETATM   22  C   UNL     1     -43.644  55.267 -58.939  1.00  0.00     0.034 A 
HETATM   23  C   UNL     1     -44.289  55.047 -60.162  1.00  0.00     0.044 A 
HETATM   24  C   UNL     1     -45.273  55.927 -60.588  1.00  0.00     0.116 A 
HETATM   25  F   UNL     1     -45.892  55.715 -61.756  1.00  0.00    -0.206 F 
HETATM   26  C   UNL     1     -45.621  57.027 -59.816  1.00  0.00     0.044 A 
HETATM   27  C   UNL     1     -44.975  57.246 -58.595  1.00  0.00     0.034 A 
ENDBRANCH   7  21
TORSDOF 2
ENDMDL
MODEL 5
REMARK VINA RESULT:      -8.2      4.104      8.301
REMARK  2 active torsions:
REMARK  status: ('A' for Active; 'I' for Inactive)
REMARK    1  A    between atoms: C_3  and  C_4 
REMARK    2  A    between atoms: N_10  and  C_11 
ROOT
HETATM    1  C   UNL     1     -41.006  53.947 -54.089  1.00  0.00     0.049 A 
HETATM    2  N   UNL     1     -41.941  53.971 -55.105  1.00  0.00    -0.344 N 
HETATM    3  C   UNL     1     -42.423  55.141 -55.619  1.00  0.00     0.119 A 
HETATM    4  C   UNL     1     -42.018  56.327 -55.135  1.00  0.00     0.123 A 
HETATM    5  C   UNL     1     -42.649  57.368 -55.961  1.00  0.00     0.280 A 
HETATM    6  O   UNL     1     -42.492  58.567 -55.817  1.00  0.00    -0.265 OA
HETATM    7  N   UNL     1     -43.414  56.672 -56.910  1.00  0.00    -0.236 N 
HETATM    8  N   UNL     1     -43.302  55.284 -56.677  1.00  0.00    -0.179 NA
HETATM    9  C   UNL     1     -41.047  56.392 -54.040  1.00  0.00     0.193 A 
HETATM   10  O   UNL     1     -40.644  57.436 -53.543  1.00  0.00    -0.287 OA
HETATM   11  C   UNL     1     -40.536  55.082 -53.536  1.00  0.00     0.086 A 
HETATM   12  H   UNL     1     -42.280  53.094 -55.483  1.00  0.00     0.167 HD
HETATM   13  H   UNL     1     -42.954  54.781 -57.494  1.00  0.00     0.155 HD
ENDROOT
BRANCH   1  14
HETATM   14  C   UNL     1     -40.523  52.631 -53.615  1.00  0.00     0.012 A 
HETATM   15  C   UNL     1     -40.478  51.562 -54.529  1.00  0.00     0.015 A 
HETATM   16  C   UNL     1     -40.031  50.297 -54.135  1.00  0.00     0.001 A 
HETATM   17  C   UNL     1     -39.616  50.081 -52.825  1.00  0.00     0.002 A 
HETATM   18  C   UNL     1     -39.647  51.129 -51.905  1.00  0.00     0.025 A 
HETATM   19  C   UNL     1     -40.098  52.396 -52.294  1.00  0.00     0.046 A 
HETATM   20 CL   UNL     1     -40.117  53.633 -51.082  1.00  0.00    -0.083 Cl
ENDBRANCH   1  14
BRANCH   7  21
HETATM   21  C   UNL     1     -44.237  57.165 -57.946  1.00  0.00     0.055 A 
HETATM   22  C   UNL     1     -45.339  57.988 -57.670  1.00  0.00     0.034 A 
HETATM   23  C   UNL     1     -46.142  58.487 -58.703  1.00  0.00     0.044 A 
HETATM   24  C   UNL     1     -45.847  58.162 -60.019  1.00  0.00     0.116 A 
HETATM   25  F   UNL     1     -46.613  58.641 -61.007  1.00  0.00    -0.206 F 
HETATM   26  C   UNL     1     -44.768  57.344 -60.322  1.00  0.00     0.044 A 
HETATM   27  C   UNL     1     -43.967  56.846 -59.289  1.00  0.00     0.034 A 
ENDBRANCH   7  21
TORSDOF 2
ENDMDL
MODEL 6
REMARK VINA RESULT:      -8.1      5.487      8.445
REMARK  2 active torsions:
REMARK  status: ('A' for Active; 'I' for Inactive)
REMARK    1  A    between atoms: C_3  and  C_4 
REMARK    2  A    between atoms: N_10  and  C_11 
ROOT
HETATM    1  C   UNL     1     -42.117  54.294 -52.178  1.00  0.00     0.049 A 
HETATM    2  N   UNL     1     -42.081  55.519 -52.813  1.00  0.00    -0.344 N 
HETATM    3  C   UNL     1     -42.923  56.539 -52.471  1.00  0.00     0.119 A 
HETATM    4  C   UNL     1     -43.845  56.379 -51.507  1.00  0.00     0.123 A 
HETATM    5  C   UNL     1     -44.510  57.679 -51.327  1.00  0.00     0.280 A 
HETATM    6  O   UNL     1     -45.393  57.909 -50.521  1.00  0.00    -0.265 OA
HETATM    7  N   UNL     1     -43.894  58.540 -52.250  1.00  0.00    -0.236 N 
HETATM    8  N   UNL     1     -42.927  57.822 -52.988  1.00  0.00    -0.179 NA
HETATM    9  C   UNL     1     -43.969  55.103 -50.799  1.00  0.00     0.193 A 
HETATM   10  O   UNL     1     -44.793  54.885 -49.921  1.00  0.00    -0.287 OA
HETATM   11  C   UNL     1     -43.005  54.034 -51.198  1.00  0.00     0.086 A 
HETATM   12  H   UNL     1     -41.408  55.669 -53.556  1.00  0.00     0.167 HD
HETATM   13  H   UNL     1     -41.997  58.235 -52.912  1.00  0.00     0.155 HD
ENDROOT
BRANCH   1  14
HETATM   14  C   UNL     1     -41.148  53.259 -52.599  1.00  0.00     0.012 A 
HETATM   15  C   UNL     1     -41.232  52.752 -53.909  1.00  0.00     0.015 A 
HETATM   16  C   UNL     1     -40.342  51.773 -54.360  1.00  0.00     0.001 A 
HETATM   17  C   UNL     1     -39.350  51.288 -53.513  1.00  0.00     0.002 A 
HETATM   18  C   UNL     1     -39.246  51.781 -52.213  1.00  0.00     0.025 A 
HETATM   19  C   UNL     1     -40.138  52.759 -51.755  1.00  0.00     0.046 A 
HETATM   20 CL   UNL     1     -39.945  53.302 -50.122  1.00  0.00    -0.083 Cl
ENDBRANCH   1  14
BRANCH   7  21
HETATM   21  C   UNL     1     -44.141  59.903 -52.520  1.00  0.00     0.055 A 
HETATM   22  C   UNL     1     -43.274  60.905 -52.057  1.00  0.00     0.034 A 
HETATM   23  C   UNL     1     -43.516  62.254 -52.342  1.00  0.00     0.044 A 
HETATM   24  C   UNL     1     -44.629  62.609 -53.090  1.00  0.00     0.116 A 
HETATM   25  F   UNL     1     -44.859  63.899 -53.365  1.00  0.00    -0.206 F 
HETATM   26  C   UNL     1     -45.508  61.641 -53.555  1.00  0.00     0.044 A 
HETATM   27  C   UNL     1     -45.265  60.293 -53.269  1.00  0.00     0.034 A 
ENDBRANCH   7  21
TORSDOF 2
ENDMDL
MODEL 7
REMARK VINA RESULT:      -8.1      3.963      4.535
REMARK  2 active torsions:
REMARK  status: ('A' for Active; 'I' for Inactive)
REMARK    1  A    between atoms: C_3  and  C_4 
REMARK    2  A    between atoms: N_10  and  C_11 
ROOT
HETATM    1  C   UNL     1     -43.312  58.873 -52.612  1.00  0.00     0.049 A 
HETATM    2  N   UNL     1     -42.325  58.032 -53.088  1.00  0.00    -0.344 N 
HETATM    3  C   UNL     1     -42.253  56.718 -52.724  1.00  0.00     0.119 A 
HETATM    4  C   UNL     1     -43.137  56.191 -51.860  1.00  0.00     0.123 A 
HETATM    5  C   UNL     1     -42.837  54.755 -51.758  1.00  0.00     0.280 A 
HETATM    6  O   UNL     1     -43.452  53.957 -51.073  1.00  0.00    -0.265 OA
HETATM    7  N   UNL     1     -41.744  54.545 -52.614  1.00  0.00    -0.236 N 
HETATM    8  N   UNL     1     -41.357  55.775 -53.191  1.00  0.00    -0.179 NA
HETATM    9  C   UNL     1     -44.202  57.019 -51.287  1.00  0.00     0.193 A 
HETATM   10  O   UNL     1     -45.031  56.608 -50.486  1.00  0.00    -0.287 OA
HETATM   11  C   UNL     1     -44.245  58.441 -51.742  1.00  0.00     0.086 A 
HETATM   12  H   UNL     1     -41.633  58.401 -53.730  1.00  0.00     0.167 HD
HETATM   13  H   UNL     1     -41.374  55.746 -54.211  1.00  0.00     0.155 HD
ENDROOT
BRANCH   1  14
HETATM   14  C   UNL     1     -43.325  60.274 -53.084  1.00  0.00     0.012 A 
HETATM   15  C   UNL     1     -43.692  60.532 -54.418  1.00  0.00     0.015 A 
HETATM   16  C   UNL     1     -43.720  61.837 -54.917  1.00  0.00     0.001 A 
HETATM   17  C   UNL     1     -43.388  62.907 -54.092  1.00  0.00     0.002 A 
HETATM   18  C   UNL     1     -43.027  62.674 -52.765  1.00  0.00     0.025 A 
HETATM   19  C   UNL     1     -42.994  61.368 -52.262  1.00  0.00     0.046 A 
HETATM   20 CL   UNL     1     -42.519  61.172 -50.609  1.00  0.00    -0.083 Cl
ENDBRANCH   1  14
BRANCH   7  21
HETATM   21  C   UNL     1     -41.034  53.359 -52.900  1.00  0.00     0.055 A 
HETATM   22  C   UNL     1     -40.157  52.793 -51.963  1.00  0.00     0.034 A 
HETATM   23  C   UNL     1     -39.467  51.609 -52.246  1.00  0.00     0.044 A 
HETATM   24  C   UNL     1     -39.649  50.984 -53.471  1.00  0.00     0.116 A 
HETATM   25  F   UNL     1     -38.992  49.849 -53.741  1.00  0.00    -0.206 F 
HETATM   26  C   UNL     1     -40.505  51.524 -54.421  1.00  0.00     0.044 A 
HETATM   27  C   UNL     1     -41.193  52.708 -54.136  1.00  0.00     0.034 A 
ENDBRANCH   7  21
TORSDOF 2
ENDMDL
MODEL 8
REMARK VINA RESULT:      -8.1      2.708      3.361
REMARK  2 active torsions:
REMARK  status: ('A' for Active; 'I' for Inactive)
REMARK    1  A    between atoms: C_3  and  C_4 
REMARK    2  A    between atoms: N_10  and  C_11 
ROOT
HETATM    1  C   UNL     1     -43.772  57.461 -56.981  1.00  0.00     0.049 A 
HETATM    2  N   UNL     1     -43.616  56.397 -56.115  1.00  0.00    -0.344 N 
HETATM    3  C   UNL     1     -42.804  56.466 -55.018  1.00  0.00     0.119 A 
HETATM    4  C   UNL     1     -42.100  57.578 -54.750  1.00  0.00     0.123 A 
HETATM    5  C   UNL     1     -41.414  57.354 -53.468  1.00  0.00     0.280 A 
HETATM    6  O   UNL     1     -40.695  58.162 -52.907  1.00  0.00    -0.265 OA
HETATM    7  N   UNL     1     -41.790  56.061 -53.069  1.00  0.00    -0.236 N 
HETATM    8  N   UNL     1     -42.630  55.493 -54.052  1.00  0.00    -0.179 NA
HETATM    9  C   UNL     1     -42.186  58.745 -55.630  1.00  0.00     0.193 A 
HETATM   10  O   UNL     1     -41.563  59.784 -55.453  1.00  0.00    -0.287 OA
HETATM   11  C   UNL     1     -43.109  58.620 -56.798  1.00  0.00     0.086 A 
HETATM   12  H   UNL     1     -44.121  55.537 -56.296  1.00  0.00     0.167 HD
HETATM   13  H   UNL     1     -43.533  55.208 -53.671  1.00  0.00     0.155 HD
ENDROOT
BRANCH   1  14
HETATM   14  C   UNL     1     -44.693  57.301 -58.126  1.00  0.00     0.012 A 
HETATM   15  C   UNL     1     -45.960  57.911 -58.061  1.00  0.00     0.015 A 
HETATM   16  C   UNL     1     -46.871  57.792 -59.114  1.00  0.00     0.001 A 
HETATM   17  C   UNL     1     -46.531  57.068 -60.252  1.00  0.00     0.002 A 
HETATM   18  C   UNL     1     -45.279  56.460 -60.340  1.00  0.00     0.025 A 
HETATM   19  C   UNL     1     -44.364  56.573 -59.285  1.00  0.00     0.046 A 
HETATM   20 CL   UNL     1     -42.840  55.774 -59.473  1.00  0.00    -0.083 Cl
ENDBRANCH   1  14
BRANCH   7  21
HETATM   21  C   UNL     1     -41.421  55.325 -51.922  1.00  0.00     0.055 A 
HETATM   22  C   UNL     1     -40.771  54.087 -52.031  1.00  0.00     0.034 A 
HETATM   23  C   UNL     1     -40.394  53.369 -50.890  1.00  0.00     0.044 A 
HETATM   24  C   UNL     1     -40.668  53.885 -49.632  1.00  0.00     0.116 A 
HETATM   25  F   UNL     1     -40.304  53.200 -48.541  1.00  0.00    -0.206 F 
HETATM   26  C   UNL     1     -41.316  55.104 -49.493  1.00  0.00     0.044 A 
HETATM   27  C   UNL     1     -41.693  55.820 -50.634  1.00  0.00     0.034 A 
ENDBRANCH   7  21
TORSDOF 2
ENDMDL
MODEL 9
REMARK VINA RESULT:      -8.1      3.920      5.478
REMARK  2 active torsions:
REMARK  status: ('A' for Active; 'I' for Inactive)
REMARK    1  A    between atoms: C_3  and  C_4 
REMARK    2  A    between atoms: N_10  and  C_11 
ROOT
HETATM    1  C   UNL     1     -43.134  58.240 -52.328  1.00  0.00     0.049 A 
HETATM    2  N   UNL     1     -42.815  56.997 -51.816  1.00  0.00    -0.344 N 
HETATM    3  C   UNL     1     -42.245  56.021 -52.583  1.00  0.00     0.119 A 
HETATM    4  C   UNL     1     -41.990  56.227 -53.887  1.00  0.00     0.123 A 
HETATM    5  C   UNL     1     -41.301  55.028 -54.386  1.00  0.00     0.280 A 
HETATM    6  O   UNL     1     -40.904  54.872 -55.527  1.00  0.00    -0.265 OA
HETATM    7  N   UNL     1     -41.203  54.171 -53.278  1.00  0.00    -0.236 N 
HETATM    8  N   UNL     1     -41.822  54.774 -52.161  1.00  0.00    -0.179 NA
HETATM    9  C   UNL     1     -42.321  57.508 -54.516  1.00  0.00     0.193 A 
HETATM   10  O   UNL     1     -42.128  57.759 -55.699  1.00  0.00    -0.287 OA
HETATM   11  C   UNL     1     -42.918  58.545 -53.622  1.00  0.00     0.086 A 
HETATM   12  H   UNL     1     -43.007  56.802 -50.841  1.00  0.00     0.167 HD
HETATM   13  H   UNL     1     -41.185  54.867 -51.369  1.00  0.00     0.155 HD
ENDROOT
BRANCH   1  14
HETATM   14  C   UNL     1     -43.723  59.242 -51.413  1.00  0.00     0.012 A 
HETATM   15  C   UNL     1     -45.125  59.308 -51.301  1.00  0.00     0.015 A 
HETATM   16  C   UNL     1     -45.735  60.236 -50.452  1.00  0.00     0.001 A 
HETATM   17  C   UNL     1     -44.957  61.109 -49.698  1.00  0.00     0.002 A 
HETATM   18  C   UNL     1     -43.567  61.056 -49.791  1.00  0.00     0.025 A 
HETATM   19  C   UNL     1     -42.951  60.131 -50.642  1.00  0.00     0.046 A 
HETATM   20 CL   UNL     1     -41.221  60.147 -50.706  1.00  0.00    -0.083 Cl
ENDBRANCH   1  14
BRANCH   7  21
HETATM   21  C   UNL     1     -40.643  52.879 -53.181  1.00  0.00     0.055 A 
HETATM   22  C   UNL     1     -40.003  52.450 -52.008  1.00  0.00     0.034 A 
HETATM   23  C   UNL     1     -39.463  51.162 -51.912  1.00  0.00     0.044 A 
HETATM   24  C   UNL     1     -39.558  50.296 -52.991  1.00  0.00     0.116 A 
HETATM   25  F   UNL     1     -39.044  49.063 -52.899  1.00  0.00    -0.206 F 
HETATM   26  C   UNL     1     -40.179  50.694 -54.166  1.00  0.00     0.044 A 
HETATM   27  C   UNL     1     -40.718  51.981 -54.261  1.00  0.00     0.034 A 
ENDBRANCH   7  21
TORSDOF 2
ENDMDL
MODEL 10
REMARK VINA RESULT:      -7.9      5.248      8.448
REMARK  2 active torsions:
REMARK  status: ('A' for Active; 'I' for Inactive)
REMARK    1  A    between atoms: C_3  and  C_4 
REMARK    2  A    between atoms: N_10  and  C_11 
ROOT
HETATM    1  C   UNL     1     -41.990  54.969 -52.422  1.00  0.00     0.049 A 
HETATM    2  N   UNL     1     -41.775  56.058 -51.601  1.00  0.00    -0.344 N 
HETATM    3  C   UNL     1     -42.516  57.202 -51.704  1.00  0.00     0.119 A 
HETATM    4  C   UNL     1     -43.479  57.319 -52.634  1.00  0.00     0.123 A 
HETATM    5  C   UNL     1     -44.135  58.617 -52.413  1.00  0.00     0.280 A 
HETATM    6  O   UNL     1     -45.068  59.051 -53.065  1.00  0.00    -0.265 OA
HETATM    7  N   UNL     1     -43.468  59.186 -51.316  1.00  0.00    -0.236 N 
HETATM    8  N   UNL     1     -42.435  58.319 -50.894  1.00  0.00    -0.179 NA
HETATM    9  C   UNL     1     -43.756  56.220 -53.562  1.00  0.00     0.193 A 
HETATM   10  O   UNL     1     -44.609  56.264 -54.440  1.00  0.00    -0.287 OA
HETATM   11  C   UNL     1     -42.932  54.987 -53.385  1.00  0.00     0.086 A 
HETATM   12  H   UNL     1     -41.046  56.010 -50.899  1.00  0.00     0.167 HD
HETATM   13  H   UNL     1     -42.531  58.052 -49.914  1.00  0.00     0.155 HD
ENDROOT
BRANCH   1  14
HETATM   14  C   UNL     1     -41.155  53.765 -52.218  1.00  0.00     0.012 A 
HETATM   15  C   UNL     1     -41.065  53.220 -50.924  1.00  0.00     0.015 A 
HETATM   16  C   UNL     1     -40.290  52.084 -50.674  1.00  0.00     0.001 A 
HETATM   17  C   UNL     1     -39.597  51.470 -51.712  1.00  0.00     0.002 A 
HETATM   18  C   UNL     1     -39.678  51.990 -53.004  1.00  0.00     0.025 A 
HETATM   19  C   UNL     1     -40.450  53.130 -53.258  1.00  0.00     0.046 A 
HETATM   20 CL   UNL     1     -40.479  53.716 -54.887  1.00  0.00    -0.083 Cl
ENDBRANCH   1  14
BRANCH   7  21
HETATM   21  C   UNL     1     -43.672  60.428 -50.678  1.00  0.00     0.055 A 
HETATM   22  C   UNL     1     -44.765  60.634 -49.822  1.00  0.00     0.034 A 
HETATM   23  C   UNL     1     -44.954  61.863 -49.179  1.00  0.00     0.044 A 
HETATM   24  C   UNL     1     -44.052  62.895 -49.392  1.00  0.00     0.116 A 
HETATM   25  F   UNL     1     -44.231  64.070 -48.775  1.00  0.00    -0.206 F 
HETATM   26  C   UNL     1     -42.966  62.723 -50.239  1.00  0.00     0.044 A 
HETATM   27  C   UNL     1     -42.779  61.494 -50.880  1.00  0.00     0.034 A 
ENDBRANCH   7  21
TORSDOF 2
ENDMDL
