MODEL 1
REMARK VINA RESULT:      -8.3      0.000      0.000
REMARK  4 active torsions:
REMARK  status: ('A' for Active; 'I' for Inactive)
REMARK    1  A    between atoms: C_9  and  C_10 
REMARK    2  A    between atoms: C_18  and  C_19 
REMARK       I    between atoms: C_19  and  N_20 
REMARK    3  A    between atoms: N_20  and  C_21 
REMARK    4  A    between atoms: C_24  and  O_25 
ROOT
HETATM    1  C   UNL     1     -43.566  55.183 -58.769  1.00  0.00     0.070 C 
HETATM    2  C   UNL     1     -43.182  56.403 -57.970  1.00  0.00     0.037 C 
HETATM    3  N   UNL     1     -43.228  57.606 -58.672  1.00  0.00    -0.192 N 
HETATM    4  C   UNL     1     -42.688  58.751 -58.211  1.00  0.00     0.725 A 
HETATM    5  N   UNL     1     -42.217  58.801 -56.928  1.00  0.00    -0.084 N 
HETATM    6  N   UNL     1     -41.626  59.986 -56.666  1.00  0.00    -0.149 NA
HETATM    7  C   UNL     1     -41.828  60.621 -57.826  1.00  0.00     0.275 A 
HETATM    8  N   UNL     1     -42.476  59.901 -58.797  1.00  0.00    -0.054 NA
HETATM    9  C   UNL     1     -42.226  57.657 -56.008  1.00  0.00     0.204 C 
HETATM   10  C   UNL     1     -42.731  56.387 -56.689  1.00  0.00     0.062 C 
HETATM   11  H   UNL     1     -43.501  57.573 -59.650  1.00  0.00     0.184 HD
ENDROOT
BRANCH  10  12
HETATM   12  C   UNL     1     -42.472  55.148 -55.903  1.00  0.00     0.256 C 
HETATM   13  N   UNL     1     -41.191  55.026 -55.416  1.00  0.00    -0.323 N 
HETATM   14  H   UNL     1     -40.517  55.724 -55.703  1.00  0.00     0.169 HD
HETATM   15  O   UNL     1     -43.387  54.339 -55.787  1.00  0.00    -0.267 OA
BRANCH  13  16
HETATM   16  C   UNL     1     -40.732  54.068 -54.483  1.00  0.00     0.035 A 
HETATM   17  C   UNL     1     -40.255  52.805 -54.835  1.00  0.00     0.032 A 
HETATM   18  C   UNL     1     -39.864  51.892 -53.847  1.00  0.00     0.039 A 
HETATM   19  C   UNL     1     -39.944  52.222 -52.495  1.00  0.00     0.068 A 
HETATM   20  C   UNL     1     -40.419  53.480 -52.135  1.00  0.00     0.039 A 
HETATM   21  C   UNL     1     -40.807  54.397 -53.124  1.00  0.00     0.032 A 
BRANCH  19  22
HETATM   22  O   UNL     1     -39.540  51.234 -51.643  1.00  0.00    -0.356 OA
HETATM   23  C   UNL     1     -39.599  49.899 -52.125  1.00  0.00     0.210 C 
ENDBRANCH  19  22
ENDBRANCH  13  16
ENDBRANCH  10  12
BRANCH   9  24
HETATM   24  C   UNL     1     -42.944  58.017 -54.704  1.00  0.00    -0.006 A 
HETATM   25  C   UNL     1     -42.313  58.166 -53.455  1.00  0.00     0.044 A 
HETATM   26 CL   UNL     1     -40.602  58.065 -53.251  1.00  0.00    -0.084 Cl
HETATM   27  C   UNL     1     -43.060  58.423 -52.298  1.00  0.00     0.048 A 
HETATM   28  C   UNL     1     -44.442  58.555 -52.377  1.00  0.00     0.035 A 
HETATM   29 CL   UNL     1     -45.354  58.862 -50.950  1.00  0.00    -0.084 Cl
HETATM   30  C   UNL     1     -45.089  58.444 -53.601  1.00  0.00     0.024 A 
HETATM   31  C   UNL     1     -44.347  58.178 -54.754  1.00  0.00     0.013 A 
ENDBRANCH   9  24
TORSDOF 4
ENDMDL
MODEL 2
REMARK VINA RESULT:      -8.1      1.027      1.381
REMARK  4 active torsions:
REMARK  status: ('A' for Active; 'I' for Inactive)
REMARK    1  A    between atoms: C_9  and  C_10 
REMARK    2  A    between atoms: C_18  and  C_19 
REMARK       I    between atoms: C_19  and  N_20 
REMARK    3  A    between atoms: N_20  and  C_21 
REMARK    4  A    between atoms: C_24  and  O_25 
ROOT
HETATM    1  C   UNL     1     -43.313  55.381 -58.784  1.00  0.00     0.070 C 
HETATM    2  C   UNL     1     -43.034  56.570 -57.898  1.00  0.00     0.037 C 
HETATM    3  N   UNL     1     -43.077  57.806 -58.538  1.00  0.00    -0.192 N 
HETATM    4  C   UNL     1     -42.616  58.943 -57.982  1.00  0.00     0.725 A 
HETATM    5  N   UNL     1     -42.238  58.941 -56.668  1.00  0.00    -0.084 N 
HETATM    6  N   UNL     1     -41.714  60.130 -56.304  1.00  0.00    -0.149 NA
HETATM    7  C   UNL     1     -41.858  60.819 -57.441  1.00  0.00     0.275 A 
HETATM    8  N   UNL     1     -42.408  60.130 -58.492  1.00  0.00    -0.054 NA
HETATM    9  C   UNL     1     -42.267  57.750 -55.810  1.00  0.00     0.204 C 
HETATM   10  C   UNL     1     -42.673  56.501 -56.590  1.00  0.00     0.062 C 
HETATM   11  H   UNL     1     -43.279  57.816 -59.534  1.00  0.00     0.184 HD
ENDROOT
BRANCH  10  12
HETATM   12  C   UNL     1     -42.422  55.232 -55.851  1.00  0.00     0.256 C 
HETATM   13  N   UNL     1     -41.156  55.105 -55.328  1.00  0.00    -0.323 N 
HETATM   14  H   UNL     1     -40.483  55.824 -55.560  1.00  0.00     0.169 HD
HETATM   15  O   UNL     1     -43.328  54.406 -55.803  1.00  0.00    -0.267 OA
BRANCH  13  16
HETATM   16  C   UNL     1     -40.714  54.112 -54.424  1.00  0.00     0.035 A 
HETATM   17  C   UNL     1     -40.274  52.846 -54.811  1.00  0.00     0.032 A 
HETATM   18  C   UNL     1     -39.899  51.899 -53.850  1.00  0.00     0.039 A 
HETATM   19  C   UNL     1     -39.957  52.196 -52.490  1.00  0.00     0.068 A 
HETATM   20  C   UNL     1     -40.394  53.458 -52.094  1.00  0.00     0.039 A 
HETATM   21  C   UNL     1     -40.767  54.409 -53.056  1.00  0.00     0.032 A 
BRANCH  19  22
HETATM   22  O   UNL     1     -39.571  51.177 -51.667  1.00  0.00    -0.356 OA
HETATM   23  C   UNL     1     -39.580  49.866 -52.212  1.00  0.00     0.210 C 
ENDBRANCH  19  22
ENDBRANCH  13  16
ENDBRANCH  10  12
BRANCH   9  24
HETATM   24  C   UNL     1     -43.089  58.014 -54.545  1.00  0.00    -0.006 A 
HETATM   25  C   UNL     1     -44.456  58.345 -54.531  1.00  0.00     0.044 A 
HETATM   26 CL   UNL     1     -45.424  58.393 -55.959  1.00  0.00    -0.084 Cl
HETATM   27  C   UNL     1     -45.111  58.644 -53.329  1.00  0.00     0.048 A 
HETATM   28  C   UNL     1     -44.416  58.596 -52.126  1.00  0.00     0.035 A 
HETATM   29 CL   UNL     1     -45.225  58.972 -50.655  1.00  0.00    -0.084 Cl
HETATM   30  C   UNL     1     -43.073  58.241 -52.107  1.00  0.00     0.024 A 
HETATM   31  C   UNL     1     -42.416  57.952 -53.304  1.00  0.00     0.013 A 
ENDBRANCH   9  24
TORSDOF 4
ENDMDL
MODEL 3
REMARK VINA RESULT:      -8.1      3.088      6.681
REMARK  4 active torsions:
REMARK  status: ('A' for Active; 'I' for Inactive)
REMARK    1  A    between atoms: C_9  and  C_10 
REMARK    2  A    between atoms: C_18  and  C_19 
REMARK       I    between atoms: C_19  and  N_20 
REMARK    3  A    between atoms: N_20  and  C_21 
REMARK    4  A    between atoms: C_24  and  O_25 
ROOT
HETATM    1  C   UNL     1     -45.409  59.051 -52.315  1.00  0.00     0.070 C 
HETATM    2  C   UNL     1     -43.958  58.644 -52.236  1.00  0.00     0.037 C 
HETATM    3  N   UNL     1     -43.263  59.148 -51.138  1.00  0.00    -0.192 N 
HETATM    4  C   UNL     1     -41.921  59.104 -51.029  1.00  0.00     0.725 A 
HETATM    5  N   UNL     1     -41.198  58.390 -51.944  1.00  0.00    -0.084 N 
HETATM    6  N   UNL     1     -39.871  58.533 -51.742  1.00  0.00    -0.149 NA
HETATM    7  C   UNL     1     -39.872  59.308 -50.652  1.00  0.00     0.275 A 
HETATM    8  N   UNL     1     -41.106  59.678 -50.183  1.00  0.00    -0.054 NA
HETATM    9  C   UNL     1     -41.792  57.679 -53.083  1.00  0.00     0.204 C 
HETATM   10  C   UNL     1     -43.298  57.920 -53.176  1.00  0.00     0.062 C 
HETATM   11  H   UNL     1     -43.770  59.747 -50.492  1.00  0.00     0.184 HD
ENDROOT
BRANCH  10  12
HETATM   12  C   UNL     1     -43.890  57.482 -54.471  1.00  0.00     0.256 C 
HETATM   13  N   UNL     1     -43.238  57.941 -55.593  1.00  0.00    -0.323 N 
HETATM   14  H   UNL     1     -42.483  58.601 -55.454  1.00  0.00     0.169 HD
HETATM   15  O   UNL     1     -44.907  56.796 -54.436  1.00  0.00    -0.267 OA
BRANCH  13  16
HETATM   16  C   UNL     1     -43.459  57.524 -56.925  1.00  0.00     0.035 A 
HETATM   17  C   UNL     1     -44.239  58.227 -57.843  1.00  0.00     0.032 A 
HETATM   18  C   UNL     1     -44.450  57.721 -59.132  1.00  0.00     0.039 A 
HETATM   19  C   UNL     1     -43.888  56.508 -59.526  1.00  0.00     0.068 A 
HETATM   20  C   UNL     1     -43.107  55.799 -58.616  1.00  0.00     0.039 A 
HETATM   21  C   UNL     1     -42.891  56.307 -57.326  1.00  0.00     0.032 A 
BRANCH  19  22
HETATM   22  O   UNL     1     -44.185  56.132 -60.805  1.00  0.00    -0.356 OA
HETATM   23  C   UNL     1     -45.342  55.330 -60.992  1.00  0.00     0.210 C 
ENDBRANCH  19  22
ENDBRANCH  13  16
ENDBRANCH  10  12
BRANCH   9  24
HETATM   24  C   UNL     1     -41.375  56.206 -53.079  1.00  0.00    -0.006 A 
HETATM   25  C   UNL     1     -41.524  55.333 -51.987  1.00  0.00     0.044 A 
HETATM   26 CL   UNL     1     -42.309  55.791 -50.519  1.00  0.00    -0.084 Cl
HETATM   27  C   UNL     1     -41.045  54.017 -52.047  1.00  0.00     0.048 A 
HETATM   28  C   UNL     1     -40.430  53.553 -53.204  1.00  0.00     0.035 A 
HETATM   29 CL   UNL     1     -39.836  51.939 -53.267  1.00  0.00    -0.084 Cl
HETATM   30  C   UNL     1     -40.297  54.383 -54.309  1.00  0.00     0.024 A 
HETATM   31  C   UNL     1     -40.766  55.697 -54.248  1.00  0.00     0.013 A 
ENDBRANCH   9  24
TORSDOF 4
ENDMDL
MODEL 4
REMARK VINA RESULT:      -7.7      2.911      4.689
REMARK  4 active torsions:
REMARK  status: ('A' for Active; 'I' for Inactive)
REMARK    1  A    between atoms: C_9  and  C_10 
REMARK    2  A    between atoms: C_18  and  C_19 
REMARK       I    between atoms: C_19  and  N_20 
REMARK    3  A    between atoms: N_20  and  C_21 
REMARK    4  A    between atoms: C_24  and  O_25 
ROOT
HETATM    1  C   UNL     1     -41.043  57.369 -50.122  1.00  0.00     0.070 C 
HETATM    2  C   UNL     1     -42.070  57.993 -51.034  1.00  0.00     0.037 C 
HETATM    3  N   UNL     1     -42.441  59.295 -50.701  1.00  0.00    -0.192 N 
HETATM    4  C   UNL     1     -43.509  59.919 -51.235  1.00  0.00     0.725 A 
HETATM    5  N   UNL     1     -44.177  59.332 -52.274  1.00  0.00    -0.084 N 
HETATM    6  N   UNL     1     -45.271  60.042 -52.619  1.00  0.00    -0.149 NA
HETATM    7  C   UNL     1     -45.168  61.075 -51.777  1.00  0.00     0.275 A 
HETATM    8  N   UNL     1     -44.102  61.039 -50.914  1.00  0.00    -0.054 NA
HETATM    9  C   UNL     1     -43.825  58.024 -52.839  1.00  0.00     0.204 C 
HETATM   10  C   UNL     1     -42.691  57.358 -52.061  1.00  0.00     0.062 C 
HETATM   11  H   UNL     1     -42.009  59.715 -49.883  1.00  0.00     0.184 HD
ENDROOT
BRANCH  10  12
HETATM   12  C   UNL     1     -42.507  55.918 -52.396  1.00  0.00     0.256 C 
HETATM   13  N   UNL     1     -41.245  55.579 -52.828  1.00  0.00    -0.323 N 
HETATM   14  H   UNL     1     -40.585  56.334 -52.971  1.00  0.00     0.169 HD
HETATM   15  O   UNL     1     -43.479  55.176 -52.299  1.00  0.00    -0.267 OA
BRANCH  13  16
HETATM   16  C   UNL     1     -40.742  54.272 -53.016  1.00  0.00     0.035 A 
HETATM   17  C   UNL     1     -40.669  53.636 -54.256  1.00  0.00     0.032 A 
HETATM   18  C   UNL     1     -40.203  52.319 -54.353  1.00  0.00     0.039 A 
HETATM   19  C   UNL     1     -39.805  51.614 -53.219  1.00  0.00     0.068 A 
HETATM   20  C   UNL     1     -39.874  52.241 -51.977  1.00  0.00     0.039 A 
HETATM   21  C   UNL     1     -40.336  53.562 -51.879  1.00  0.00     0.032 A 
BRANCH  19  22
HETATM   22  O   UNL     1     -39.383  50.338 -53.460  1.00  0.00    -0.356 OA
HETATM   23  C   UNL     1     -39.790  49.742 -54.684  1.00  0.00     0.210 C 
ENDBRANCH  19  22
ENDBRANCH  13  16
ENDBRANCH  10  12
BRANCH   9  24
HETATM   24  C   UNL     1     -43.593  58.130 -54.349  1.00  0.00    -0.006 A 
HETATM   25  C   UNL     1     -42.510  58.798 -54.949  1.00  0.00     0.044 A 
HETATM   26 CL   UNL     1     -41.222  59.502 -54.041  1.00  0.00    -0.084 Cl
HETATM   27  C   UNL     1     -42.417  58.910 -56.343  1.00  0.00     0.048 A 
HETATM   28  C   UNL     1     -43.393  58.341 -57.153  1.00  0.00     0.035 A 
HETATM   29 CL   UNL     1     -43.277  58.490 -58.863  1.00  0.00    -0.084 Cl
HETATM   30  C   UNL     1     -44.457  57.649 -56.589  1.00  0.00     0.024 A 
HETATM   31  C   UNL     1     -44.556  57.544 -55.201  1.00  0.00     0.013 A 
ENDBRANCH   9  24
TORSDOF 4
ENDMDL
MODEL 5
REMARK VINA RESULT:      -7.7      2.781      6.776
REMARK  4 active torsions:
REMARK  status: ('A' for Active; 'I' for Inactive)
REMARK    1  A    between atoms: C_9  and  C_10 
REMARK    2  A    between atoms: C_18  and  C_19 
REMARK       I    between atoms: C_19  and  N_20 
REMARK    3  A    between atoms: N_20  and  C_21 
REMARK    4  A    between atoms: C_24  and  O_25 
ROOT
HETATM    1  C   UNL     1     -40.446  53.273 -54.571  1.00  0.00     0.070 C 
HETATM    2  C   UNL     1     -40.865  53.947 -53.288  1.00  0.00     0.037 C 
HETATM    3  N   UNL     1     -40.122  53.590 -52.164  1.00  0.00    -0.192 N 
HETATM    4  C   UNL     1     -40.498  53.888 -50.905  1.00  0.00     0.725 A 
HETATM    5  N   UNL     1     -41.564  54.720 -50.703  1.00  0.00    -0.084 N 
HETATM    6  N   UNL     1     -41.860  54.832 -49.391  1.00  0.00    -0.149 NA
HETATM    7  C   UNL     1     -40.893  54.078 -48.858  1.00  0.00     0.275 A 
HETATM    8  N   UNL     1     -40.037  53.483 -49.750  1.00  0.00    -0.054 NA
HETATM    9  C   UNL     1     -42.368  55.299 -51.787  1.00  0.00     0.204 C 
HETATM   10  C   UNL     1     -41.932  54.778 -53.155  1.00  0.00     0.062 C 
HETATM   11  H   UNL     1     -39.376  52.911 -52.287  1.00  0.00     0.184 HD
ENDROOT
BRANCH  10  12
HETATM   12  C   UNL     1     -42.899  55.088 -54.244  1.00  0.00     0.256 C 
HETATM   13  N   UNL     1     -42.476  56.040 -55.143  1.00  0.00    -0.323 N 
HETATM   14  H   UNL     1     -41.601  56.510 -54.944  1.00  0.00     0.169 HD
HETATM   15  O   UNL     1     -43.983  54.513 -54.232  1.00  0.00    -0.267 OA
BRANCH  13  16
HETATM   16  C   UNL     1     -43.095  56.375 -56.369  1.00  0.00     0.035 A 
HETATM   17  C   UNL     1     -43.914  57.490 -56.548  1.00  0.00     0.032 A 
HETATM   18  C   UNL     1     -44.532  57.727 -57.782  1.00  0.00     0.039 A 
HETATM   19  C   UNL     1     -44.344  56.859 -58.856  1.00  0.00     0.068 A 
HETATM   20  C   UNL     1     -43.527  55.744 -58.686  1.00  0.00     0.039 A 
HETATM   21  C   UNL     1     -42.904  55.507 -57.452  1.00  0.00     0.032 A 
BRANCH  19  22
HETATM   22  O   UNL     1     -45.014  57.207 -59.995  1.00  0.00    -0.356 OA
HETATM   23  C   UNL     1     -46.289  56.616 -60.201  1.00  0.00     0.210 C 
ENDBRANCH  19  22
ENDBRANCH  13  16
ENDBRANCH  10  12
BRANCH   9  24
HETATM   24  C   UNL     1     -42.421  56.824 -51.667  1.00  0.00    -0.006 A 
HETATM   25  C   UNL     1     -43.558  57.559 -51.281  1.00  0.00     0.044 A 
HETATM   26 CL   UNL     1     -45.032  56.813 -50.782  1.00  0.00    -0.084 Cl
HETATM   27  C   UNL     1     -43.539  58.960 -51.270  1.00  0.00     0.048 A 
HETATM   28  C   UNL     1     -42.381  59.643 -51.625  1.00  0.00     0.035 A 
HETATM   29 CL   UNL     1     -42.368  61.363 -51.618  1.00  0.00    -0.084 Cl
HETATM   30  C   UNL     1     -41.235  58.943 -51.979  1.00  0.00     0.024 A 
HETATM   31  C   UNL     1     -41.255  57.547 -51.999  1.00  0.00     0.013 A 
ENDBRANCH   9  24
TORSDOF 4
ENDMDL
MODEL 6
REMARK VINA RESULT:      -7.6      2.682      4.607
REMARK  4 active torsions:
REMARK  status: ('A' for Active; 'I' for Inactive)
REMARK    1  A    between atoms: C_9  and  C_10 
REMARK    2  A    between atoms: C_18  and  C_19 
REMARK       I    between atoms: C_19  and  N_20 
REMARK    3  A    between atoms: N_20  and  C_21 
REMARK    4  A    between atoms: C_24  and  O_25 
ROOT
HETATM    1  C   UNL     1     -40.287  58.924 -51.588  1.00  0.00     0.070 C 
HETATM    2  C   UNL     1     -41.454  58.895 -52.543  1.00  0.00     0.037 C 
HETATM    3  N   UNL     1     -42.375  59.928 -52.379  1.00  0.00    -0.192 N 
HETATM    4  C   UNL     1     -43.591  59.933 -52.959  1.00  0.00     0.725 A 
HETATM    5  N   UNL     1     -43.894  58.975 -53.887  1.00  0.00    -0.084 N 
HETATM    6  N   UNL     1     -45.179  59.070 -54.291  1.00  0.00    -0.149 NA
HETATM    7  C   UNL     1     -45.573  60.145 -53.600  1.00  0.00     0.275 A 
HETATM    8  N   UNL     1     -44.631  60.704 -52.775  1.00  0.00    -0.054 NA
HETATM    9  C   UNL     1     -42.979  57.897 -54.280  1.00  0.00     0.204 C 
HETATM   10  C   UNL     1     -41.694  57.917 -53.455  1.00  0.00     0.062 C 
HETATM   11  H   UNL     1     -42.202  60.603 -51.639  1.00  0.00     0.184 HD
ENDROOT
BRANCH  10  12
HETATM   12  C   UNL     1     -40.878  56.679 -53.596  1.00  0.00     0.256 C 
HETATM   13  N   UNL     1     -41.287  55.621 -52.817  1.00  0.00    -0.323 N 
HETATM   14  H   UNL     1     -42.035  55.793 -52.157  1.00  0.00     0.169 HD
HETATM   15  O   UNL     1     -39.907  56.712 -54.346  1.00  0.00    -0.267 OA
BRANCH  13  16
HETATM   16  C   UNL     1     -40.828  54.287 -52.900  1.00  0.00     0.035 A 
HETATM   17  C   UNL     1     -40.888  53.513 -54.059  1.00  0.00     0.032 A 
HETATM   18  C   UNL     1     -40.457  52.181 -54.047  1.00  0.00     0.039 A 
HETATM   19  C   UNL     1     -39.962  51.598 -52.882  1.00  0.00     0.068 A 
HETATM   20  C   UNL     1     -39.898  52.363 -51.720  1.00  0.00     0.039 A 
HETATM   21  C   UNL     1     -40.325  53.700 -51.731  1.00  0.00     0.032 A 
BRANCH  19  22
HETATM   22  O   UNL     1     -39.588  50.291 -53.012  1.00  0.00    -0.356 OA
HETATM   23  C   UNL     1     -39.523  49.765 -54.330  1.00  0.00     0.210 C 
ENDBRANCH  19  22
ENDBRANCH  13  16
ENDBRANCH  10  12
BRANCH   9  24
HETATM   24  C   UNL     1     -42.770  57.889 -55.796  1.00  0.00    -0.006 A 
HETATM   25  C   UNL     1     -42.867  56.748 -56.614  1.00  0.00     0.044 A 
HETATM   26 CL   UNL     1     -43.350  55.202 -56.014  1.00  0.00    -0.084 Cl
HETATM   27  C   UNL     1     -42.586  56.819 -57.984  1.00  0.00     0.048 A 
HETATM   28  C   UNL     1     -42.224  58.032 -58.559  1.00  0.00     0.035 A 
HETATM   29 CL   UNL     1     -41.872  58.110 -60.241  1.00  0.00    -0.084 Cl
HETATM   30  C   UNL     1     -42.151  59.181 -57.782  1.00  0.00     0.024 A 
HETATM   31  C   UNL     1     -42.422  59.110 -56.414  1.00  0.00     0.013 A 
ENDBRANCH   9  24
TORSDOF 4
ENDMDL
MODEL 7
REMARK VINA RESULT:      -7.5      1.465      1.781
REMARK  4 active torsions:
REMARK  status: ('A' for Active; 'I' for Inactive)
REMARK    1  A    between atoms: C_9  and  C_10 
REMARK    2  A    between atoms: C_18  and  C_19 
REMARK       I    between atoms: C_19  and  N_20 
REMARK    3  A    between atoms: N_20  and  C_21 
REMARK    4  A    between atoms: C_24  and  O_25 
ROOT
HETATM    1  C   UNL     1     -43.237  55.227 -57.919  1.00  0.00     0.070 C 
HETATM    2  C   UNL     1     -42.950  56.620 -57.415  1.00  0.00     0.037 C 
HETATM    3  N   UNL     1     -42.831  57.592 -58.406  1.00  0.00    -0.192 N 
HETATM    4  C   UNL     1     -42.337  58.824 -58.178  1.00  0.00     0.725 A 
HETATM    5  N   UNL     1     -42.090  59.218 -56.892  1.00  0.00    -0.084 N 
HETATM    6  N   UNL     1     -41.509  60.436 -56.853  1.00  0.00    -0.149 NA
HETATM    7  C   UNL     1     -41.486  60.738 -58.156  1.00  0.00     0.275 A 
HETATM    8  N   UNL     1     -41.985  59.779 -59.000  1.00  0.00    -0.054 NA
HETATM    9  C   UNL     1     -42.298  58.361 -55.718  1.00  0.00     0.204 C 
HETATM   10  C   UNL     1     -42.725  56.950 -56.117  1.00  0.00     0.062 C 
HETATM   11  H   UNL     1     -42.934  57.297 -59.373  1.00  0.00     0.184 HD
ENDROOT
BRANCH  10  12
HETATM   12  C   UNL     1     -42.650  55.968 -54.999  1.00  0.00     0.256 C 
HETATM   13  N   UNL     1     -41.400  55.811 -54.447  1.00  0.00    -0.323 N 
HETATM   14  H   UNL     1     -40.631  56.293 -54.894  1.00  0.00     0.169 HD
HETATM   15  O   UNL     1     -43.674  55.365 -54.694  1.00  0.00    -0.267 OA
BRANCH  13  16
HETATM   16  C   UNL     1     -41.085  55.108 -53.261  1.00  0.00     0.035 A 
HETATM   17  C   UNL     1     -40.657  53.781 -53.232  1.00  0.00     0.032 A 
HETATM   18  C   UNL     1     -40.412  53.139 -52.012  1.00  0.00     0.039 A 
HETATM   19  C   UNL     1     -40.591  53.808 -50.802  1.00  0.00     0.068 A 
HETATM   20  C   UNL     1     -41.018  55.133 -50.821  1.00  0.00     0.039 A 
HETATM   21  C   UNL     1     -41.260  55.779 -52.043  1.00  0.00     0.032 A 
BRANCH  19  22
HETATM   22  O   UNL     1     -40.326  53.058 -49.692  1.00  0.00    -0.356 OA
HETATM   23  C   UNL     1     -40.569  53.661 -48.430  1.00  0.00     0.210 C 
ENDBRANCH  19  22
ENDBRANCH  13  16
ENDBRANCH  10  12
BRANCH   9  24
HETATM   24  C   UNL     1     -43.214  59.048 -54.701  1.00  0.00    -0.006 A 
HETATM   25  C   UNL     1     -42.813  59.484 -53.426  1.00  0.00     0.044 A 
HETATM   26 CL   UNL     1     -41.178  59.396 -52.876  1.00  0.00    -0.084 Cl
HETATM   27  C   UNL     1     -43.737  60.036 -52.530  1.00  0.00     0.048 A 
HETATM   28  C   UNL     1     -45.069  60.177 -52.903  1.00  0.00     0.035 A 
HETATM   29 CL   UNL     1     -46.202  60.847 -51.795  1.00  0.00    -0.084 Cl
HETATM   30  C   UNL     1     -45.488  59.783 -54.168  1.00  0.00     0.024 A 
HETATM   31  C   UNL     1     -44.569  59.225 -55.058  1.00  0.00     0.013 A 
ENDBRANCH   9  24
TORSDOF 4
ENDMDL
MODEL 8
REMARK VINA RESULT:      -7.2      2.852      6.234
REMARK  4 active torsions:
REMARK  status: ('A' for Active; 'I' for Inactive)
REMARK    1  A    between atoms: C_9  and  C_10 
REMARK    2  A    between atoms: C_18  and  C_19 
REMARK       I    between atoms: C_19  and  N_20 
REMARK    3  A    between atoms: N_20  and  C_21 
REMARK    4  A    between atoms: C_24  and  O_25 
ROOT
HETATM    1  C   UNL     1     -41.645  59.847 -57.418  1.00  0.00     0.070 C 
HETATM    2  C   UNL     1     -42.086  58.404 -57.434  1.00  0.00     0.037 C 
HETATM    3  N   UNL     1     -42.131  57.815 -58.696  1.00  0.00    -0.192 N 
HETATM    4  C   UNL     1     -42.730  56.633 -58.939  1.00  0.00     0.725 A 
HETATM    5  N   UNL     1     -43.175  55.880 -57.889  1.00  0.00    -0.084 N 
HETATM    6  N   UNL     1     -43.832  54.780 -58.315  1.00  0.00    -0.149 NA
HETATM    7  C   UNL     1     -43.696  54.912 -59.639  1.00  0.00     0.275 A 
HETATM    8  N   UNL     1     -43.025  56.031 -60.062  1.00  0.00    -0.054 NA
HETATM    9  C   UNL     1     -43.076  56.293 -56.484  1.00  0.00     0.204 C 
HETATM   10  C   UNL     1     -42.508  57.705 -56.349  1.00  0.00     0.062 C 
HETATM   11  H   UNL     1     -41.877  58.389 -59.495  1.00  0.00     0.184 HD
ENDROOT
BRANCH  10  12
HETATM   12  C   UNL     1     -42.672  58.283 -54.986  1.00  0.00     0.256 C 
HETATM   13  N   UNL     1     -43.976  58.436 -54.573  1.00  0.00    -0.323 N 
HETATM   14  H   UNL     1     -44.704  58.237 -55.248  1.00  0.00     0.169 HD
HETATM   15  O   UNL     1     -41.660  58.604 -54.371  1.00  0.00    -0.267 OA
BRANCH  13  16
HETATM   16  C   UNL     1     -44.414  58.766 -53.270  1.00  0.00     0.035 A 
HETATM   17  C   UNL     1     -44.659  57.826 -52.269  1.00  0.00     0.032 A 
HETATM   18  C   UNL     1     -45.139  58.229 -51.017  1.00  0.00     0.039 A 
HETATM   19  C   UNL     1     -45.384  59.573 -50.742  1.00  0.00     0.068 A 
HETATM   20  C   UNL     1     -45.142  60.519 -51.736  1.00  0.00     0.039 A 
HETATM   21  C   UNL     1     -44.657  60.117 -52.989  1.00  0.00     0.032 A 
BRANCH  19  22
HETATM   22  O   UNL     1     -45.860  59.821 -49.486  1.00  0.00    -0.356 OA
HETATM   23  C   UNL     1     -45.597  61.104 -48.936  1.00  0.00     0.210 C 
ENDBRANCH  19  22
ENDBRANCH  13  16
ENDBRANCH  10  12
BRANCH   9  24
HETATM   24  C   UNL     1     -42.353  55.227 -55.655  1.00  0.00    -0.006 A 
HETATM   25  C   UNL     1     -42.919  54.537 -54.567  1.00  0.00     0.044 A 
HETATM   26 CL   UNL     1     -44.566  54.730 -54.088  1.00  0.00    -0.084 Cl
HETATM   27  C   UNL     1     -42.159  53.630 -53.818  1.00  0.00     0.048 A 
HETATM   28  C   UNL     1     -40.833  53.386 -54.156  1.00  0.00     0.035 A 
HETATM   29 CL   UNL     1     -39.903  52.278 -53.225  1.00  0.00    -0.084 Cl
HETATM   30  C   UNL     1     -40.257  54.030 -55.244  1.00  0.00     0.024 A 
HETATM   31  C   UNL     1     -41.010  54.941 -55.987  1.00  0.00     0.013 A 
ENDBRANCH   9  24
TORSDOF 4
ENDMDL
MODEL 9
REMARK VINA RESULT:      -7.1      1.914      2.467
REMARK  4 active torsions:
REMARK  status: ('A' for Active; 'I' for Inactive)
REMARK    1  A    between atoms: C_9  and  C_10 
REMARK    2  A    between atoms: C_18  and  C_19 
REMARK       I    between atoms: C_19  and  N_20 
REMARK    3  A    between atoms: N_20  and  C_21 
REMARK    4  A    between atoms: C_24  and  O_25 
ROOT
HETATM    1  C   UNL     1     -43.229  55.034 -57.406  1.00  0.00     0.070 C 
HETATM    2  C   UNL     1     -42.991  56.436 -56.903  1.00  0.00     0.037 C 
HETATM    3  N   UNL     1     -42.880  57.408 -57.895  1.00  0.00    -0.192 N 
HETATM    4  C   UNL     1     -42.424  58.654 -57.662  1.00  0.00     0.725 A 
HETATM    5  N   UNL     1     -42.212  59.059 -56.373  1.00  0.00    -0.084 N 
HETATM    6  N   UNL     1     -41.667  60.293 -56.328  1.00  0.00    -0.149 NA
HETATM    7  C   UNL     1     -41.628  60.591 -57.632  1.00  0.00     0.275 A 
HETATM    8  N   UNL     1     -42.084  59.615 -58.481  1.00  0.00    -0.054 NA
HETATM    9  C   UNL     1     -42.419  58.201 -55.200  1.00  0.00     0.204 C 
HETATM   10  C   UNL     1     -42.799  56.777 -55.602  1.00  0.00     0.062 C 
HETATM   11  H   UNL     1     -42.956  57.107 -58.863  1.00  0.00     0.184 HD
ENDROOT
BRANCH  10  12
HETATM   12  C   UNL     1     -42.718  55.802 -54.479  1.00  0.00     0.256 C 
HETATM   13  N   UNL     1     -41.515  55.782 -53.811  1.00  0.00    -0.323 N 
HETATM   14  H   UNL     1     -40.767  56.352 -54.187  1.00  0.00     0.169 HD
HETATM   15  O   UNL     1     -43.692  55.085 -54.268  1.00  0.00    -0.267 OA
BRANCH  13  16
HETATM   16  C   UNL     1     -41.235  55.111 -52.599  1.00  0.00     0.035 A 
HETATM   17  C   UNL     1     -40.603  53.870 -52.525  1.00  0.00     0.032 A 
HETATM   18  C   UNL     1     -40.405  53.246 -51.287  1.00  0.00     0.039 A 
HETATM   19  C   UNL     1     -40.834  53.847 -50.105  1.00  0.00     0.068 A 
HETATM   20  C   UNL     1     -41.466  55.087 -50.170  1.00  0.00     0.039 A 
HETATM   21  C   UNL     1     -41.661  55.715 -51.409  1.00  0.00     0.032 A 
BRANCH  19  22
HETATM   22  O   UNL     1     -40.585  53.123 -48.974  1.00  0.00    -0.356 OA
HETATM   23  C   UNL     1     -40.169  53.843 -47.823  1.00  0.00     0.210 C 
ENDBRANCH  19  22
ENDBRANCH  13  16
ENDBRANCH  10  12
BRANCH   9  24
HETATM   24  C   UNL     1     -43.373  58.865 -54.204  1.00  0.00    -0.006 A 
HETATM   25  C   UNL     1     -44.708  59.212 -54.481  1.00  0.00     0.044 A 
HETATM   26 CL   UNL     1     -45.487  58.827 -55.973  1.00  0.00    -0.084 Cl
HETATM   27  C   UNL     1     -45.488  59.886 -53.532  1.00  0.00     0.048 A 
HETATM   28  C   UNL     1     -44.952  60.204 -52.290  1.00  0.00     0.035 A 
HETATM   29 CL   UNL     1     -45.912  61.040 -51.133  1.00  0.00    -0.084 Cl
HETATM   30  C   UNL     1     -43.646  59.847 -51.977  1.00  0.00     0.024 A 
HETATM   31  C   UNL     1     -42.865  59.183 -52.925  1.00  0.00     0.013 A 
ENDBRANCH   9  24
TORSDOF 4
ENDMDL
MODEL 10
REMARK VINA RESULT:      -6.7      2.843      3.598
REMARK  4 active torsions:
REMARK  status: ('A' for Active; 'I' for Inactive)
REMARK    1  A    between atoms: C_9  and  C_10 
REMARK    2  A    between atoms: C_18  and  C_19 
REMARK       I    between atoms: C_19  and  N_20 
REMARK    3  A    between atoms: N_20  and  C_21 
REMARK    4  A    between atoms: C_24  and  O_25 
ROOT
HETATM    1  C   UNL     1     -43.223  53.611 -55.830  1.00  0.00     0.070 C 
HETATM    2  C   UNL     1     -43.198  54.938 -56.545  1.00  0.00     0.037 C 
HETATM    3  N   UNL     1     -43.658  54.909 -57.860  1.00  0.00    -0.192 N 
HETATM    4  C   UNL     1     -43.481  55.923 -58.728  1.00  0.00     0.725 A 
HETATM    5  N   UNL     1     -42.979  57.112 -58.275  1.00  0.00    -0.084 N 
HETATM    6  N   UNL     1     -42.777  57.979 -59.289  1.00  0.00    -0.149 NA
HETATM    7  C   UNL     1     -43.232  57.260 -60.321  1.00  0.00     0.275 A 
HETATM    8  N   UNL     1     -43.674  55.997 -60.020  1.00  0.00    -0.054 NA
HETATM    9  C   UNL     1     -42.577  57.355 -56.884  1.00  0.00     0.204 C 
HETATM   10  C   UNL     1     -42.694  56.092 -56.034  1.00  0.00     0.062 C 
HETATM   11  H   UNL     1     -43.961  54.014 -58.235  1.00  0.00     0.184 HD
ENDROOT
BRANCH  10  12
HETATM   12  C   UNL     1     -42.016  56.201 -54.712  1.00  0.00     0.256 C 
HETATM   13  N   UNL     1     -42.819  55.944 -53.624  1.00  0.00    -0.323 N 
HETATM   14  H   UNL     1     -43.805  55.797 -53.800  1.00  0.00     0.169 HD
HETATM   15  O   UNL     1     -40.837  56.540 -54.696  1.00  0.00    -0.267 OA
BRANCH  13  16
HETATM   16  C   UNL     1     -42.397  55.780 -52.285  1.00  0.00     0.035 A 
HETATM   17  C   UNL     1     -41.867  56.808 -51.504  1.00  0.00     0.032 A 
HETATM   18  C   UNL     1     -41.425  56.553 -50.200  1.00  0.00     0.039 A 
HETATM   19  C   UNL     1     -41.502  55.274 -49.654  1.00  0.00     0.068 A 
HETATM   20  C   UNL     1     -42.030  54.242 -50.426  1.00  0.00     0.039 A 
HETATM   21  C   UNL     1     -42.477  54.496 -51.732  1.00  0.00     0.032 A 
BRANCH  19  22
HETATM   22  O   UNL     1     -41.026  55.169 -48.378  1.00  0.00    -0.356 OA
HETATM   23  C   UNL     1     -40.306  53.989 -48.051  1.00  0.00     0.210 C 
ENDBRANCH  19  22
ENDBRANCH  13  16
ENDBRANCH  10  12
BRANCH   9  24
HETATM   24  C   UNL     1     -43.298  58.581 -56.318  1.00  0.00    -0.006 A 
HETATM   25  C   UNL     1     -42.837  59.905 -56.429  1.00  0.00     0.044 A 
HETATM   26 CL   UNL     1     -41.427  60.335 -57.329  1.00  0.00    -0.084 Cl
HETATM   27  C   UNL     1     -43.523  60.960 -55.815  1.00  0.00     0.048 A 
HETATM   28  C   UNL     1     -44.689  60.709 -55.099  1.00  0.00     0.035 A 
HETATM   29 CL   UNL     1     -45.522  62.009 -54.340  1.00  0.00    -0.084 Cl
HETATM   30  C   UNL     1     -45.185  59.416 -54.999  1.00  0.00     0.024 A 
HETATM   31  C   UNL     1     -44.496  58.362 -55.603  1.00  0.00     0.013 A 
ENDBRANCH   9  24
TORSDOF 4
ENDMDL
