MODEL 1
REMARK VINA RESULT:      -8.6      0.000      0.000
REMARK  8 active torsions:
REMARK  status: ('A' for Active; 'I' for Inactive)
REMARK    1  A    between atoms: C_2  and  C_3 
REMARK    2  A    between atoms: C_4  and  N_5 
REMARK    3  A    between atoms: N_5  and  S_6 
REMARK    4  A    between atoms: S_6  and  C_7 
REMARK    5  A    between atoms: C_13  and  C_14 
REMARK       I    between atoms: C_14  and  N_15 
REMARK    6  A    between atoms: N_15  and  C_16 
REMARK    7  A    between atoms: C_16  and  C_17 
REMARK    8  A    between atoms: C_17  and  O_18 
ROOT
HETATM    1  C   UNL     1     -42.003  56.007 -53.497  1.00  0.00     0.081 A 
HETATM    2  C   UNL     1     -43.094  56.456 -52.749  1.00  0.00     0.043 A 
HETATM    3  C   UNL     1     -43.078  57.760 -52.240  1.00  0.00     0.043 A 
HETATM    4  C   UNL     1     -42.007  58.630 -52.515  1.00  0.00     0.046 A 
HETATM    5  N   UNL     1     -42.007  59.923 -51.981  1.00  0.00    -0.364 N 
HETATM    6  C   UNL     1     -43.073  60.381 -51.252  1.00  0.00     0.109 A 
HETATM    7  C   UNL     1     -44.154  59.658 -50.912  1.00  0.00     0.098 A 
HETATM    8  C   UNL     1     -44.198  58.247 -51.390  1.00  0.00     0.201 A 
HETATM    9  O   UNL     1     -45.121  57.492 -51.095  1.00  0.00    -0.286 OA
HETATM   10  C   UNL     1     -40.927  58.163 -53.270  1.00  0.00     0.032 A 
HETATM   11  C   UNL     1     -40.925  56.857 -53.766  1.00  0.00     0.027 A 
HETATM   12  H   UNL     1     -41.310  60.591 -52.293  1.00  0.00     0.165 HD
ENDROOT
BRANCH   1  13
HETATM   13  S   UNL     1     -42.027  54.369 -54.185  1.00  0.00     0.263 S 
HETATM   14  O   UNL     1     -42.234  54.512 -55.613  1.00  0.00    -0.200 OA
HETATM   15  O   UNL     1     -42.911  53.551 -53.387  1.00  0.00    -0.200 OA
BRANCH  13  16
HETATM   16  N   UNL     1     -40.422  53.862 -54.011  1.00  0.00    -0.280 N 
HETATM   17  H   UNL     1     -39.870  54.159 -54.813  1.00  0.00     0.179 HD
BRANCH  16  18
HETATM   18  C   UNL     1     -40.190  52.540 -53.528  1.00  0.00     0.049 A 
HETATM   19  C   UNL     1     -39.876  52.296 -52.180  1.00  0.00    -0.031 A 
HETATM   20  C   UNL     1     -39.616  50.974 -51.782  1.00  0.00     0.009 A 
HETATM   21  C   UNL     1     -39.653  49.926 -52.704  1.00  0.00     0.001 A 
HETATM   22  C   UNL     1     -39.962  50.183 -54.036  1.00  0.00     0.002 A 
HETATM   23  C   UNL     1     -40.231  51.487 -54.447  1.00  0.00     0.030 A 
BRANCH  19  24
HETATM   24  C   UNL     1     -39.835  53.385 -51.135  1.00  0.00     0.036 C 
HETATM   25  C   UNL     1     -41.157  53.503 -50.390  1.00  0.00     0.010 C 
ENDBRANCH  19  24
ENDBRANCH  16  18
ENDBRANCH  13  16
ENDBRANCH   1  13
BRANCH   7  26
HETATM   26  C   UNL     1     -45.204  60.307 -50.077  1.00  0.00     0.257 C 
HETATM   27  N   UNL     1     -44.843  60.589 -48.786  1.00  0.00    -0.355 N 
HETATM   28  H   UNL     1     -43.956  60.224 -48.436  1.00  0.00     0.162 HD
HETATM   29  O   UNL     1     -46.316  60.573 -50.531  1.00  0.00    -0.267 OA
BRANCH  27  30
HETATM   30  C   UNL     1     -45.764  61.169 -47.827  1.00  0.00     0.149 C 
BRANCH  30  31
HETATM   31  C   UNL     1     -45.869  60.341 -46.546  1.00  0.00     0.186 C 
BRANCH  31  32
HETATM   32  O   UNL     1     -46.584  59.133 -46.829  1.00  0.00    -0.394 OA
HETATM   33  C   UNL     1     -47.152  58.574 -45.651  1.00  0.00     0.201 C 
ENDBRANCH  31  32
ENDBRANCH  30  31
ENDBRANCH  27  30
ENDBRANCH   7  26
TORSDOF 8
ENDMDL
MODEL 2
REMARK VINA RESULT:      -8.1      3.785      6.365
REMARK  8 active torsions:
REMARK  status: ('A' for Active; 'I' for Inactive)
REMARK    1  A    between atoms: C_2  and  C_3 
REMARK    2  A    between atoms: C_4  and  N_5 
REMARK    3  A    between atoms: N_5  and  S_6 
REMARK    4  A    between atoms: S_6  and  C_7 
REMARK    5  A    between atoms: C_13  and  C_14 
REMARK       I    between atoms: C_14  and  N_15 
REMARK    6  A    between atoms: N_15  and  C_16 
REMARK    7  A    between atoms: C_16  and  C_17 
REMARK    8  A    between atoms: C_17  and  O_18 
ROOT
HETATM    1  C   UNL     1     -41.481  55.680 -51.449  1.00  0.00     0.081 A 
HETATM    2  C   UNL     1     -41.777  55.812 -52.808  1.00  0.00     0.043 A 
HETATM    3  C   UNL     1     -41.772  57.088 -53.382  1.00  0.00     0.043 A 
HETATM    4  C   UNL     1     -41.426  58.222 -52.623  1.00  0.00     0.046 A 
HETATM    5  N   UNL     1     -41.445  59.488 -53.216  1.00  0.00    -0.364 N 
HETATM    6  C   UNL     1     -41.725  59.634 -54.551  1.00  0.00     0.109 A 
HETATM    7  C   UNL     1     -42.075  58.642 -55.388  1.00  0.00     0.098 A 
HETATM    8  C   UNL     1     -42.140  57.268 -54.813  1.00  0.00     0.201 A 
HETATM    9  O   UNL     1     -42.493  56.302 -55.484  1.00  0.00    -0.286 OA
HETATM   10  C   UNL     1     -41.129  58.067 -51.266  1.00  0.00     0.032 A 
HETATM   11  C   UNL     1     -41.150  56.799 -50.678  1.00  0.00     0.027 A 
HETATM   12  H   UNL     1     -41.062  60.281 -52.712  1.00  0.00     0.165 HD
ENDROOT
BRANCH   1  13
HETATM   13  S   UNL     1     -41.442  54.062 -50.714  1.00  0.00     0.263 S 
HETATM   14  O   UNL     1     -42.395  53.243 -51.438  1.00  0.00    -0.200 OA
HETATM   15  O   UNL     1     -41.530  54.209 -49.280  1.00  0.00    -0.200 OA
BRANCH  13  16
HETATM   16  N   UNL     1     -39.916  53.480 -51.162  1.00  0.00    -0.280 N 
HETATM   17  H   UNL     1     -39.413  54.187 -51.696  1.00  0.00     0.179 HD
BRANCH  16  18
HETATM   18  C   UNL     1     -39.828  52.137 -51.635  1.00  0.00     0.049 A 
HETATM   19  C   UNL     1     -39.858  51.840 -53.009  1.00  0.00    -0.031 A 
HETATM   20  C   UNL     1     -39.811  50.493 -53.403  1.00  0.00     0.009 A 
HETATM   21  C   UNL     1     -39.750  49.469 -52.455  1.00  0.00     0.001 A 
HETATM   22  C   UNL     1     -39.724  49.778 -51.099  1.00  0.00     0.002 A 
HETATM   23  C   UNL     1     -39.761  51.110 -50.690  1.00  0.00     0.030 A 
BRANCH  19  24
HETATM   24  C   UNL     1     -39.909  52.904 -54.079  1.00  0.00     0.036 C 
HETATM   25  C   UNL     1     -41.286  52.989 -54.724  1.00  0.00     0.010 C 
ENDBRANCH  19  24
ENDBRANCH  16  18
ENDBRANCH  13  16
ENDBRANCH   1  13
BRANCH   7  26
HETATM   26  C   UNL     1     -42.385  58.988 -56.803  1.00  0.00     0.257 C 
HETATM   27  N   UNL     1     -42.061  58.033 -57.730  1.00  0.00    -0.355 N 
HETATM   28  H   UNL     1     -41.515  57.225 -57.430  1.00  0.00     0.162 HD
HETATM   29  O   UNL     1     -42.905  60.060 -57.106  1.00  0.00    -0.267 OA
BRANCH  27  30
HETATM   30  C   UNL     1     -42.247  58.234 -59.155  1.00  0.00     0.149 C 
BRANCH  30  31
HETATM   31  C   UNL     1     -41.947  56.972 -59.964  1.00  0.00     0.186 C 
BRANCH  31  32
HETATM   32  O   UNL     1     -43.168  56.474 -60.522  1.00  0.00    -0.394 OA
HETATM   33  C   UNL     1     -43.695  55.402 -59.751  1.00  0.00     0.201 C 
ENDBRANCH  31  32
ENDBRANCH  30  31
ENDBRANCH  27  30
ENDBRANCH   7  26
TORSDOF 8
ENDMDL
MODEL 3
REMARK VINA RESULT:      -8.0      3.702      6.541
REMARK  8 active torsions:
REMARK  status: ('A' for Active; 'I' for Inactive)
REMARK    1  A    between atoms: C_2  and  C_3 
REMARK    2  A    between atoms: C_4  and  N_5 
REMARK    3  A    between atoms: N_5  and  S_6 
REMARK    4  A    between atoms: S_6  and  C_7 
REMARK    5  A    between atoms: C_13  and  C_14 
REMARK       I    between atoms: C_14  and  N_15 
REMARK    6  A    between atoms: N_15  and  C_16 
REMARK    7  A    between atoms: C_16  and  C_17 
REMARK    8  A    between atoms: C_17  and  O_18 
ROOT
HETATM    1  C   UNL     1     -43.227  55.963 -51.802  1.00  0.00     0.081 A 
HETATM    2  C   UNL     1     -43.228  56.018 -53.198  1.00  0.00     0.043 A 
HETATM    3  C   UNL     1     -43.907  57.062 -53.836  1.00  0.00     0.043 A 
HETATM    4  C   UNL     1     -44.540  58.075 -53.092  1.00  0.00     0.046 A 
HETATM    5  N   UNL     1     -45.226  59.098 -53.753  1.00  0.00    -0.364 N 
HETATM    6  C   UNL     1     -45.229  59.171 -55.122  1.00  0.00     0.109 A 
HETATM    7  C   UNL     1     -44.672  58.272 -55.952  1.00  0.00     0.098 A 
HETATM    8  C   UNL     1     -43.976  57.115 -55.322  1.00  0.00     0.201 A 
HETATM    9  O   UNL     1     -43.474  56.217 -55.994  1.00  0.00    -0.286 OA
HETATM   10  C   UNL     1     -44.523  58.005 -51.695  1.00  0.00     0.032 A 
HETATM   11  C   UNL     1     -43.864  56.955 -51.049  1.00  0.00     0.027 A 
HETATM   12  H   UNL     1     -45.557  59.899 -53.225  1.00  0.00     0.165 HD
ENDROOT
BRANCH   1  13
HETATM   13  S   UNL     1     -42.334  54.668 -50.977  1.00  0.00     0.263 S 
HETATM   14  O   UNL     1     -43.051  53.432 -51.226  1.00  0.00    -0.200 OA
HETATM   15  O   UNL     1     -42.047  55.098 -49.627  1.00  0.00    -0.200 OA
BRANCH  13  16
HETATM   16  N   UNL     1     -40.909  54.553 -51.883  1.00  0.00    -0.280 N 
HETATM   17  H   UNL     1     -40.897  55.266 -52.611  1.00  0.00     0.179 HD
BRANCH  16  18
HETATM   18  C   UNL     1     -40.457  53.252 -52.253  1.00  0.00     0.049 A 
HETATM   19  C   UNL     1     -40.589  52.776 -53.568  1.00  0.00    -0.031 A 
HETATM   20  C   UNL     1     -40.163  51.468 -53.853  1.00  0.00     0.009 A 
HETATM   21  C   UNL     1     -39.633  50.652 -52.852  1.00  0.00     0.001 A 
HETATM   22  C   UNL     1     -39.511  51.135 -51.553  1.00  0.00     0.002 A 
HETATM   23  C   UNL     1     -39.921  52.433 -51.255  1.00  0.00     0.030 A 
BRANCH  19  24
HETATM   24  C   UNL     1     -41.142  53.616 -54.695  1.00  0.00     0.036 C 
HETATM   25  C   UNL     1     -40.122  54.629 -55.195  1.00  0.00     0.010 C 
ENDBRANCH  19  24
ENDBRANCH  16  18
ENDBRANCH  13  16
ENDBRANCH   1  13
BRANCH   7  26
HETATM   26  C   UNL     1     -44.807  58.488 -57.420  1.00  0.00     0.257 C 
HETATM   27  N   UNL     1     -45.279  57.418 -58.133  1.00  0.00    -0.355 N 
HETATM   28  H   UNL     1     -45.375  56.519 -57.661  1.00  0.00     0.162 HD
HETATM   29  O   UNL     1     -44.517  59.562 -57.943  1.00  0.00    -0.267 OA
BRANCH  27  30
HETATM   30  C   UNL     1     -45.418  57.444 -59.578  1.00  0.00     0.149 C 
BRANCH  30  31
HETATM   31  C   UNL     1     -44.954  56.141 -60.230  1.00  0.00     0.186 C 
BRANCH  31  32
HETATM   32  O   UNL     1     -43.613  56.308 -60.703  1.00  0.00    -0.394 OA
HETATM   33  C   UNL     1     -42.660  55.952 -59.709  1.00  0.00     0.201 C 
ENDBRANCH  31  32
ENDBRANCH  30  31
ENDBRANCH  27  30
ENDBRANCH   7  26
TORSDOF 8
ENDMDL
MODEL 4
REMARK VINA RESULT:      -7.8      1.703      2.664
REMARK  8 active torsions:
REMARK  status: ('A' for Active; 'I' for Inactive)
REMARK    1  A    between atoms: C_2  and  C_3 
REMARK    2  A    between atoms: C_4  and  N_5 
REMARK    3  A    between atoms: N_5  and  S_6 
REMARK    4  A    between atoms: S_6  and  C_7 
REMARK    5  A    between atoms: C_13  and  C_14 
REMARK       I    between atoms: C_14  and  N_15 
REMARK    6  A    between atoms: N_15  and  C_16 
REMARK    7  A    between atoms: C_16  and  C_17 
REMARK    8  A    between atoms: C_17  and  O_18 
ROOT
HETATM    1  C   UNL     1     -42.975  56.638 -54.360  1.00  0.00     0.081 A 
HETATM    2  C   UNL     1     -42.725  57.326 -53.171  1.00  0.00     0.043 A 
HETATM    3  C   UNL     1     -43.625  58.314 -52.757  1.00  0.00     0.043 A 
HETATM    4  C   UNL     1     -44.793  58.584 -53.493  1.00  0.00     0.046 A 
HETATM    5  N   UNL     1     -45.668  59.588 -53.067  1.00  0.00    -0.364 N 
HETATM    6  C   UNL     1     -45.442  60.267 -51.898  1.00  0.00     0.109 A 
HETATM    7  C   UNL     1     -44.368  60.115 -51.103  1.00  0.00     0.098 A 
HETATM    8  C   UNL     1     -43.356  59.105 -51.525  1.00  0.00     0.201 A 
HETATM    9  O   UNL     1     -42.319  58.924 -50.891  1.00  0.00    -0.286 OA
HETATM   10  C   UNL     1     -45.028  57.880 -54.678  1.00  0.00     0.032 A 
HETATM   11  C   UNL     1     -44.125  56.905 -55.111  1.00  0.00     0.027 A 
HETATM   12  H   UNL     1     -46.574  59.684 -53.515  1.00  0.00     0.165 HD
ENDROOT
BRANCH   1  13
HETATM   13  S   UNL     1     -41.865  55.351 -54.878  1.00  0.00     0.263 S 
HETATM   14  O   UNL     1     -40.554  55.686 -54.358  1.00  0.00    -0.200 OA
HETATM   15  O   UNL     1     -42.064  55.116 -56.290  1.00  0.00    -0.200 OA
BRANCH  13  16
HETATM   16  N   UNL     1     -42.382  54.018 -53.971  1.00  0.00    -0.280 N 
HETATM   17  H   UNL     1     -43.388  54.063 -53.823  1.00  0.00     0.179 HD
BRANCH  16  18
HETATM   18  C   UNL     1     -41.586  53.622 -52.855  1.00  0.00     0.049 A 
HETATM   19  C   UNL     1     -40.544  52.689 -52.992  1.00  0.00    -0.031 A 
HETATM   20  C   UNL     1     -39.829  52.311 -51.843  1.00  0.00     0.009 A 
HETATM   21  C   UNL     1     -40.154  52.836 -50.591  1.00  0.00     0.001 A 
HETATM   22  C   UNL     1     -41.190  53.757 -50.470  1.00  0.00     0.002 A 
HETATM   23  C   UNL     1     -41.904  54.150 -51.601  1.00  0.00     0.030 A 
BRANCH  19  24
HETATM   24  C   UNL     1     -40.140  52.097 -54.321  1.00  0.00     0.036 C 
HETATM   25  C   UNL     1     -40.091  50.576 -54.269  1.00  0.00     0.010 C 
ENDBRANCH  19  24
ENDBRANCH  16  18
ENDBRANCH  13  16
ENDBRANCH   1  13
BRANCH   7  26
HETATM   26  C   UNL     1     -44.263  60.968 -49.886  1.00  0.00     0.257 C 
HETATM   27  N   UNL     1     -45.082  60.617 -48.846  1.00  0.00    -0.355 N 
HETATM   28  H   UNL     1     -45.796  59.905 -49.003  1.00  0.00     0.162 HD
HETATM   29  O   UNL     1     -43.484  61.918 -49.830  1.00  0.00    -0.267 OA
BRANCH  27  30
HETATM   30  C   UNL     1     -45.143  61.377 -47.610  1.00  0.00     0.149 C 
BRANCH  30  31
HETATM   31  C   UNL     1     -45.570  60.518 -46.420  1.00  0.00     0.186 C 
BRANCH  31  32
HETATM   32  O   UNL     1     -46.553  59.572 -46.856  1.00  0.00    -0.394 OA
HETATM   33  C   UNL     1     -46.959  58.715 -45.797  1.00  0.00     0.201 C 
ENDBRANCH  31  32
ENDBRANCH  30  31
ENDBRANCH  27  30
ENDBRANCH   7  26
TORSDOF 8
ENDMDL
MODEL 5
REMARK VINA RESULT:      -7.6      3.734      6.461
REMARK  8 active torsions:
REMARK  status: ('A' for Active; 'I' for Inactive)
REMARK    1  A    between atoms: C_2  and  C_3 
REMARK    2  A    between atoms: C_4  and  N_5 
REMARK    3  A    between atoms: N_5  and  S_6 
REMARK    4  A    between atoms: S_6  and  C_7 
REMARK    5  A    between atoms: C_13  and  C_14 
REMARK       I    between atoms: C_14  and  N_15 
REMARK    6  A    between atoms: N_15  and  C_16 
REMARK    7  A    between atoms: C_16  and  C_17 
REMARK    8  A    between atoms: C_17  and  O_18 
ROOT
HETATM    1  C   UNL     1     -41.759  56.066 -51.783  1.00  0.00     0.081 A 
HETATM    2  C   UNL     1     -42.077  56.000 -53.142  1.00  0.00     0.043 A 
HETATM    3  C   UNL     1     -42.051  57.174 -53.902  1.00  0.00     0.043 A 
HETATM    4  C   UNL     1     -41.663  58.399 -53.329  1.00  0.00     0.046 A 
HETATM    5  N   UNL     1     -41.661  59.561 -54.107  1.00  0.00    -0.364 N 
HETATM    6  C   UNL     1     -41.962  59.512 -55.443  1.00  0.00     0.109 A 
HETATM    7  C   UNL     1     -42.353  58.415 -56.115  1.00  0.00     0.098 A 
HETATM    8  C   UNL     1     -42.442  57.146 -55.338  1.00  0.00     0.201 A 
HETATM    9  O   UNL     1     -42.832  56.100 -55.851  1.00  0.00    -0.286 OA
HETATM   10  C   UNL     1     -41.343  58.443 -51.969  1.00  0.00     0.032 A 
HETATM   11  C   UNL     1     -41.385  57.279 -51.196  1.00  0.00     0.027 A 
HETATM   12  H   UNL     1     -41.248  60.410 -53.734  1.00  0.00     0.165 HD
ENDROOT
BRANCH   1  13
HETATM   13  S   UNL     1     -41.747  54.577 -50.813  1.00  0.00     0.263 S 
HETATM   14  O   UNL     1     -42.717  53.676 -51.404  1.00  0.00    -0.200 OA
HETATM   15  O   UNL     1     -41.828  54.940 -49.417  1.00  0.00    -0.200 OA
BRANCH  13  16
HETATM   16  N   UNL     1     -40.234  53.906 -51.169  1.00  0.00    -0.280 N 
HETATM   17  H   UNL     1     -39.514  54.626 -51.139  1.00  0.00     0.179 HD
BRANCH  16  18
HETATM   18  C   UNL     1     -40.157  52.967 -52.240  1.00  0.00     0.049 A 
HETATM   19  C   UNL     1     -39.954  51.597 -52.001  1.00  0.00    -0.031 A 
HETATM   20  C   UNL     1     -39.843  50.734 -53.105  1.00  0.00     0.009 A 
HETATM   21  C   UNL     1     -39.919  51.225 -54.410  1.00  0.00     0.001 A 
HETATM   22  C   UNL     1     -40.117  52.584 -54.631  1.00  0.00     0.002 A 
HETATM   23  C   UNL     1     -40.237  53.453 -53.548  1.00  0.00     0.030 A 
BRANCH  19  24
HETATM   24  C   UNL     1     -39.877  51.007 -50.613  1.00  0.00     0.036 C 
HETATM   25  C   UNL     1     -39.717  49.494 -50.652  1.00  0.00     0.010 C 
ENDBRANCH  19  24
ENDBRANCH  16  18
ENDBRANCH  13  16
ENDBRANCH   1  13
BRANCH   7  26
HETATM   26  C   UNL     1     -42.681  58.552 -57.562  1.00  0.00     0.257 C 
HETATM   27  N   UNL     1     -42.099  57.630 -58.390  1.00  0.00    -0.355 N 
HETATM   28  H   UNL     1     -41.386  57.009 -58.007  1.00  0.00     0.162 HD
HETATM   29  O   UNL     1     -43.433  59.435 -57.972  1.00  0.00    -0.267 OA
BRANCH  27  30
HETATM   30  C   UNL     1     -42.272  57.657 -59.831  1.00  0.00     0.149 C 
BRANCH  30  31
HETATM   31  C   UNL     1     -43.532  56.917 -60.280  1.00  0.00     0.186 C 
BRANCH  31  32
HETATM   32  O   UNL     1     -43.679  55.727 -59.497  1.00  0.00    -0.394 OA
HETATM   33  C   UNL     1     -44.443  54.743 -60.182  1.00  0.00     0.201 C 
ENDBRANCH  31  32
ENDBRANCH  30  31
ENDBRANCH  27  30
ENDBRANCH   7  26
TORSDOF 8
ENDMDL
MODEL 6
REMARK VINA RESULT:      -7.4      2.792      3.745
REMARK  8 active torsions:
REMARK  status: ('A' for Active; 'I' for Inactive)
REMARK    1  A    between atoms: C_2  and  C_3 
REMARK    2  A    between atoms: C_4  and  N_5 
REMARK    3  A    between atoms: N_5  and  S_6 
REMARK    4  A    between atoms: S_6  and  C_7 
REMARK    5  A    between atoms: C_13  and  C_14 
REMARK       I    between atoms: C_14  and  N_15 
REMARK    6  A    between atoms: N_15  and  C_16 
REMARK    7  A    between atoms: C_16  and  C_17 
REMARK    8  A    between atoms: C_17  and  O_18 
ROOT
HETATM    1  C   UNL     1     -42.452  56.102 -51.775  1.00  0.00     0.081 A 
HETATM    2  C   UNL     1     -43.583  56.784 -51.321  1.00  0.00     0.043 A 
HETATM    3  C   UNL     1     -43.884  58.037 -51.865  1.00  0.00     0.043 A 
HETATM    4  C   UNL     1     -43.094  58.589 -52.891  1.00  0.00     0.046 A 
HETATM    5  N   UNL     1     -43.406  59.851 -53.407  1.00  0.00    -0.364 N 
HETATM    6  C   UNL     1     -44.518  60.529 -52.978  1.00  0.00     0.109 A 
HETATM    7  C   UNL     1     -45.352  60.123 -52.005  1.00  0.00     0.098 A 
HETATM    8  C   UNL     1     -45.049  58.814 -51.361  1.00  0.00     0.201 A 
HETATM    9  O   UNL     1     -45.725  58.378 -50.433  1.00  0.00    -0.286 OA
HETATM   10  C   UNL     1     -41.969  57.888 -53.335  1.00  0.00     0.032 A 
HETATM   11  C   UNL     1     -41.649  56.644 -52.784  1.00  0.00     0.027 A 
HETATM   12  H   UNL     1     -42.926  60.183 -54.237  1.00  0.00     0.165 HD
ENDROOT
BRANCH   1  13
HETATM   13  S   UNL     1     -42.080  54.491 -51.124  1.00  0.00     0.263 S 
HETATM   14  O   UNL     1     -42.958  53.550 -51.793  1.00  0.00    -0.200 OA
HETATM   15  O   UNL     1     -42.047  54.576 -49.682  1.00  0.00    -0.200 OA
BRANCH  13  16
HETATM   16  N   UNL     1     -40.534  54.181 -51.741  1.00  0.00    -0.280 N 
HETATM   17  H   UNL     1     -40.215  54.969 -52.301  1.00  0.00     0.179 HD
BRANCH  16  18
HETATM   18  C   UNL     1     -40.272  52.878 -52.259  1.00  0.00     0.049 A 
HETATM   19  C   UNL     1     -40.546  52.553 -53.598  1.00  0.00    -0.031 A 
HETATM   20  C   UNL     1     -40.304  51.238 -54.031  1.00  0.00     0.009 A 
HETATM   21  C   UNL     1     -39.817  50.271 -53.150  1.00  0.00     0.001 A 
HETATM   22  C   UNL     1     -39.553  50.607 -51.825  1.00  0.00     0.002 A 
HETATM   23  C   UNL     1     -39.779  51.908 -51.382  1.00  0.00     0.030 A 
BRANCH  19  24
HETATM   24  C   UNL     1     -41.060  53.559 -54.600  1.00  0.00     0.036 C 
HETATM   25  C   UNL     1     -39.930  54.380 -55.207  1.00  0.00     0.010 C 
ENDBRANCH  19  24
ENDBRANCH  16  18
ENDBRANCH  13  16
ENDBRANCH   1  13
BRANCH   7  26
HETATM   26  C   UNL     1     -46.492  61.009 -51.637  1.00  0.00     0.257 C 
HETATM   27  N   UNL     1     -47.309  61.382 -52.671  1.00  0.00    -0.355 N 
HETATM   28  H   UNL     1     -47.024  61.158 -53.625  1.00  0.00     0.162 HD
HETATM   29  O   UNL     1     -46.680  61.370 -50.477  1.00  0.00    -0.267 OA
BRANCH  27  30
HETATM   30  C   UNL     1     -48.431  62.285 -52.493  1.00  0.00     0.149 C 
BRANCH  30  31
HETATM   31  C   UNL     1     -49.477  62.139 -53.598  1.00  0.00     0.186 C 
BRANCH  31  32
HETATM   32  O   UNL     1     -50.729  61.772 -53.010  1.00  0.00    -0.394 OA
HETATM   33  C   UNL     1     -51.732  61.572 -53.998  1.00  0.00     0.201 C 
ENDBRANCH  31  32
ENDBRANCH  30  31
ENDBRANCH  27  30
ENDBRANCH   7  26
TORSDOF 8
ENDMDL
MODEL 7
REMARK VINA RESULT:      -7.4      5.550      8.207
REMARK  8 active torsions:
REMARK  status: ('A' for Active; 'I' for Inactive)
REMARK    1  A    between atoms: C_2  and  C_3 
REMARK    2  A    between atoms: C_4  and  N_5 
REMARK    3  A    between atoms: N_5  and  S_6 
REMARK    4  A    between atoms: S_6  and  C_7 
REMARK    5  A    between atoms: C_13  and  C_14 
REMARK       I    between atoms: C_14  and  N_15 
REMARK    6  A    between atoms: N_15  and  C_16 
REMARK    7  A    between atoms: C_16  and  C_17 
REMARK    8  A    between atoms: C_17  and  O_18 
ROOT
HETATM    1  C   UNL     1     -42.341  56.353 -55.730  1.00  0.00     0.081 A 
HETATM    2  C   UNL     1     -42.098  57.613 -56.282  1.00  0.00     0.043 A 
HETATM    3  C   UNL     1     -42.348  57.816 -57.644  1.00  0.00     0.043 A 
HETATM    4  C   UNL     1     -42.884  56.790 -58.443  1.00  0.00     0.046 A 
HETATM    5  N   UNL     1     -43.109  57.013 -59.804  1.00  0.00    -0.364 N 
HETATM    6  C   UNL     1     -42.883  58.246 -60.360  1.00  0.00     0.109 A 
HETATM    7  C   UNL     1     -42.370  59.309 -59.717  1.00  0.00     0.098 A 
HETATM    8  C   UNL     1     -42.043  59.130 -58.274  1.00  0.00     0.201 A 
HETATM    9  O   UNL     1     -41.529  60.027 -57.611  1.00  0.00    -0.286 OA
HETATM   10  C   UNL     1     -43.125  55.537 -57.869  1.00  0.00     0.032 A 
HETATM   11  C   UNL     1     -42.861  55.318 -56.515  1.00  0.00     0.027 A 
HETATM   12  H   UNL     1     -43.624  56.326 -60.345  1.00  0.00     0.165 HD
ENDROOT
BRANCH   1  13
HETATM   13  S   UNL     1     -42.069  56.090 -53.993  1.00  0.00     0.263 S 
HETATM   14  O   UNL     1     -43.057  56.881 -53.285  1.00  0.00    -0.200 OA
HETATM   15  O   UNL     1     -40.659  56.250 -53.722  1.00  0.00    -0.200 OA
BRANCH  13  16
HETATM   16  N   UNL     1     -42.541  54.479 -53.776  1.00  0.00    -0.280 N 
HETATM   17  H   UNL     1     -43.458  54.437 -53.335  1.00  0.00     0.179 HD
BRANCH  16  18
HETATM   18  C   UNL     1     -41.561  53.555 -53.306  1.00  0.00     0.049 A 
HETATM   19  C   UNL     1     -41.241  53.458 -51.941  1.00  0.00    -0.031 A 
HETATM   20  C   UNL     1     -40.235  52.558 -51.552  1.00  0.00     0.009 A 
HETATM   21  C   UNL     1     -39.557  51.787 -52.498  1.00  0.00     0.001 A 
HETATM   22  C   UNL     1     -39.882  51.897 -53.846  1.00  0.00     0.002 A 
HETATM   23  C   UNL     1     -40.883  52.778 -54.249  1.00  0.00     0.030 A 
BRANCH  19  24
HETATM   24  C   UNL     1     -41.949  54.255 -50.871  1.00  0.00     0.036 C 
HETATM   25  C   UNL     1     -41.022  55.271 -50.219  1.00  0.00     0.010 C 
ENDBRANCH  19  24
ENDBRANCH  16  18
ENDBRANCH  13  16
ENDBRANCH   1  13
BRANCH   7  26
HETATM   26  C   UNL     1     -42.153  60.565 -60.489  1.00  0.00     0.257 C 
HETATM   27  N   UNL     1     -41.153  61.378 -60.026  1.00  0.00    -0.355 N 
HETATM   28  H   UNL     1     -40.722  61.160 -59.127  1.00  0.00     0.162 HD
HETATM   29  O   UNL     1     -42.828  60.838 -61.480  1.00  0.00    -0.267 OA
BRANCH  27  30
HETATM   30  C   UNL     1     -40.849  62.662 -60.630  1.00  0.00     0.149 C 
BRANCH  30  31
HETATM   31  C   UNL     1     -39.504  63.220 -60.165  1.00  0.00     0.186 C 
BRANCH  31  32
HETATM   32  O   UNL     1     -38.745  63.623 -61.310  1.00  0.00    -0.394 OA
HETATM   33  C   UNL     1     -39.325  63.143 -62.517  1.00  0.00     0.201 C 
ENDBRANCH  31  32
ENDBRANCH  30  31
ENDBRANCH  27  30
ENDBRANCH   7  26
TORSDOF 8
ENDMDL
MODEL 8
REMARK VINA RESULT:      -7.2      4.367      8.767
REMARK  8 active torsions:
REMARK  status: ('A' for Active; 'I' for Inactive)
REMARK    1  A    between atoms: C_2  and  C_3 
REMARK    2  A    between atoms: C_4  and  N_5 
REMARK    3  A    between atoms: N_5  and  S_6 
REMARK    4  A    between atoms: S_6  and  C_7 
REMARK    5  A    between atoms: C_13  and  C_14 
REMARK       I    between atoms: C_14  and  N_15 
REMARK    6  A    between atoms: N_15  and  C_16 
REMARK    7  A    between atoms: C_16  and  C_17 
REMARK    8  A    between atoms: C_17  and  O_18 
ROOT
HETATM    1  C   UNL     1     -43.449  58.650 -54.895  1.00  0.00     0.081 A 
HETATM    2  C   UNL     1     -42.433  57.695 -54.826  1.00  0.00     0.043 A 
HETATM    3  C   UNL     1     -42.506  56.696 -53.848  1.00  0.00     0.043 A 
HETATM    4  C   UNL     1     -43.608  56.615 -52.977  1.00  0.00     0.046 A 
HETATM    5  N   UNL     1     -43.649  55.618 -51.998  1.00  0.00    -0.364 N 
HETATM    6  C   UNL     1     -42.663  54.668 -51.922  1.00  0.00     0.109 A 
HETATM    7  C   UNL     1     -41.557  54.629 -52.685  1.00  0.00     0.098 A 
HETATM    8  C   UNL     1     -41.409  55.699 -53.711  1.00  0.00     0.201 A 
HETATM    9  O   UNL     1     -40.413  55.777 -54.427  1.00  0.00    -0.286 OA
HETATM   10  C   UNL     1     -44.618  57.578 -53.066  1.00  0.00     0.032 A 
HETATM   11  C   UNL     1     -44.544  58.591 -54.026  1.00  0.00     0.027 A 
HETATM   12  H   UNL     1     -44.502  55.474 -51.468  1.00  0.00     0.165 HD
ENDROOT
BRANCH   1  13
HETATM   13  S   UNL     1     -43.393  59.899 -56.157  1.00  0.00     0.263 S 
HETATM   14  O   UNL     1     -43.170  61.167 -55.490  1.00  0.00    -0.200 OA
HETATM   15  O   UNL     1     -44.526  59.714 -57.035  1.00  0.00    -0.200 OA
BRANCH  13  16
HETATM   16  N   UNL     1     -41.947  59.555 -56.967  1.00  0.00    -0.280 N 
HETATM   17  H   UNL     1     -41.163  60.000 -56.492  1.00  0.00     0.179 HD
BRANCH  16  18
HETATM   18  C   UNL     1     -41.951  59.615 -58.392  1.00  0.00     0.049 A 
HETATM   19  C   UNL     1     -42.108  58.459 -59.175  1.00  0.00    -0.031 A 
HETATM   20  C   UNL     1     -42.058  58.584 -60.573  1.00  0.00     0.009 A 
HETATM   21  C   UNL     1     -41.841  59.826 -61.175  1.00  0.00     0.001 A 
HETATM   22  C   UNL     1     -41.684  60.962 -60.387  1.00  0.00     0.002 A 
HETATM   23  C   UNL     1     -41.740  60.856 -58.999  1.00  0.00     0.030 A 
BRANCH  19  24
HETATM   24  C   UNL     1     -42.358  57.092 -58.582  1.00  0.00     0.036 C 
HETATM   25  C   UNL     1     -43.093  56.181 -59.555  1.00  0.00     0.010 C 
ENDBRANCH  19  24
ENDBRANCH  16  18
ENDBRANCH  13  16
ENDBRANCH   1  13
BRANCH   7  26
HETATM   26  C   UNL     1     -40.566  53.544 -52.437  1.00  0.00     0.257 C 
HETATM   27  N   UNL     1     -40.309  52.723 -53.503  1.00  0.00    -0.355 N 
HETATM   28  H   UNL     1     -40.893  52.806 -54.336  1.00  0.00     0.162 HD
HETATM   29  O   UNL     1     -40.016  53.409 -51.346  1.00  0.00    -0.267 OA
BRANCH  27  30
HETATM   30  C   UNL     1     -39.412  51.586 -53.414  1.00  0.00     0.149 C 
BRANCH  30  31
HETATM   31  C   UNL     1     -39.887  50.403 -54.258  1.00  0.00     0.186 C 
BRANCH  31  32
HETATM   32  O   UNL     1     -39.741  49.199 -53.498  1.00  0.00    -0.394 OA
HETATM   33  C   UNL     1     -39.621  49.471 -52.107  1.00  0.00     0.201 C 
ENDBRANCH  31  32
ENDBRANCH  30  31
ENDBRANCH  27  30
ENDBRANCH   7  26
TORSDOF 8
ENDMDL
MODEL 9
REMARK VINA RESULT:      -7.2      5.417      8.224
REMARK  8 active torsions:
REMARK  status: ('A' for Active; 'I' for Inactive)
REMARK    1  A    between atoms: C_2  and  C_3 
REMARK    2  A    between atoms: C_4  and  N_5 
REMARK    3  A    between atoms: N_5  and  S_6 
REMARK    4  A    between atoms: S_6  and  C_7 
REMARK    5  A    between atoms: C_13  and  C_14 
REMARK       I    between atoms: C_14  and  N_15 
REMARK    6  A    between atoms: N_15  and  C_16 
REMARK    7  A    between atoms: C_16  and  C_17 
REMARK    8  A    between atoms: C_17  and  O_18 
ROOT
HETATM    1  C   UNL     1     -42.478  56.343 -55.528  1.00  0.00     0.081 A 
HETATM    2  C   UNL     1     -42.420  57.528 -56.265  1.00  0.00     0.043 A 
HETATM    3  C   UNL     1     -42.686  57.486 -57.638  1.00  0.00     0.043 A 
HETATM    4  C   UNL     1     -43.057  56.284 -58.268  1.00  0.00     0.046 A 
HETATM    5  N   UNL     1     -43.301  56.266 -59.644  1.00  0.00    -0.364 N 
HETATM    6  C   UNL     1     -43.257  57.422 -60.380  1.00  0.00     0.109 A 
HETATM    7  C   UNL     1     -42.913  58.633 -59.910  1.00  0.00     0.098 A 
HETATM    8  C   UNL     1     -42.575  58.722 -58.461  1.00  0.00     0.201 A 
HETATM    9  O   UNL     1     -42.206  59.774 -57.946  1.00  0.00    -0.286 OA
HETATM   10  C   UNL     1     -43.114  55.110 -57.511  1.00  0.00     0.032 A 
HETATM   11  C   UNL     1     -42.831  55.137 -56.142  1.00  0.00     0.027 A 
HETATM   12  H   UNL     1     -43.703  55.436 -60.069  1.00  0.00     0.165 HD
ENDROOT
BRANCH   1  13
HETATM   13  S   UNL     1     -42.184  56.385 -53.776  1.00  0.00     0.263 S 
HETATM   14  O   UNL     1     -43.192  57.253 -53.198  1.00  0.00    -0.200 OA
HETATM   15  O   UNL     1     -40.778  56.633 -53.554  1.00  0.00    -0.200 OA
BRANCH  13  16
HETATM   16  N   UNL     1     -42.601  54.820 -53.284  1.00  0.00    -0.280 N 
HETATM   17  H   UNL     1     -43.604  54.759 -53.118  1.00  0.00     0.179 HD
BRANCH  16  18
HETATM   18  C   UNL     1     -41.754  54.171 -52.338  1.00  0.00     0.049 A 
HETATM   19  C   UNL     1     -40.841  53.178 -52.732  1.00  0.00    -0.031 A 
HETATM   20  C   UNL     1     -40.068  52.548 -51.741  1.00  0.00     0.009 A 
HETATM   21  C   UNL     1     -40.212  52.889 -50.395  1.00  0.00     0.001 A 
HETATM   22  C   UNL     1     -41.122  53.872 -50.020  1.00  0.00     0.002 A 
HETATM   23  C   UNL     1     -41.890  54.513 -50.990  1.00  0.00     0.030 A 
BRANCH  19  24
HETATM   24  C   UNL     1     -40.633  52.777 -54.173  1.00  0.00     0.036 C 
HETATM   25  C   UNL     1     -40.221  51.316 -54.297  1.00  0.00     0.010 C 
ENDBRANCH  19  24
ENDBRANCH  16  18
ENDBRANCH  13  16
ENDBRANCH   1  13
BRANCH   7  26
HETATM   26  C   UNL     1     -42.878  59.777 -60.864  1.00  0.00     0.257 C 
HETATM   27  N   UNL     1     -41.715  60.500 -60.878  1.00  0.00    -0.355 N 
HETATM   28  H   UNL     1     -41.013  60.312 -60.161  1.00  0.00     0.162 HD
HETATM   29  O   UNL     1     -43.835  60.041 -61.590  1.00  0.00    -0.267 OA
BRANCH  27  30
HETATM   30  C   UNL     1     -41.537  61.677 -61.708  1.00  0.00     0.149 C 
BRANCH  30  31
HETATM   31  C   UNL     1     -41.495  62.966 -60.888  1.00  0.00     0.186 C 
BRANCH  31  32
HETATM   32  O   UNL     1     -40.155  63.470 -60.880  1.00  0.00    -0.394 OA
HETATM   33  C   UNL     1     -39.465  63.098 -59.694  1.00  0.00     0.201 C 
ENDBRANCH  31  32
ENDBRANCH  30  31
ENDBRANCH  27  30
ENDBRANCH   7  26
TORSDOF 8
ENDMDL
MODEL 10
REMARK VINA RESULT:      -7.1      4.791      9.258
REMARK  8 active torsions:
REMARK  status: ('A' for Active; 'I' for Inactive)
REMARK    1  A    between atoms: C_2  and  C_3 
REMARK    2  A    between atoms: C_4  and  N_5 
REMARK    3  A    between atoms: N_5  and  S_6 
REMARK    4  A    between atoms: S_6  and  C_7 
REMARK    5  A    between atoms: C_13  and  C_14 
REMARK       I    between atoms: C_14  and  N_15 
REMARK    6  A    between atoms: N_15  and  C_16 
REMARK    7  A    between atoms: C_16  and  C_17 
REMARK    8  A    between atoms: C_17  and  O_18 
ROOT
HETATM    1  C   UNL     1     -43.783  57.308 -56.773  1.00  0.00     0.081 A 
HETATM    2  C   UNL     1     -42.829  56.339 -56.456  1.00  0.00     0.043 A 
HETATM    3  C   UNL     1     -42.841  55.768 -55.179  1.00  0.00     0.043 A 
HETATM    4  C   UNL     1     -43.825  56.120 -54.237  1.00  0.00     0.046 A 
HETATM    5  N   UNL     1     -43.804  55.548 -52.962  1.00  0.00    -0.364 N 
HETATM    6  C   UNL     1     -42.880  54.589 -52.638  1.00  0.00     0.109 A 
HETATM    7  C   UNL     1     -41.884  54.163 -53.435  1.00  0.00     0.098 A 
HETATM    8  C   UNL     1     -41.801  54.775 -54.792  1.00  0.00     0.201 A 
HETATM    9  O   UNL     1     -40.902  54.487 -55.577  1.00  0.00    -0.286 OA
HETATM   10  C   UNL     1     -44.774  57.089 -54.576  1.00  0.00     0.032 A 
HETATM   11  C   UNL     1     -44.760  57.680 -55.843  1.00  0.00     0.027 A 
HETATM   12  H   UNL     1     -44.590  55.693 -52.337  1.00  0.00     0.165 HD
ENDROOT
BRANCH   1  13
HETATM   13  S   UNL     1     -43.809  58.012 -58.405  1.00  0.00     0.263 S 
HETATM   14  O   UNL     1     -44.649  59.192 -58.345  1.00  0.00    -0.200 OA
HETATM   15  O   UNL     1     -44.081  56.957 -59.354  1.00  0.00    -0.200 OA
BRANCH  13  16
HETATM   16  N   UNL     1     -42.230  58.592 -58.592  1.00  0.00    -0.280 N 
HETATM   17  H   UNL     1     -41.769  58.658 -57.686  1.00  0.00     0.179 HD
BRANCH  16  18
HETATM   18  C   UNL     1     -42.020  59.674 -59.498  1.00  0.00     0.049 A 
HETATM   19  C   UNL     1     -41.742  60.972 -59.037  1.00  0.00    -0.031 A 
HETATM   20  C   UNL     1     -41.590  62.000 -59.982  1.00  0.00     0.009 A 
HETATM   21  C   UNL     1     -41.726  61.744 -61.348  1.00  0.00     0.001 A 
HETATM   22  C   UNL     1     -42.004  60.454 -61.790  1.00  0.00     0.002 A 
HETATM   23  C   UNL     1     -42.149  59.421 -60.866  1.00  0.00     0.030 A 
BRANCH  19  24
HETATM   24  C   UNL     1     -41.571  61.306 -57.574  1.00  0.00     0.036 C 
HETATM   25  C   UNL     1     -42.877  61.775 -56.947  1.00  0.00     0.010 C 
ENDBRANCH  19  24
ENDBRANCH  16  18
ENDBRANCH  13  16
ENDBRANCH   1  13
BRANCH   7  26
HETATM   26  C   UNL     1     -40.941  53.140 -52.904  1.00  0.00     0.257 C 
HETATM   27  N   UNL     1     -40.246  52.430 -53.846  1.00  0.00    -0.355 N 
HETATM   28  H   UNL     1     -40.505  52.536 -54.828  1.00  0.00     0.162 HD
HETATM   29  O   UNL     1     -40.800  52.958 -51.696  1.00  0.00    -0.267 OA
BRANCH  27  30
HETATM   30  C   UNL     1     -39.330  51.360 -53.499  1.00  0.00     0.149 C 
BRANCH  30  31
HETATM   31  C   UNL     1     -39.844  49.988 -53.936  1.00  0.00     0.186 C 
BRANCH  31  32
HETATM   32  O   UNL     1     -39.511  49.024 -52.931  1.00  0.00    -0.394 OA
HETATM   33  C   UNL     1     -39.612  49.574 -51.624  1.00  0.00     0.201 C 
ENDBRANCH  31  32
ENDBRANCH  30  31
ENDBRANCH  27  30
ENDBRANCH   7  26
TORSDOF 8
ENDMDL
