MODEL 1
REMARK VINA RESULT:      -8.8      0.000      0.000
REMARK  8 active torsions:
REMARK  status: ('A' for Active; 'I' for Inactive)
REMARK    1  A    between atoms: N_2  and  C_5 
REMARK    2  A    between atoms: C_5  and  C_6 
REMARK    3  A    between atoms: C_6  and  S_7 
REMARK    4  A    between atoms: S_7  and  C_8 
REMARK    5  A    between atoms: C_10  and  C_24 
REMARK    6  A    between atoms: C_15  and  C_18 
REMARK    7  A    between atoms: C_30  and  C_34 
REMARK       I    between atoms: C_34  and  N_36 
REMARK    8  A    between atoms: N_36  and  C_37 
ROOT
HETATM    1  C   UNL     1     -42.466  55.345 -53.298  1.00  0.00     0.108 A 
HETATM    2  N   UNL     1     -42.855  56.592 -52.970  1.00  0.00    -0.225 NA
HETATM    3  C   UNL     1     -42.353  57.111 -51.843  1.00  0.00     0.134 A 
HETATM    4  N   UNL     1     -41.446  56.486 -51.077  1.00  0.00    -0.232 NA
HETATM    5  C   UNL     1     -41.079  55.243 -51.406  1.00  0.00     0.072 A 
HETATM    6  C   UNL     1     -40.186  54.576 -50.580  1.00  0.00     0.033 A 
HETATM    7  C   UNL     1     -39.780  53.262 -50.834  1.00  0.00     0.014 A 
HETATM    8  C   UNL     1     -40.268  52.579 -51.947  1.00  0.00    -0.022 A 
HETATM    9  C   UNL     1     -41.155  53.247 -52.797  1.00  0.00     0.029 A 
HETATM   10  C   UNL     1     -41.573  54.583 -52.533  1.00  0.00     0.029 A 
ENDROOT
BRANCH   3  11
HETATM   11  C   UNL     1     -42.828  58.471 -51.374  1.00  0.00     0.086 C 
HETATM   12  C   UNL     1     -41.797  59.591 -51.550  1.00  0.00     0.188 C 
HETATM   13  O   UNL     1     -41.479  59.927 -52.911  1.00  0.00    -0.350 OA
HETATM   14  C   UNL     1     -42.525  59.896 -53.794  1.00  0.00     0.075 A 
HETATM   15  C   UNL     1     -42.252  60.362 -55.081  1.00  0.00     0.038 A 
HETATM   16  C   UNL     1     -43.789  59.386 -53.486  1.00  0.00    -0.023 A 
HETATM   17  C   UNL     1     -43.236  60.322 -56.073  1.00  0.00     0.020 A 
HETATM   18  C   UNL     1     -44.506  59.818 -55.771  1.00  0.00     0.032 A 
HETATM   19  C   UNL     1     -44.778  59.353 -54.478  1.00  0.00     0.027 A 
HETATM   20  C   UNL     1     -44.105  58.895 -52.101  1.00  0.00     0.056 C 
BRANCH  18  21
HETATM   21  C   UNL     1     -45.575  59.707 -56.799  1.00  0.00     0.252 C 
HETATM   22  O   UNL     1     -46.495  60.518 -56.804  1.00  0.00    -0.268 OA
HETATM   23  N   UNL     1     -45.439  58.680 -57.712  1.00  0.00    -0.352 N 
HETATM   24  H   UNL     1     -44.564  58.175 -57.764  1.00  0.00     0.163 HD
BRANCH  23  25
HETATM   25  C   UNL     1     -46.383  58.485 -58.768  1.00  0.00     0.084 A 
HETATM   26  C   UNL     1     -45.926  58.054 -60.134  1.00  0.00     0.027 A 
HETATM   27  C   UNL     1     -46.690  57.100 -59.265  1.00  0.00     0.027 A 
ENDBRANCH  23  25
ENDBRANCH  18  21
ENDBRANCH   3  11
BRANCH   1  28
HETATM   28  S   UNL     1     -43.266  54.688 -54.768  1.00  0.00    -0.108 SA
BRANCH  28  29
HETATM   29  C   UNL     1     -42.145  55.327 -56.068  1.00  0.00     0.108 C 
BRANCH  29  30
HETATM   30  C   UNL     1     -42.827  56.457 -56.844  1.00  0.00     0.244 C 
BRANCH  30  31
HETATM   31  N   UNL     1     -42.289  56.575 -58.263  1.00  0.00    -0.078 N 
HETATM   32  C   UNL     1     -43.109  55.831 -59.281  1.00  0.00     0.269 C 
HETATM   33  H   UNL     1     -41.359  56.124 -58.246  1.00  0.00     0.279 HD
HETATM   34  C   UNL     1     -42.072  58.006 -58.663  1.00  0.00     0.269 C 
ENDBRANCH  30  31
ENDBRANCH  29  30
ENDBRANCH  28  29
ENDBRANCH   1  28
BRANCH   8  35
HETATM   35  C   UNL     1     -39.878  51.209 -52.226  1.00  0.00     0.010 A 
HETATM   36  C   UNL     1     -39.760  50.511 -53.450  1.00  0.00     0.152 A 
HETATM   37  N   UNL     1     -39.408  49.233 -53.287  1.00  0.00    -0.187 NA
HETATM   38  N   UNL     1     -39.284  49.108 -51.956  1.00  0.00    -0.289 N 
HETATM   39  H   UNL     1     -39.014  48.205 -51.578  1.00  0.00     0.188 HD
HETATM   40  C   UNL     1     -39.563  50.260 -51.276  1.00  0.00     0.123 A 
ENDBRANCH   8  35
TORSDOF 8
ENDMDL
MODEL 2
REMARK VINA RESULT:      -8.3      2.673      7.657
REMARK  8 active torsions:
REMARK  status: ('A' for Active; 'I' for Inactive)
REMARK    1  A    between atoms: N_2  and  C_5 
REMARK    2  A    between atoms: C_5  and  C_6 
REMARK    3  A    between atoms: C_6  and  S_7 
REMARK    4  A    between atoms: S_7  and  C_8 
REMARK    5  A    between atoms: C_10  and  C_24 
REMARK    6  A    between atoms: C_15  and  C_18 
REMARK    7  A    between atoms: C_30  and  C_34 
REMARK       I    between atoms: C_34  and  N_36 
REMARK    8  A    between atoms: N_36  and  C_37 
ROOT
HETATM    1  C   UNL     1     -44.316  59.079 -55.733  1.00  0.00     0.108 A 
HETATM    2  N   UNL     1     -43.832  59.376 -54.511  1.00  0.00    -0.225 NA
HETATM    3  C   UNL     1     -42.978  58.503 -53.964  1.00  0.00     0.134 A 
HETATM    4  N   UNL     1     -42.538  57.402 -54.592  1.00  0.00    -0.232 NA
HETATM    5  C   UNL     1     -43.037  57.111 -55.797  1.00  0.00     0.072 A 
HETATM    6  C   UNL     1     -42.624  55.942 -56.419  1.00  0.00     0.033 A 
HETATM    7  C   UNL     1     -43.125  55.546 -57.664  1.00  0.00     0.014 A 
HETATM    8  C   UNL     1     -44.064  56.336 -58.326  1.00  0.00    -0.022 A 
HETATM    9  C   UNL     1     -44.475  57.527 -57.717  1.00  0.00     0.029 A 
HETATM   10  C   UNL     1     -43.969  57.924 -56.446  1.00  0.00     0.029 A 
ENDROOT
BRANCH   3  11
HETATM   11  C   UNL     1     -42.477  58.738 -52.553  1.00  0.00     0.086 C 
HETATM   12  C   UNL     1     -43.531  58.509 -51.466  1.00  0.00     0.188 C 
HETATM   13  O   UNL     1     -43.977  57.150 -51.316  1.00  0.00    -0.350 OA
HETATM   14  C   UNL     1     -43.016  56.187 -51.468  1.00  0.00     0.075 A 
HETATM   15  C   UNL     1     -43.411  54.879 -51.179  1.00  0.00     0.038 A 
HETATM   16  C   UNL     1     -41.724  56.442 -51.934  1.00  0.00    -0.023 A 
HETATM   17  C   UNL     1     -42.521  53.815 -51.355  1.00  0.00     0.020 A 
HETATM   18  C   UNL     1     -41.224  54.064 -51.815  1.00  0.00     0.032 A 
HETATM   19  C   UNL     1     -40.830  55.376 -52.102  1.00  0.00     0.027 A 
HETATM   20  C   UNL     1     -41.277  57.845 -52.234  1.00  0.00     0.056 C 
BRANCH  18  21
HETATM   21  C   UNL     1     -40.253  52.966 -52.066  1.00  0.00     0.252 C 
HETATM   22  O   UNL     1     -39.411  52.697 -51.215  1.00  0.00    -0.268 OA
HETATM   23  N   UNL     1     -40.386  52.295 -53.266  1.00  0.00    -0.352 N 
HETATM   24  H   UNL     1     -41.215  52.443 -53.827  1.00  0.00     0.163 HD
BRANCH  23  25
HETATM   25  C   UNL     1     -39.535  51.201 -53.613  1.00  0.00     0.084 A 
HETATM   26  C   UNL     1     -39.850  49.807 -53.147  1.00  0.00     0.027 A 
HETATM   27  C   UNL     1     -39.995  50.163 -54.597  1.00  0.00     0.027 A 
ENDBRANCH  23  25
ENDBRANCH  18  21
ENDBRANCH   3  11
BRANCH   1  28
HETATM   28  S   UNL     1     -45.533  60.251 -56.347  1.00  0.00    -0.108 SA
BRANCH  28  29
HETATM   29  C   UNL     1     -44.536  61.788 -56.356  1.00  0.00     0.108 C 
BRANCH  29  30
HETATM   30  C   UNL     1     -44.070  62.105 -57.779  1.00  0.00     0.244 C 
BRANCH  30  31
HETATM   31  N   UNL     1     -43.278  60.955 -58.385  1.00  0.00    -0.078 N 
HETATM   32  C   UNL     1     -43.526  60.763 -59.857  1.00  0.00     0.269 C 
HETATM   33  H   UNL     1     -43.622  60.102 -57.914  1.00  0.00     0.279 HD
HETATM   34  C   UNL     1     -41.812  61.060 -58.078  1.00  0.00     0.269 C 
ENDBRANCH  30  31
ENDBRANCH  29  30
ENDBRANCH  28  29
ENDBRANCH   1  28
BRANCH   8  35
HETATM   35  C   UNL     1     -44.615  55.943 -59.610  1.00  0.00     0.010 A 
HETATM   36  C   UNL     1     -44.291  54.864 -60.464  1.00  0.00     0.152 A 
HETATM   37  N   UNL     1     -45.005  54.863 -61.592  1.00  0.00    -0.187 NA
HETATM   38  N   UNL     1     -45.802  55.936 -61.461  1.00  0.00    -0.289 N 
HETATM   39  H   UNL     1     -46.454  56.148 -62.210  1.00  0.00     0.188 HD
HETATM   40  C   UNL     1     -45.601  56.620 -60.296  1.00  0.00     0.123 A 
ENDBRANCH   8  35
TORSDOF 8
ENDMDL
MODEL 3
REMARK VINA RESULT:      -8.2      2.838      7.960
REMARK  8 active torsions:
REMARK  status: ('A' for Active; 'I' for Inactive)
REMARK    1  A    between atoms: N_2  and  C_5 
REMARK    2  A    between atoms: C_5  and  C_6 
REMARK    3  A    between atoms: C_6  and  S_7 
REMARK    4  A    between atoms: S_7  and  C_8 
REMARK    5  A    between atoms: C_10  and  C_24 
REMARK    6  A    between atoms: C_15  and  C_18 
REMARK    7  A    between atoms: C_30  and  C_34 
REMARK       I    between atoms: C_34  and  N_36 
REMARK    8  A    between atoms: N_36  and  C_37 
ROOT
HETATM    1  C   UNL     1     -44.064  59.165 -55.729  1.00  0.00     0.108 A 
HETATM    2  N   UNL     1     -43.563  59.450 -54.511  1.00  0.00    -0.225 NA
HETATM    3  C   UNL     1     -42.764  58.536 -53.950  1.00  0.00     0.134 A 
HETATM    4  N   UNL     1     -42.389  57.401 -54.561  1.00  0.00    -0.232 NA
HETATM    5  C   UNL     1     -42.904  57.123 -55.763  1.00  0.00     0.072 A 
HETATM    6  C   UNL     1     -42.563  55.922 -56.367  1.00  0.00     0.033 A 
HETATM    7  C   UNL     1     -43.086  55.539 -57.606  1.00  0.00     0.014 A 
HETATM    8  C   UNL     1     -43.976  56.374 -58.281  1.00  0.00    -0.022 A 
HETATM    9  C   UNL     1     -44.314  57.596 -57.690  1.00  0.00     0.029 A 
HETATM   10  C   UNL     1     -43.786  57.980 -56.424  1.00  0.00     0.029 A 
ENDROOT
BRANCH   3  11
HETATM   11  C   UNL     1     -42.249  58.761 -52.543  1.00  0.00     0.086 C 
HETATM   12  C   UNL     1     -43.309  58.587 -51.451  1.00  0.00     0.188 C 
HETATM   13  O   UNL     1     -43.811  57.249 -51.289  1.00  0.00    -0.350 OA
HETATM   14  C   UNL     1     -42.892  56.245 -51.434  1.00  0.00     0.075 A 
HETATM   15  C   UNL     1     -43.341  54.957 -51.134  1.00  0.00     0.038 A 
HETATM   16  C   UNL     1     -41.591  56.442 -51.905  1.00  0.00    -0.023 A 
HETATM   17  C   UNL     1     -42.497  53.856 -51.302  1.00  0.00     0.020 A 
HETATM   18  C   UNL     1     -41.191  54.045 -51.767  1.00  0.00     0.032 A 
HETATM   19  C   UNL     1     -40.743  55.338 -52.066  1.00  0.00     0.027 A 
HETATM   20  C   UNL     1     -41.087  57.823 -52.219  1.00  0.00     0.056 C 
BRANCH  18  21
HETATM   21  C   UNL     1     -40.268  52.906 -52.011  1.00  0.00     0.252 C 
HETATM   22  O   UNL     1     -39.501  52.549 -51.123  1.00  0.00    -0.268 OA
HETATM   23  N   UNL     1     -40.357  52.302 -53.250  1.00  0.00    -0.352 N 
HETATM   24  H   UNL     1     -41.137  52.524 -53.855  1.00  0.00     0.163 HD
BRANCH  23  25
HETATM   25  C   UNL     1     -39.546  51.178 -53.597  1.00  0.00     0.084 A 
HETATM   26  C   UNL     1     -39.914  49.795 -53.134  1.00  0.00     0.027 A 
HETATM   27  C   UNL     1     -40.042  50.159 -54.584  1.00  0.00     0.027 A 
ENDBRANCH  23  25
ENDBRANCH  18  21
ENDBRANCH   3  11
BRANCH   1  28
HETATM   28  S   UNL     1     -45.208  60.398 -56.362  1.00  0.00    -0.108 SA
BRANCH  28  29
HETATM   29  C   UNL     1     -45.964  60.981 -54.798  1.00  0.00     0.108 C 
BRANCH  29  30
HETATM   30  C   UNL     1     -45.473  62.393 -54.470  1.00  0.00     0.244 C 
BRANCH  30  31
HETATM   31  N   UNL     1     -44.455  62.390 -53.338  1.00  0.00    -0.078 N 
HETATM   32  C   UNL     1     -43.110  62.932 -53.737  1.00  0.00     0.269 C 
HETATM   33  H   UNL     1     -44.313  61.396 -53.095  1.00  0.00     0.279 HD
HETATM   34  C   UNL     1     -44.984  63.068 -52.107  1.00  0.00     0.269 C 
ENDBRANCH  30  31
ENDBRANCH  29  30
ENDBRANCH  28  29
ENDBRANCH   1  28
BRANCH   8  35
HETATM   35  C   UNL     1     -44.549  55.995 -59.560  1.00  0.00     0.010 A 
HETATM   36  C   UNL     1     -44.308  54.873 -60.386  1.00  0.00     0.152 A 
HETATM   37  N   UNL     1     -45.013  54.902 -61.519  1.00  0.00    -0.187 NA
HETATM   38  N   UNL     1     -45.721  56.038 -61.419  1.00  0.00    -0.289 N 
HETATM   39  H   UNL     1     -46.351  56.283 -62.178  1.00  0.00     0.188 HD
HETATM   40  C   UNL     1     -45.473  56.732 -60.269  1.00  0.00     0.123 A 
ENDBRANCH   8  35
TORSDOF 8
ENDMDL
MODEL 4
REMARK VINA RESULT:      -8.1      2.554      4.837
REMARK  8 active torsions:
REMARK  status: ('A' for Active; 'I' for Inactive)
REMARK    1  A    between atoms: N_2  and  C_5 
REMARK    2  A    between atoms: C_5  and  C_6 
REMARK    3  A    between atoms: C_6  and  S_7 
REMARK    4  A    between atoms: S_7  and  C_8 
REMARK    5  A    between atoms: C_10  and  C_24 
REMARK    6  A    between atoms: C_15  and  C_18 
REMARK    7  A    between atoms: C_30  and  C_34 
REMARK       I    between atoms: C_34  and  N_36 
REMARK    8  A    between atoms: N_36  and  C_37 
ROOT
HETATM    1  C   UNL     1     -41.117  58.255 -53.808  1.00  0.00     0.108 A 
HETATM    2  N   UNL     1     -41.595  59.347 -54.434  1.00  0.00    -0.225 NA
HETATM    3  C   UNL     1     -42.325  59.147 -55.538  1.00  0.00     0.134 A 
HETATM    4  N   UNL     1     -42.654  57.932 -56.001  1.00  0.00    -0.232 NA
HETATM    5  C   UNL     1     -42.161  56.856 -55.378  1.00  0.00     0.072 A 
HETATM    6  C   UNL     1     -42.454  55.602 -55.894  1.00  0.00     0.033 A 
HETATM    7  C   UNL     1     -41.948  54.429 -55.324  1.00  0.00     0.014 A 
HETATM    8  C   UNL     1     -41.127  54.492 -54.198  1.00  0.00    -0.022 A 
HETATM    9  C   UNL     1     -40.840  55.750 -53.659  1.00  0.00     0.029 A 
HETATM   10  C   UNL     1     -41.349  56.944 -54.246  1.00  0.00     0.029 A 
ENDROOT
BRANCH   3  11
HETATM   11  C   UNL     1     -42.807  60.341 -56.337  1.00  0.00     0.086 C 
HETATM   12  C   UNL     1     -41.816  60.829 -57.398  1.00  0.00     0.188 C 
HETATM   13  O   UNL     1     -41.582  59.918 -58.487  1.00  0.00    -0.350 OA
HETATM   14  C   UNL     1     -42.674  59.219 -58.925  1.00  0.00     0.075 A 
HETATM   15  C   UNL     1     -42.484  58.446 -60.072  1.00  0.00     0.038 A 
HETATM   16  C   UNL     1     -43.906  59.204 -58.265  1.00  0.00    -0.023 A 
HETATM   17  C   UNL     1     -43.521  57.651 -60.570  1.00  0.00     0.020 A 
HETATM   18  C   UNL     1     -44.759  57.636 -59.919  1.00  0.00     0.032 A 
HETATM   19  C   UNL     1     -44.947  58.413 -58.769  1.00  0.00     0.027 A 
HETATM   20  C   UNL     1     -44.132  60.042 -57.038  1.00  0.00     0.056 C 
BRANCH  18  21
HETATM   21  C   UNL     1     -45.880  56.772 -60.376  1.00  0.00     0.252 C 
HETATM   22  O   UNL     1     -45.919  55.597 -60.027  1.00  0.00    -0.268 OA
HETATM   23  N   UNL     1     -46.834  57.380 -61.169  1.00  0.00    -0.352 N 
HETATM   24  H   UNL     1     -46.838  58.387 -61.255  1.00  0.00     0.163 HD
BRANCH  23  25
HETATM   25  C   UNL     1     -47.976  56.666 -61.648  1.00  0.00     0.084 A 
HETATM   26  C   UNL     1     -49.182  57.405 -62.160  1.00  0.00     0.027 A 
HETATM   27  C   UNL     1     -48.303  56.653 -63.115  1.00  0.00     0.027 A 
ENDBRANCH  23  25
ENDBRANCH  18  21
ENDBRANCH   3  11
BRANCH   1  28
HETATM   28  S   UNL     1     -40.063  58.618 -52.397  1.00  0.00    -0.108 SA
BRANCH  28  29
HETATM   29  C   UNL     1     -41.175  58.139 -51.023  1.00  0.00     0.108 C 
BRANCH  29  30
HETATM   30  C   UNL     1     -42.519  58.860 -51.157  1.00  0.00     0.244 C 
BRANCH  30  31
HETATM   31  N   UNL     1     -43.686  57.882 -51.178  1.00  0.00    -0.078 N 
HETATM   32  C   UNL     1     -44.556  58.009 -52.399  1.00  0.00     0.269 C 
HETATM   33  H   UNL     1     -44.275  58.134 -50.368  1.00  0.00     0.279 HD
HETATM   34  C   UNL     1     -43.234  56.466 -50.963  1.00  0.00     0.269 C 
ENDBRANCH  30  31
ENDBRANCH  29  30
ENDBRANCH  28  29
ENDBRANCH   1  28
BRANCH   8  35
HETATM   35  C   UNL     1     -40.574  53.293 -53.596  1.00  0.00     0.010 A 
HETATM   36  C   UNL     1     -40.215  52.051 -54.168  1.00  0.00     0.152 A 
HETATM   37  N   UNL     1     -39.771  51.173 -53.265  1.00  0.00    -0.187 NA
HETATM   38  N   UNL     1     -39.831  51.853 -52.109  1.00  0.00    -0.289 N 
HETATM   39  H   UNL     1     -39.535  51.386 -51.257  1.00  0.00     0.188 HD
HETATM   40  C   UNL     1     -40.313  53.124 -52.253  1.00  0.00     0.123 A 
ENDBRANCH   8  35
TORSDOF 8
ENDMDL
MODEL 5
REMARK VINA RESULT:      -7.8      2.794      5.686
REMARK  8 active torsions:
REMARK  status: ('A' for Active; 'I' for Inactive)
REMARK    1  A    between atoms: N_2  and  C_5 
REMARK    2  A    between atoms: C_5  and  C_6 
REMARK    3  A    between atoms: C_6  and  S_7 
REMARK    4  A    between atoms: S_7  and  C_8 
REMARK    5  A    between atoms: C_10  and  C_24 
REMARK    6  A    between atoms: C_15  and  C_18 
REMARK    7  A    between atoms: C_30  and  C_34 
REMARK       I    between atoms: C_34  and  N_36 
REMARK    8  A    between atoms: N_36  and  C_37 
ROOT
HETATM    1  C   UNL     1     -42.158  55.900 -52.758  1.00  0.00     0.108 A 
HETATM    2  N   UNL     1     -42.450  57.014 -53.457  1.00  0.00    -0.225 NA
HETATM    3  C   UNL     1     -42.051  57.057 -54.733  1.00  0.00     0.134 A 
HETATM    4  N   UNL     1     -41.447  56.034 -55.357  1.00  0.00    -0.232 NA
HETATM    5  C   UNL     1     -41.150  54.939 -54.649  1.00  0.00     0.072 A 
HETATM    6  C   UNL     1     -40.472  53.907 -55.280  1.00  0.00     0.033 A 
HETATM    7  C   UNL     1     -40.092  52.744 -54.602  1.00  0.00     0.014 A 
HETATM    8  C   UNL     1     -40.396  52.589 -53.251  1.00  0.00    -0.022 A 
HETATM    9  C   UNL     1     -41.095  53.615 -52.607  1.00  0.00     0.029 A 
HETATM   10  C   UNL     1     -41.474  54.802 -53.298  1.00  0.00     0.029 A 
ENDROOT
BRANCH   3  11
HETATM   11  C   UNL     1     -42.268  58.322 -55.539  1.00  0.00     0.086 C 
HETATM   12  C   UNL     1     -43.677  58.458 -56.125  1.00  0.00     0.188 C 
HETATM   13  O   UNL     1     -44.731  58.628 -55.162  1.00  0.00    -0.350 OA
HETATM   14  C   UNL     1     -44.428  59.404 -54.076  1.00  0.00     0.075 A 
HETATM   15  C   UNL     1     -45.489  59.692 -53.216  1.00  0.00     0.038 A 
HETATM   16  C   UNL     1     -43.140  59.856 -53.777  1.00  0.00    -0.023 A 
HETATM   17  C   UNL     1     -45.274  60.431 -52.049  1.00  0.00     0.020 A 
HETATM   18  C   UNL     1     -43.989  60.893 -51.745  1.00  0.00     0.032 A 
HETATM   19  C   UNL     1     -42.927  60.604 -52.611  1.00  0.00     0.027 A 
HETATM   20  C   UNL     1     -41.990  59.569 -54.700  1.00  0.00     0.056 C 
BRANCH  18  21
HETATM   21  C   UNL     1     -43.695  61.641 -50.494  1.00  0.00     0.252 C 
HETATM   22  O   UNL     1     -43.010  61.116 -49.623  1.00  0.00    -0.268 OA
HETATM   23  N   UNL     1     -44.214  62.918 -50.411  1.00  0.00    -0.352 N 
HETATM   24  H   UNL     1     -44.602  63.350 -51.239  1.00  0.00     0.163 HD
BRANCH  23  25
HETATM   25  C   UNL     1     -43.978  63.751 -49.273  1.00  0.00     0.084 A 
HETATM   26  C   UNL     1     -44.990  64.780 -48.854  1.00  0.00     0.027 A 
HETATM   27  C   UNL     1     -44.772  63.558 -48.013  1.00  0.00     0.027 A 
ENDBRANCH  23  25
ENDBRANCH  18  21
ENDBRANCH   3  11
BRANCH   1  28
HETATM   28  S   UNL     1     -42.637  55.970 -51.027  1.00  0.00    -0.108 SA
BRANCH  28  29
HETATM   29  C   UNL     1     -41.116  56.678 -50.292  1.00  0.00     0.108 C 
BRANCH  29  30
HETATM   30  C   UNL     1     -41.058  58.186 -50.552  1.00  0.00     0.244 C 
BRANCH  30  31
HETATM   31  N   UNL     1     -39.679  58.626 -51.025  1.00  0.00    -0.078 N 
HETATM   32  C   UNL     1     -39.599  58.859 -52.509  1.00  0.00     0.269 C 
HETATM   33  H   UNL     1     -39.048  57.836 -50.816  1.00  0.00     0.279 HD
HETATM   34  C   UNL     1     -39.171  59.807 -50.250  1.00  0.00     0.269 C 
ENDBRANCH  30  31
ENDBRANCH  29  30
ENDBRANCH  28  29
ENDBRANCH   1  28
BRANCH   8  35
HETATM   35  C   UNL     1     -39.999  51.401 -52.516  1.00  0.00     0.010 A 
HETATM   36  C   UNL     1     -39.750  51.205 -51.138  1.00  0.00     0.152 A 
HETATM   37  N   UNL     1     -39.362  49.960 -50.854  1.00  0.00    -0.187 NA
HETATM   38  N   UNL     1     -39.374  49.345 -52.048  1.00  0.00    -0.289 N 
HETATM   39  H   UNL     1     -39.113  48.365 -52.089  1.00  0.00     0.188 HD
HETATM   40  C   UNL     1     -39.741  50.168 -53.076  1.00  0.00     0.123 A 
ENDBRANCH   8  35
TORSDOF 8
ENDMDL
MODEL 6
REMARK VINA RESULT:      -7.6     16.251     18.535
REMARK  8 active torsions:
REMARK  status: ('A' for Active; 'I' for Inactive)
REMARK    1  A    between atoms: N_2  and  C_5 
REMARK    2  A    between atoms: C_5  and  C_6 
REMARK    3  A    between atoms: C_6  and  S_7 
REMARK    4  A    between atoms: S_7  and  C_8 
REMARK    5  A    between atoms: C_10  and  C_24 
REMARK    6  A    between atoms: C_15  and  C_18 
REMARK    7  A    between atoms: C_30  and  C_34 
REMARK       I    between atoms: C_34  and  N_36 
REMARK    8  A    between atoms: N_36  and  C_37 
ROOT
HETATM    1  C   UNL     1     -37.409  39.225 -51.210  1.00  0.00     0.108 A 
HETATM    2  N   UNL     1     -36.307  39.929 -51.533  1.00  0.00    -0.225 NA
HETATM    3  C   UNL     1     -36.486  41.061 -52.224  1.00  0.00     0.134 A 
HETATM    4  N   UNL     1     -37.693  41.553 -52.543  1.00  0.00    -0.232 NA
HETATM    5  C   UNL     1     -38.778  40.838 -52.229  1.00  0.00     0.072 A 
HETATM    6  C   UNL     1     -40.021  41.320 -52.612  1.00  0.00     0.033 A 
HETATM    7  C   UNL     1     -41.202  40.615 -52.355  1.00  0.00     0.014 A 
HETATM    8  C   UNL     1     -41.158  39.391 -51.689  1.00  0.00    -0.022 A 
HETATM    9  C   UNL     1     -39.912  38.903 -51.281  1.00  0.00     0.029 A 
HETATM   10  C   UNL     1     -38.710  39.619 -51.551  1.00  0.00     0.029 A 
ENDROOT
BRANCH   3  11
HETATM   11  C   UNL     1     -35.278  41.843 -52.697  1.00  0.00     0.086 C 
HETATM   12  C   UNL     1     -33.985  41.023 -52.760  1.00  0.00     0.188 C 
HETATM   13  O   UNL     1     -33.968  39.976 -53.746  1.00  0.00    -0.350 OA
HETATM   14  C   UNL     1     -34.584  40.265 -54.934  1.00  0.00     0.075 A 
HETATM   15  C   UNL     1     -34.443  39.311 -55.943  1.00  0.00     0.038 A 
HETATM   16  C   UNL     1     -35.364  41.404 -55.150  1.00  0.00    -0.023 A 
HETATM   17  C   UNL     1     -35.079  39.484 -57.176  1.00  0.00     0.020 A 
HETATM   18  C   UNL     1     -35.857  40.625 -57.403  1.00  0.00     0.032 A 
HETATM   19  C   UNL     1     -35.995  41.581 -56.389  1.00  0.00     0.027 A 
HETATM   20  C   UNL     1     -35.514  42.449 -54.080  1.00  0.00     0.056 C 
BRANCH  18  21
HETATM   21  C   UNL     1     -36.594  40.836 -58.676  1.00  0.00     0.252 C 
HETATM   22  O   UNL     1     -37.077  41.937 -58.919  1.00  0.00    -0.268 OA
HETATM   23  N   UNL     1     -36.667  39.750 -59.527  1.00  0.00    -0.352 N 
HETATM   24  H   UNL     1     -36.087  38.941 -59.348  1.00  0.00     0.163 HD
BRANCH  23  25
HETATM   25  C   UNL     1     -37.322  39.833 -60.794  1.00  0.00     0.084 A 
HETATM   26  C   UNL     1     -37.035  38.824 -61.872  1.00  0.00     0.027 A 
HETATM   27  C   UNL     1     -38.364  38.820 -61.177  1.00  0.00     0.027 A 
ENDBRANCH  23  25
ENDBRANCH  18  21
ENDBRANCH   3  11
BRANCH   1  28
HETATM   28  S   UNL     1     -37.070  37.669 -50.376  1.00  0.00    -0.108 SA
BRANCH  28  29
HETATM   29  C   UNL     1     -35.610  37.098 -51.323  1.00  0.00     0.108 C 
BRANCH  29  30
HETATM   30  C   UNL     1     -34.357  37.154 -50.444  1.00  0.00     0.244 C 
BRANCH  30  31
HETATM   31  N   UNL     1     -33.480  38.350 -50.787  1.00  0.00    -0.078 N 
HETATM   32  C   UNL     1     -33.228  39.265 -49.619  1.00  0.00     0.269 C 
HETATM   33  H   UNL     1     -34.014  38.897 -51.481  1.00  0.00     0.279 HD
HETATM   34  C   UNL     1     -32.200  37.933 -51.451  1.00  0.00     0.269 C 
ENDBRANCH  30  31
ENDBRANCH  29  30
ENDBRANCH  28  29
ENDBRANCH   1  28
BRANCH   8  35
HETATM   35  C   UNL     1     -42.365  38.629 -51.423  1.00  0.00     0.010 A 
HETATM   36  C   UNL     1     -43.130  38.490 -50.242  1.00  0.00     0.152 A 
HETATM   37  N   UNL     1     -44.164  37.658 -50.389  1.00  0.00    -0.187 NA
HETATM   38  N   UNL     1     -44.075  37.270 -51.672  1.00  0.00    -0.289 N 
HETATM   39  H   UNL     1     -44.771  36.623 -52.030  1.00  0.00     0.188 HD
HETATM   40  C   UNL     1     -43.011  37.817 -52.331  1.00  0.00     0.123 A 
ENDBRANCH   8  35
TORSDOF 8
ENDMDL
MODEL 7
REMARK VINA RESULT:      -7.6      1.664      2.037
REMARK  8 active torsions:
REMARK  status: ('A' for Active; 'I' for Inactive)
REMARK    1  A    between atoms: N_2  and  C_5 
REMARK    2  A    between atoms: C_5  and  C_6 
REMARK    3  A    between atoms: C_6  and  S_7 
REMARK    4  A    between atoms: S_7  and  C_8 
REMARK    5  A    between atoms: C_10  and  C_24 
REMARK    6  A    between atoms: C_15  and  C_18 
REMARK    7  A    between atoms: C_30  and  C_34 
REMARK       I    between atoms: C_34  and  N_36 
REMARK    8  A    between atoms: N_36  and  C_37 
ROOT
HETATM    1  C   UNL     1     -42.531  55.557 -54.742  1.00  0.00     0.108 A 
HETATM    2  N   UNL     1     -43.021  56.781 -54.466  1.00  0.00    -0.225 NA
HETATM    3  C   UNL     1     -42.796  57.267 -53.240  1.00  0.00     0.134 A 
HETATM    4  N   UNL     1     -42.060  56.634 -52.314  1.00  0.00    -0.232 NA
HETATM    5  C   UNL     1     -41.591  55.414 -52.595  1.00  0.00     0.072 A 
HETATM    6  C   UNL     1     -40.880  54.736 -51.615  1.00  0.00     0.033 A 
HETATM    7  C   UNL     1     -40.387  53.443 -51.816  1.00  0.00     0.014 A 
HETATM    8  C   UNL     1     -40.597  52.793 -53.031  1.00  0.00    -0.022 A 
HETATM    9  C   UNL     1     -41.297  53.472 -54.034  1.00  0.00     0.029 A 
HETATM   10  C   UNL     1     -41.804  54.787 -53.824  1.00  0.00     0.029 A 
ENDROOT
BRANCH   3  11
HETATM   11  C   UNL     1     -43.405  58.597 -52.843  1.00  0.00     0.086 C 
HETATM   12  C   UNL     1     -42.393  59.741 -52.731  1.00  0.00     0.188 C 
HETATM   13  O   UNL     1     -41.777  60.143 -53.966  1.00  0.00    -0.350 OA
HETATM   14  C   UNL     1     -42.588  60.131 -55.069  1.00  0.00     0.075 A 
HETATM   15  C   UNL     1     -42.037  60.658 -56.238  1.00  0.00     0.038 A 
HETATM   16  C   UNL     1     -43.875  59.585 -55.084  1.00  0.00    -0.023 A 
HETATM   17  C   UNL     1     -42.763  60.643 -57.433  1.00  0.00     0.020 A 
HETATM   18  C   UNL     1     -44.054  60.104 -57.455  1.00  0.00     0.032 A 
HETATM   19  C   UNL     1     -44.605  59.578 -56.280  1.00  0.00     0.027 A 
HETATM   20  C   UNL     1     -44.489  59.028 -53.831  1.00  0.00     0.056 C 
BRANCH  18  21
HETATM   21  C   UNL     1     -44.851  60.019 -58.707  1.00  0.00     0.252 C 
HETATM   22  O   UNL     1     -45.999  59.590 -58.664  1.00  0.00    -0.268 OA
HETATM   23  N   UNL     1     -44.229  60.460 -59.858  1.00  0.00    -0.352 N 
HETATM   24  H   UNL     1     -43.361  60.974 -59.786  1.00  0.00     0.163 HD
BRANCH  23  25
HETATM   25  C   UNL     1     -44.898  60.458 -61.121  1.00  0.00     0.084 A 
HETATM   26  C   UNL     1     -45.129  61.743 -61.868  1.00  0.00     0.027 A 
HETATM   27  C   UNL     1     -44.137  60.744 -62.385  1.00  0.00     0.027 A 
ENDBRANCH  23  25
ENDBRANCH  18  21
ENDBRANCH   3  11
BRANCH   1  28
HETATM   28  S   UNL     1     -42.968  54.939 -56.373  1.00  0.00    -0.108 SA
BRANCH  28  29
HETATM   29  C   UNL     1     -42.934  56.497 -57.336  1.00  0.00     0.108 C 
BRANCH  29  30
HETATM   30  C   UNL     1     -44.148  56.568 -58.266  1.00  0.00     0.244 C 
BRANCH  30  31
HETATM   31  N   UNL     1     -43.739  56.815 -59.712  1.00  0.00    -0.078 N 
HETATM   32  C   UNL     1     -42.249  56.836 -59.921  1.00  0.00     0.269 C 
HETATM   33  H   UNL     1     -44.082  57.763 -59.940  1.00  0.00     0.279 HD
HETATM   34  C   UNL     1     -44.419  55.867 -60.656  1.00  0.00     0.269 C 
ENDBRANCH  30  31
ENDBRANCH  29  30
ENDBRANCH  28  29
ENDBRANCH   1  28
BRANCH   8  35
HETATM   35  C   UNL     1     -40.112  51.444 -53.262  1.00  0.00     0.010 A 
HETATM   36  C   UNL     1     -40.059  50.669 -54.444  1.00  0.00     0.152 A 
HETATM   37  N   UNL     1     -39.574  49.443 -54.238  1.00  0.00    -0.187 NA
HETATM   38  N   UNL     1     -39.301  49.428 -52.924  1.00  0.00    -0.289 N 
HETATM   39  H   UNL     1     -38.910  48.582 -52.521  1.00  0.00     0.188 HD
HETATM   40  C   UNL     1     -39.613  50.599 -52.293  1.00  0.00     0.123 A 
ENDBRANCH   8  35
TORSDOF 8
ENDMDL
MODEL 8
REMARK VINA RESULT:      -7.5      4.081      8.037
REMARK  8 active torsions:
REMARK  status: ('A' for Active; 'I' for Inactive)
REMARK    1  A    between atoms: N_2  and  C_5 
REMARK    2  A    between atoms: C_5  and  C_6 
REMARK    3  A    between atoms: C_6  and  S_7 
REMARK    4  A    between atoms: S_7  and  C_8 
REMARK    5  A    between atoms: C_10  and  C_24 
REMARK    6  A    between atoms: C_15  and  C_18 
REMARK    7  A    between atoms: C_30  and  C_34 
REMARK       I    between atoms: C_34  and  N_36 
REMARK    8  A    between atoms: N_36  and  C_37 
ROOT
HETATM    1  C   UNL     1     -44.270  60.554 -52.444  1.00  0.00     0.108 A 
HETATM    2  N   UNL     1     -43.087  59.957 -52.683  1.00  0.00    -0.225 NA
HETATM    3  C   UNL     1     -42.212  59.909 -51.670  1.00  0.00     0.134 A 
HETATM    4  N   UNL     1     -42.482  60.356 -50.434  1.00  0.00    -0.232 NA
HETATM    5  C   UNL     1     -43.654  60.959 -50.215  1.00  0.00     0.072 A 
HETATM    6  C   UNL     1     -43.907  61.474 -48.951  1.00  0.00     0.033 A 
HETATM    7  C   UNL     1     -45.093  62.150 -48.649  1.00  0.00     0.014 A 
HETATM    8  C   UNL     1     -46.072  62.322 -49.627  1.00  0.00    -0.022 A 
HETATM    9  C   UNL     1     -45.837  61.792 -50.899  1.00  0.00     0.029 A 
HETATM   10  C   UNL     1     -44.625  61.110 -51.207  1.00  0.00     0.029 A 
ENDROOT
BRANCH   3  11
HETATM   11  C   UNL     1     -40.830  59.335 -51.908  1.00  0.00     0.086 C 
HETATM   12  C   UNL     1     -40.395  58.295 -50.871  1.00  0.00     0.188 C 
HETATM   13  O   UNL     1     -41.145  57.068 -50.876  1.00  0.00    -0.350 OA
HETATM   14  C   UNL     1     -41.520  56.604 -52.108  1.00  0.00     0.075 A 
HETATM   15  C   UNL     1     -42.119  55.342 -52.128  1.00  0.00     0.038 A 
HETATM   16  C   UNL     1     -41.384  57.335 -53.291  1.00  0.00    -0.023 A 
HETATM   17  C   UNL     1     -42.588  54.801 -53.329  1.00  0.00     0.020 A 
HETATM   18  C   UNL     1     -42.449  55.524 -54.519  1.00  0.00     0.032 A 
HETATM   19  C   UNL     1     -41.847  56.787 -54.495  1.00  0.00     0.027 A 
HETATM   20  C   UNL     1     -40.728  58.687 -53.289  1.00  0.00     0.056 C 
BRANCH  18  21
HETATM   21  C   UNL     1     -42.973  55.017 -55.815  1.00  0.00     0.252 C 
HETATM   22  O   UNL     1     -43.340  53.850 -55.903  1.00  0.00    -0.268 OA
HETATM   23  N   UNL     1     -43.028  55.930 -56.850  1.00  0.00    -0.352 N 
HETATM   24  H   UNL     1     -42.891  56.912 -56.652  1.00  0.00     0.163 HD
BRANCH  23  25
HETATM   25  C   UNL     1     -43.540  55.575 -58.137  1.00  0.00     0.084 A 
HETATM   26  C   UNL     1     -44.154  56.617 -59.030  1.00  0.00     0.027 A 
HETATM   27  C   UNL     1     -42.827  56.015 -59.384  1.00  0.00     0.027 A 
ENDBRANCH  23  25
ENDBRANCH  18  21
ENDBRANCH   3  11
BRANCH   1  28
HETATM   28  S   UNL     1     -45.341  60.667 -53.884  1.00  0.00    -0.108 SA
BRANCH  28  29
HETATM   29  C   UNL     1     -44.090  60.812 -55.214  1.00  0.00     0.108 C 
BRANCH  29  30
HETATM   30  C   UNL     1     -44.380  59.796 -56.322  1.00  0.00     0.244 C 
BRANCH  30  31
HETATM   31  N   UNL     1     -43.442  59.971 -57.509  1.00  0.00    -0.078 N 
HETATM   32  C   UNL     1     -43.365  61.387 -58.012  1.00  0.00     0.269 C 
HETATM   33  H   UNL     1     -43.852  59.408 -58.273  1.00  0.00     0.279 HD
HETATM   34  C   UNL     1     -42.079  59.404 -57.234  1.00  0.00     0.269 C 
ENDBRANCH  30  31
ENDBRANCH  29  30
ENDBRANCH  28  29
ENDBRANCH   1  28
BRANCH   8  35
HETATM   35  C   UNL     1     -47.305  63.035 -49.347  1.00  0.00     0.010 A 
HETATM   36  C   UNL     1     -48.158  63.777 -50.196  1.00  0.00     0.152 A 
HETATM   37  N   UNL     1     -49.189  64.323 -49.547  1.00  0.00    -0.187 NA
HETATM   38  N   UNL     1     -49.010  63.923 -48.278  1.00  0.00    -0.289 N 
HETATM   39  H   UNL     1     -49.685  64.216 -47.578  1.00  0.00     0.188 HD
HETATM   40  C   UNL     1     -47.892  63.156 -48.105  1.00  0.00     0.123 A 
ENDBRANCH   8  35
TORSDOF 8
ENDMDL
MODEL 9
REMARK VINA RESULT:      -7.5      3.019      7.274
REMARK  8 active torsions:
REMARK  status: ('A' for Active; 'I' for Inactive)
REMARK    1  A    between atoms: N_2  and  C_5 
REMARK    2  A    between atoms: C_5  and  C_6 
REMARK    3  A    between atoms: C_6  and  S_7 
REMARK    4  A    between atoms: S_7  and  C_8 
REMARK    5  A    between atoms: C_10  and  C_24 
REMARK    6  A    between atoms: C_15  and  C_18 
REMARK    7  A    between atoms: C_30  and  C_34 
REMARK       I    between atoms: C_34  and  N_36 
REMARK    8  A    between atoms: N_36  and  C_37 
ROOT
HETATM    1  C   UNL     1     -42.643  55.551 -55.321  1.00  0.00     0.108 A 
HETATM    2  N   UNL     1     -42.794  55.113 -56.586  1.00  0.00    -0.225 NA
HETATM    3  C   UNL     1     -42.783  56.033 -57.557  1.00  0.00     0.134 A 
HETATM    4  N   UNL     1     -42.563  57.339 -57.340  1.00  0.00    -0.232 NA
HETATM    5  C   UNL     1     -42.429  57.763 -56.080  1.00  0.00     0.072 A 
HETATM    6  C   UNL     1     -42.261  59.122 -55.854  1.00  0.00     0.033 A 
HETATM    7  C   UNL     1     -42.149  59.652 -54.564  1.00  0.00     0.014 A 
HETATM    8  C   UNL     1     -42.199  58.811 -53.453  1.00  0.00    -0.022 A 
HETATM    9  C   UNL     1     -42.350  57.437 -53.669  1.00  0.00     0.029 A 
HETATM   10  C   UNL     1     -42.471  56.900 -54.983  1.00  0.00     0.029 A 
ENDROOT
BRANCH   3  11
HETATM   11  C   UNL     1     -43.044  55.608 -58.988  1.00  0.00     0.086 C 
HETATM   12  C   UNL     1     -44.514  55.698 -59.411  1.00  0.00     0.188 C 
HETATM   13  O   UNL     1     -45.056  57.028 -59.476  1.00  0.00    -0.350 OA
HETATM   14  C   UNL     1     -44.209  57.995 -59.947  1.00  0.00     0.075 A 
HETATM   15  C   UNL     1     -44.774  59.256 -60.150  1.00  0.00     0.038 A 
HETATM   16  C   UNL     1     -42.845  57.794 -60.172  1.00  0.00    -0.023 A 
HETATM   17  C   UNL     1     -43.982  60.326 -60.577  1.00  0.00     0.020 A 
HETATM   18  C   UNL     1     -42.617  60.131 -60.810  1.00  0.00     0.032 A 
HETATM   19  C   UNL     1     -42.053  58.865 -60.607  1.00  0.00     0.027 A 
HETATM   20  C   UNL     1     -42.224  56.439 -59.973  1.00  0.00     0.056 C 
BRANCH  18  21
HETATM   21  C   UNL     1     -41.720  61.244 -61.218  1.00  0.00     0.252 C 
HETATM   22  O   UNL     1     -41.684  61.592 -62.393  1.00  0.00    -0.268 OA
HETATM   23  N   UNL     1     -40.984  61.836 -60.209  1.00  0.00    -0.352 N 
HETATM   24  H   UNL     1     -41.207  61.626 -59.245  1.00  0.00     0.163 HD
BRANCH  23  25
HETATM   25  C   UNL     1     -40.108  62.936 -60.465  1.00  0.00     0.084 A 
HETATM   26  C   UNL     1     -40.340  64.269 -59.810  1.00  0.00     0.027 A 
HETATM   27  C   UNL     1     -39.171  63.425 -59.398  1.00  0.00     0.027 A 
ENDBRANCH  23  25
ENDBRANCH  18  21
ENDBRANCH   3  11
BRANCH   1  28
HETATM   28  S   UNL     1     -42.774  54.263 -54.074  1.00  0.00    -0.108 SA
BRANCH  28  29
HETATM   29  C   UNL     1     -41.001  53.935 -53.751  1.00  0.00     0.108 C 
BRANCH  29  30
HETATM   30  C   UNL     1     -40.585  52.610 -54.396  1.00  0.00     0.244 C 
BRANCH  30  31
HETATM   31  N   UNL     1     -39.666  51.803 -53.488  1.00  0.00    -0.078 N 
HETATM   32  C   UNL     1     -39.836  52.119 -52.027  1.00  0.00     0.269 C 
HETATM   33  H   UNL     1     -38.706  52.085 -53.742  1.00  0.00     0.279 HD
HETATM   34  C   UNL     1     -39.771  50.329 -53.753  1.00  0.00     0.269 C 
ENDBRANCH  30  31
ENDBRANCH  29  30
ENDBRANCH  28  29
ENDBRANCH   1  28
BRANCH   8  35
HETATM   35  C   UNL     1     -42.103  59.333 -52.102  1.00  0.00     0.010 A 
HETATM   36  C   UNL     1     -42.759  60.422 -51.483  1.00  0.00     0.152 A 
HETATM   37  N   UNL     1     -42.368  60.613 -50.220  1.00  0.00    -0.187 NA
HETATM   38  N   UNL     1     -41.468  59.637 -50.018  1.00  0.00    -0.289 N 
HETATM   39  H   UNL     1     -41.023  59.571 -49.108  1.00  0.00     0.188 HD
HETATM   40  C   UNL     1     -41.268  58.849 -51.117  1.00  0.00     0.123 A 
ENDBRANCH   8  35
TORSDOF 8
ENDMDL
MODEL 10
REMARK VINA RESULT:      -7.5      2.691      5.531
REMARK  8 active torsions:
REMARK  status: ('A' for Active; 'I' for Inactive)
REMARK    1  A    between atoms: N_2  and  C_5 
REMARK    2  A    between atoms: C_5  and  C_6 
REMARK    3  A    between atoms: C_6  and  S_7 
REMARK    4  A    between atoms: S_7  and  C_8 
REMARK    5  A    between atoms: C_10  and  C_24 
REMARK    6  A    between atoms: C_15  and  C_18 
REMARK    7  A    between atoms: C_30  and  C_34 
REMARK       I    between atoms: C_34  and  N_36 
REMARK    8  A    between atoms: N_36  and  C_37 
ROOT
HETATM    1  C   UNL     1     -41.957  58.051 -54.725  1.00  0.00     0.108 A 
HETATM    2  N   UNL     1     -42.153  58.439 -56.000  1.00  0.00    -0.225 NA
HETATM    3  C   UNL     1     -42.351  57.476 -56.908  1.00  0.00     0.134 A 
HETATM    4  N   UNL     1     -42.430  56.172 -56.602  1.00  0.00    -0.232 NA
HETATM    5  C   UNL     1     -42.219  55.799 -55.335  1.00  0.00     0.072 A 
HETATM    6  C   UNL     1     -42.243  54.446 -55.032  1.00  0.00     0.033 A 
HETATM    7  C   UNL     1     -41.996  53.970 -53.740  1.00  0.00     0.014 A 
HETATM    8  C   UNL     1     -41.721  54.862 -52.704  1.00  0.00    -0.022 A 
HETATM    9  C   UNL     1     -41.712  56.231 -52.994  1.00  0.00     0.029 A 
HETATM   10  C   UNL     1     -41.956  56.712 -54.312  1.00  0.00     0.029 A 
ENDROOT
BRANCH   3  11
HETATM   11  C   UNL     1     -42.482  57.848 -58.371  1.00  0.00     0.086 C 
HETATM   12  C   UNL     1     -43.188  56.792 -59.226  1.00  0.00     0.188 C 
HETATM   13  O   UNL     1     -44.580  56.586 -58.927  1.00  0.00    -0.350 OA
HETATM   14  C   UNL     1     -45.293  57.709 -58.606  1.00  0.00     0.075 A 
HETATM   15  C   UNL     1     -46.671  57.535 -58.459  1.00  0.00     0.038 A 
HETATM   16  C   UNL     1     -44.715  58.960 -58.374  1.00  0.00    -0.023 A 
HETATM   17  C   UNL     1     -47.483  58.608 -58.078  1.00  0.00     0.020 A 
HETATM   18  C   UNL     1     -46.912  59.865 -57.850  1.00  0.00     0.032 A 
HETATM   19  C   UNL     1     -45.531  60.036 -58.000  1.00  0.00     0.027 A 
HETATM   20  C   UNL     1     -43.236  59.167 -58.543  1.00  0.00     0.056 C 
BRANCH  18  21
HETATM   21  C   UNL     1     -47.721  61.027 -57.396  1.00  0.00     0.252 C 
HETATM   22  O   UNL     1     -47.237  62.153 -57.437  1.00  0.00    -0.268 OA
HETATM   23  N   UNL     1     -49.004  60.748 -56.967  1.00  0.00    -0.352 N 
HETATM   24  H   UNL     1     -49.396  59.832 -57.141  1.00  0.00     0.163 HD
BRANCH  23  25
HETATM   25  C   UNL     1     -49.892  61.781 -56.535  1.00  0.00     0.084 A 
HETATM   26  C   UNL     1     -51.106  62.137 -57.347  1.00  0.00     0.027 A 
HETATM   27  C   UNL     1     -51.265  61.439 -56.030  1.00  0.00     0.027 A 
ENDBRANCH  23  25
ENDBRANCH  18  21
ENDBRANCH   3  11
BRANCH   1  28
HETATM   28  S   UNL     1     -41.596  59.400 -53.593  1.00  0.00    -0.108 SA
BRANCH  28  29
HETATM   29  C   UNL     1     -43.255  59.674 -52.866  1.00  0.00     0.108 C 
BRANCH  29  30
HETATM   30  C   UNL     1     -43.179  59.609 -51.339  1.00  0.00     0.244 C 
BRANCH  30  31
HETATM   31  N   UNL     1     -44.310  58.776 -50.751  1.00  0.00    -0.078 N 
HETATM   32  C   UNL     1     -45.485  59.596 -50.292  1.00  0.00     0.269 C 
HETATM   33  H   UNL     1     -43.916  58.327 -49.909  1.00  0.00     0.279 HD
HETATM   34  C   UNL     1     -44.732  57.672 -51.677  1.00  0.00     0.269 C 
ENDBRANCH  30  31
ENDBRANCH  29  30
ENDBRANCH  28  29
ENDBRANCH   1  28
BRANCH   8  35
HETATM   35  C   UNL     1     -41.444  54.397 -51.357  1.00  0.00     0.010 A 
HETATM   36  C   UNL     1     -42.069  54.702 -50.126  1.00  0.00     0.152 A 
HETATM   37  N   UNL     1     -41.491  54.095 -49.087  1.00  0.00    -0.187 NA
HETATM   38  N   UNL     1     -40.500  53.384 -49.649  1.00  0.00    -0.289 N 
HETATM   39  H   UNL     1     -39.907  52.822 -49.046  1.00  0.00     0.188 HD
HETATM   40  C   UNL     1     -40.425  53.538 -51.004  1.00  0.00     0.123 A 
ENDBRANCH   8  35
TORSDOF 8
ENDMDL
