MODEL 1
REMARK VINA RESULT:      -7.7      0.000      0.000
REMARK  9 active torsions:
REMARK  status: ('A' for Active; 'I' for Inactive)
REMARK    1  A    between atoms: C_2  and  O_3 
REMARK    2  A    between atoms: O_3  and  C_4 
REMARK    3  A    between atoms: C_4  and  C_5 
REMARK    4  A    between atoms: C_10  and  N_11 
REMARK       I    between atoms: N_11  and  C_12 
REMARK    5  A    between atoms: C_12  and  C_13 
REMARK    6  A    between atoms: C_13  and  N_14 
REMARK    7  A    between atoms: C_16  and  C_17 
REMARK    8  A    between atoms: C_17  and  C_18 
REMARK    9  A    between atoms: C_18  and  O_19 
ROOT
HETATM    1  C   UNL     1     -41.286  55.470 -52.591  1.00  0.00     0.137 A 
HETATM    2  N   UNL     1     -40.862  54.641 -51.585  1.00  0.00    -0.349 N 
HETATM    3  H   UNL     1     -40.859  54.887 -50.603  1.00  0.00     0.166 HD
HETATM    4  C   UNL     1     -40.441  53.438 -52.092  1.00  0.00     0.045 A 
HETATM    5  C   UNL     1     -40.596  53.489 -53.484  1.00  0.00     0.021 A 
HETATM    6  C   UNL     1     -41.126  54.788 -53.795  1.00  0.00     0.080 A 
HETATM    7  C   UNL     1     -39.938  52.324 -51.406  1.00  0.00     0.032 A 
HETATM    8  C   UNL     1     -39.576  51.205 -52.154  1.00  0.00     0.026 A 
HETATM    9  C   UNL     1     -39.719  51.210 -53.534  1.00  0.00     0.035 A 
HETATM   10 CL   UNL     1     -39.273  49.814 -54.438  1.00  0.00    -0.084 Cl
HETATM   11  C   UNL     1     -40.223  52.331 -54.206  1.00  0.00     0.040 A 
ENDROOT
BRANCH   6  12
HETATM   12  N   UNL     1     -41.473  55.428 -54.986  1.00  0.00    -0.323 N 
HETATM   13  C   UNL     1     -42.473  55.107 -55.875  1.00  0.00     0.248 C 
HETATM   14  O   UNL     1     -43.292  54.202 -55.777  1.00  0.00    -0.271 OA
HETATM   15  H   UNL     1     -40.825  56.180 -55.229  1.00  0.00     0.169 HD
BRANCH  13  16
HETATM   16  C   UNL     1     -42.545  56.053 -57.084  1.00  0.00     0.338 C 
BRANCH  16  17
HETATM   17  N   UNL     1     -43.974  56.349 -57.617  1.00  0.00    -0.059 N 
HETATM   18  H   UNL     1     -44.626  55.728 -57.121  1.00  0.00     0.280 HD
HETATM   19  C   UNL     1     -44.380  57.809 -57.386  1.00  0.00     0.190 C 
HETATM   20  C   UNL     1     -45.783  58.053 -57.957  1.00  0.00     0.033 C 
HETATM   21  C   UNL     1     -45.863  57.698 -59.433  1.00  0.00     0.004 C 
HETATM   22  C   UNL     1     -45.468  56.248 -59.638  1.00  0.00     0.028 C 
HETATM   23  C   UNL     1     -44.077  55.958 -59.095  1.00  0.00     0.236 C 
BRANCH  19  24
HETATM   24  C   UNL     1     -44.305  58.230 -55.907  1.00  0.00     0.059 C 
BRANCH  24  25
HETATM   25  C   UNL     1     -45.445  57.752 -55.016  1.00  0.00     0.166 C 
BRANCH  25  26
HETATM   26  O   UNL     1     -45.226  56.399 -54.658  1.00  0.00    -0.401 OA
HETATM   27  H   UNL     1     -46.071  55.918 -54.640  1.00  0.00     0.209 HD
ENDBRANCH  25  26
ENDBRANCH  24  25
ENDBRANCH  19  24
ENDBRANCH  16  17
ENDBRANCH  13  16
ENDBRANCH   6  12
BRANCH   1  28
HETATM   28  C   UNL     1     -41.787  56.808 -52.383  1.00  0.00     0.312 C 
HETATM   29  O   UNL     1     -41.072  57.758 -52.079  1.00  0.00    -0.258 OA
BRANCH  28  30
HETATM   30  O   UNL     1     -43.132  56.837 -52.566  1.00  0.00    -0.317 OA
BRANCH  30  31
HETATM   31  C   UNL     1     -43.935  56.759 -51.377  1.00  0.00     0.175 C 
HETATM   32  C   UNL     1     -44.846  57.969 -51.286  1.00  0.00     0.034 C 
ENDBRANCH  30  31
ENDBRANCH  28  30
ENDBRANCH   1  28
TORSDOF 9
ENDMDL
MODEL 2
REMARK VINA RESULT:      -7.6      0.855      1.388
REMARK  9 active torsions:
REMARK  status: ('A' for Active; 'I' for Inactive)
REMARK    1  A    between atoms: C_2  and  O_3 
REMARK    2  A    between atoms: O_3  and  C_4 
REMARK    3  A    between atoms: C_4  and  C_5 
REMARK    4  A    between atoms: C_10  and  N_11 
REMARK       I    between atoms: N_11  and  C_12 
REMARK    5  A    between atoms: C_12  and  C_13 
REMARK    6  A    between atoms: C_13  and  N_14 
REMARK    7  A    between atoms: C_16  and  C_17 
REMARK    8  A    between atoms: C_17  and  C_18 
REMARK    9  A    between atoms: C_18  and  O_19 
ROOT
HETATM    1  C   UNL     1     -41.285  55.506 -52.629  1.00  0.00     0.137 A 
HETATM    2  N   UNL     1     -40.861  54.684 -51.616  1.00  0.00    -0.349 N 
HETATM    3  H   UNL     1     -40.857  54.939 -50.636  1.00  0.00     0.166 HD
HETATM    4  C   UNL     1     -40.444  53.476 -52.113  1.00  0.00     0.045 A 
HETATM    5  C   UNL     1     -40.599  53.516 -53.506  1.00  0.00     0.021 A 
HETATM    6  C   UNL     1     -41.127  54.814 -53.827  1.00  0.00     0.080 A 
HETATM    7  C   UNL     1     -39.942  52.368 -51.418  1.00  0.00     0.032 A 
HETATM    8  C   UNL     1     -39.583  51.241 -52.158  1.00  0.00     0.026 A 
HETATM    9  C   UNL     1     -39.727  51.236 -53.538  1.00  0.00     0.035 A 
HETATM   10 CL   UNL     1     -39.284  49.832 -54.431  1.00  0.00    -0.084 Cl
HETATM   11  C   UNL     1     -40.229  52.353 -54.219  1.00  0.00     0.040 A 
ENDROOT
BRANCH   6  12
HETATM   12  N   UNL     1     -41.474  55.445 -55.023  1.00  0.00    -0.323 N 
HETATM   13  C   UNL     1     -42.485  55.128 -55.901  1.00  0.00     0.248 C 
HETATM   14  O   UNL     1     -43.316  54.237 -55.786  1.00  0.00    -0.271 OA
HETATM   15  H   UNL     1     -40.817  56.185 -55.279  1.00  0.00     0.169 HD
BRANCH  13  16
HETATM   16  C   UNL     1     -42.553  56.061 -57.120  1.00  0.00     0.338 C 
BRANCH  16  17
HETATM   17  N   UNL     1     -43.972  56.293 -57.706  1.00  0.00    -0.059 N 
HETATM   18  H   UNL     1     -44.624  55.690 -57.189  1.00  0.00     0.280 HD
HETATM   19  C   UNL     1     -44.413  57.756 -57.578  1.00  0.00     0.190 C 
HETATM   20  C   UNL     1     -45.805  57.934 -58.197  1.00  0.00     0.033 C 
HETATM   21  C   UNL     1     -45.839  57.487 -59.650  1.00  0.00     0.004 C 
HETATM   22  C   UNL     1     -45.410  56.036 -59.754  1.00  0.00     0.028 C 
HETATM   23  C   UNL     1     -44.028  55.809 -59.159  1.00  0.00     0.236 C 
BRANCH  19  24
HETATM   24  C   UNL     1     -44.385  58.269 -56.126  1.00  0.00     0.059 C 
BRANCH  24  25
HETATM   25  C   UNL     1     -45.513  57.785 -55.223  1.00  0.00     0.166 C 
BRANCH  25  26
HETATM   26  O   UNL     1     -45.168  56.524 -54.676  1.00  0.00    -0.401 OA
HETATM   27  H   UNL     1     -45.291  56.534 -53.711  1.00  0.00     0.209 HD
ENDBRANCH  25  26
ENDBRANCH  24  25
ENDBRANCH  19  24
ENDBRANCH  16  17
ENDBRANCH  13  16
ENDBRANCH   6  12
BRANCH   1  28
HETATM   28  C   UNL     1     -41.783  56.847 -52.431  1.00  0.00     0.312 C 
HETATM   29  O   UNL     1     -42.681  57.341 -53.105  1.00  0.00    -0.258 OA
BRANCH  28  30
HETATM   30  O   UNL     1     -41.112  57.450 -51.416  1.00  0.00    -0.317 OA
BRANCH  30  31
HETATM   31  C   UNL     1     -40.846  58.852 -51.577  1.00  0.00     0.175 C 
HETATM   32  C   UNL     1     -39.529  59.210 -50.914  1.00  0.00     0.034 C 
ENDBRANCH  30  31
ENDBRANCH  28  30
ENDBRANCH   1  28
TORSDOF 9
ENDMDL
MODEL 3
REMARK VINA RESULT:      -7.3      1.725      2.805
REMARK  9 active torsions:
REMARK  status: ('A' for Active; 'I' for Inactive)
REMARK    1  A    between atoms: C_2  and  O_3 
REMARK    2  A    between atoms: O_3  and  C_4 
REMARK    3  A    between atoms: C_4  and  C_5 
REMARK    4  A    between atoms: C_10  and  N_11 
REMARK       I    between atoms: N_11  and  C_12 
REMARK    5  A    between atoms: C_12  and  C_13 
REMARK    6  A    between atoms: C_13  and  N_14 
REMARK    7  A    between atoms: C_16  and  C_17 
REMARK    8  A    between atoms: C_17  and  C_18 
REMARK    9  A    between atoms: C_18  and  O_19 
ROOT
HETATM    1  C   UNL     1     -41.260  55.559 -52.648  1.00  0.00     0.137 A 
HETATM    2  N   UNL     1     -40.751  54.762 -51.655  1.00  0.00    -0.349 N 
HETATM    3  H   UNL     1     -40.665  55.041 -50.686  1.00  0.00     0.166 HD
HETATM    4  C   UNL     1     -40.376  53.542 -52.155  1.00  0.00     0.045 A 
HETATM    5  C   UNL     1     -40.648  53.547 -53.530  1.00  0.00     0.021 A 
HETATM    6  C   UNL     1     -41.203  54.837 -53.838  1.00  0.00     0.080 A 
HETATM    7  C   UNL     1     -39.815  52.451 -51.478  1.00  0.00     0.032 A 
HETATM    8  C   UNL     1     -39.519  51.306 -52.216  1.00  0.00     0.026 A 
HETATM    9  C   UNL     1     -39.779  51.266 -53.579  1.00  0.00     0.035 A 
HETATM   10 CL   UNL     1     -39.412  49.840 -54.471  1.00  0.00    -0.084 Cl
HETATM   11  C   UNL     1     -40.338  52.366 -54.242  1.00  0.00     0.040 A 
ENDROOT
BRANCH   6  12
HETATM   12  N   UNL     1     -41.651  55.439 -55.016  1.00  0.00    -0.323 N 
HETATM   13  C   UNL     1     -42.655  55.029 -55.862  1.00  0.00     0.248 C 
HETATM   14  O   UNL     1     -43.391  54.059 -55.728  1.00  0.00    -0.271 OA
HETATM   15  H   UNL     1     -41.079  56.241 -55.286  1.00  0.00     0.169 HD
BRANCH  13  16
HETATM   16  C   UNL     1     -42.856  55.958 -57.069  1.00  0.00     0.338 C 
BRANCH  16  17
HETATM   17  N   UNL     1     -43.162  57.443 -56.728  1.00  0.00    -0.059 N 
HETATM   18  H   UNL     1     -42.428  57.772 -56.088  1.00  0.00     0.280 HD
HETATM   19  C   UNL     1     -43.186  58.325 -57.981  1.00  0.00     0.190 C 
HETATM   20  C   UNL     1     -43.521  59.771 -57.590  1.00  0.00     0.033 C 
HETATM   21  C   UNL     1     -44.841  59.862 -56.840  1.00  0.00     0.004 C 
HETATM   22  C   UNL     1     -44.792  58.990 -55.600  1.00  0.00     0.028 C 
HETATM   23  C   UNL     1     -44.470  57.542 -55.937  1.00  0.00     0.236 C 
BRANCH  19  24
HETATM   24  C   UNL     1     -41.877  58.262 -58.789  1.00  0.00     0.059 C 
BRANCH  24  25
HETATM   25  C   UNL     1     -42.000  57.780 -60.229  1.00  0.00     0.166 C 
BRANCH  25  26
HETATM   26  O   UNL     1     -41.357  56.525 -60.361  1.00  0.00    -0.401 OA
HETATM   27  H   UNL     1     -40.393  56.648 -60.406  1.00  0.00     0.209 HD
ENDBRANCH  25  26
ENDBRANCH  24  25
ENDBRANCH  19  24
ENDBRANCH  16  17
ENDBRANCH  13  16
ENDBRANCH   6  12
BRANCH   1  28
HETATM   28  C   UNL     1     -41.742  56.904 -52.442  1.00  0.00     0.312 C 
HETATM   29  O   UNL     1     -42.686  57.387 -53.060  1.00  0.00    -0.258 OA
BRANCH  28  30
HETATM   30  O   UNL     1     -40.998  57.527 -51.491  1.00  0.00    -0.317 OA
BRANCH  30  31
HETATM   31  C   UNL     1     -40.565  58.861 -51.798  1.00  0.00     0.175 C 
HETATM   32  C   UNL     1     -39.440  59.269 -50.866  1.00  0.00     0.034 C 
ENDBRANCH  30  31
ENDBRANCH  28  30
ENDBRANCH   1  28
TORSDOF 9
ENDMDL
MODEL 4
REMARK VINA RESULT:      -7.2      1.762      2.646
REMARK  9 active torsions:
REMARK  status: ('A' for Active; 'I' for Inactive)
REMARK    1  A    between atoms: C_2  and  O_3 
REMARK    2  A    between atoms: O_3  and  C_4 
REMARK    3  A    between atoms: C_4  and  C_5 
REMARK    4  A    between atoms: C_10  and  N_11 
REMARK       I    between atoms: N_11  and  C_12 
REMARK    5  A    between atoms: C_12  and  C_13 
REMARK    6  A    between atoms: C_13  and  N_14 
REMARK    7  A    between atoms: C_16  and  C_17 
REMARK    8  A    between atoms: C_17  and  C_18 
REMARK    9  A    between atoms: C_18  and  O_19 
ROOT
HETATM    1  C   UNL     1     -41.853  55.350 -52.103  1.00  0.00     0.137 A 
HETATM    2  N   UNL     1     -41.087  54.660 -51.199  1.00  0.00    -0.349 N 
HETATM    3  H   UNL     1     -40.914  54.961 -50.248  1.00  0.00     0.166 HD
HETATM    4  C   UNL     1     -40.588  53.512 -51.761  1.00  0.00     0.045 A 
HETATM    5  C   UNL     1     -41.046  53.456 -53.084  1.00  0.00     0.021 A 
HETATM    6  C   UNL     1     -41.844  54.633 -53.297  1.00  0.00     0.080 A 
HETATM    7  C   UNL     1     -39.767  52.537 -51.180  1.00  0.00     0.032 A 
HETATM    8  C   UNL     1     -39.391  51.448 -51.965  1.00  0.00     0.026 A 
HETATM    9  C   UNL     1     -39.828  51.349 -53.279  1.00  0.00     0.035 A 
HETATM   10 CL   UNL     1     -39.358  49.993 -54.230  1.00  0.00    -0.084 Cl
HETATM   11  C   UNL     1     -40.648  52.334 -53.846  1.00  0.00     0.040 A 
ENDROOT
BRANCH   6  12
HETATM   12  N   UNL     1     -42.544  55.138 -54.395  1.00  0.00    -0.323 N 
HETATM   13  C   UNL     1     -42.151  55.199 -55.711  1.00  0.00     0.248 C 
HETATM   14  O   UNL     1     -41.107  54.783 -56.196  1.00  0.00    -0.271 OA
HETATM   15  H   UNL     1     -43.426  55.580 -54.125  1.00  0.00     0.169 HD
BRANCH  13  16
HETATM   16  C   UNL     1     -43.203  55.833 -56.636  1.00  0.00     0.338 C 
BRANCH  16  17
HETATM   17  N   UNL     1     -42.639  56.623 -57.849  1.00  0.00    -0.059 N 
HETATM   18  H   UNL     1     -41.719  56.225 -58.078  1.00  0.00     0.280 HD
HETATM   19  C   UNL     1     -43.560  56.528 -59.071  1.00  0.00     0.190 C 
HETATM   20  C   UNL     1     -42.971  57.348 -60.227  1.00  0.00     0.033 C 
HETATM   21  C   UNL     1     -42.744  58.799 -59.833  1.00  0.00     0.004 C 
HETATM   22  C   UNL     1     -41.824  58.870 -58.629  1.00  0.00     0.028 C 
HETATM   23  C   UNL     1     -42.370  58.077 -57.451  1.00  0.00     0.236 C 
BRANCH  19  24
HETATM   24  C   UNL     1     -43.835  55.078 -59.508  1.00  0.00     0.059 C 
BRANCH  24  25
HETATM   25  C   UNL     1     -45.137  54.841 -60.264  1.00  0.00     0.166 C 
BRANCH  25  26
HETATM   26  O   UNL     1     -44.846  54.545 -61.618  1.00  0.00    -0.401 OA
HETATM   27  H   UNL     1     -45.168  55.261 -62.192  1.00  0.00     0.209 HD
ENDBRANCH  25  26
ENDBRANCH  24  25
ENDBRANCH  19  24
ENDBRANCH  16  17
ENDBRANCH  13  16
ENDBRANCH   6  12
BRANCH   1  28
HETATM   28  C   UNL     1     -42.517  56.600 -51.817  1.00  0.00     0.312 C 
HETATM   29  O   UNL     1     -41.929  57.605 -51.433  1.00  0.00    -0.258 OA
BRANCH  28  30
HETATM   30  O   UNL     1     -43.853  56.479 -52.030  1.00  0.00    -0.317 OA
BRANCH  30  31
HETATM   31  C   UNL     1     -44.571  57.701 -52.264  1.00  0.00     0.175 C 
HETATM   32  C   UNL     1     -44.650  57.979 -53.753  1.00  0.00     0.034 C 
ENDBRANCH  30  31
ENDBRANCH  28  30
ENDBRANCH   1  28
TORSDOF 9
ENDMDL
MODEL 5
REMARK VINA RESULT:      -6.9      2.608      7.161
REMARK  9 active torsions:
REMARK  status: ('A' for Active; 'I' for Inactive)
REMARK    1  A    between atoms: C_2  and  O_3 
REMARK    2  A    between atoms: O_3  and  C_4 
REMARK    3  A    between atoms: C_4  and  C_5 
REMARK    4  A    between atoms: C_10  and  N_11 
REMARK       I    between atoms: N_11  and  C_12 
REMARK    5  A    between atoms: C_12  and  C_13 
REMARK    6  A    between atoms: C_13  and  N_14 
REMARK    7  A    between atoms: C_16  and  C_17 
REMARK    8  A    between atoms: C_17  and  C_18 
REMARK    9  A    between atoms: C_18  and  O_19 
ROOT
HETATM    1  C   UNL     1     -42.593  57.889 -55.896  1.00  0.00     0.137 A 
HETATM    2  N   UNL     1     -43.473  58.590 -56.681  1.00  0.00    -0.349 N 
HETATM    3  H   UNL     1     -43.765  59.543 -56.501  1.00  0.00     0.166 HD
HETATM    4  C   UNL     1     -43.901  57.824 -57.735  1.00  0.00     0.045 A 
HETATM    5  C   UNL     1     -43.277  56.574 -57.629  1.00  0.00     0.021 A 
HETATM    6  C   UNL     1     -42.453  56.619 -56.452  1.00  0.00     0.080 A 
HETATM    7  C   UNL     1     -44.795  58.163 -58.759  1.00  0.00     0.032 A 
HETATM    8  C   UNL     1     -45.072  57.200 -59.729  1.00  0.00     0.026 A 
HETATM    9  C   UNL     1     -44.471  55.952 -59.666  1.00  0.00     0.035 A 
HETATM   10 CL   UNL     1     -44.821  54.779 -60.878  1.00  0.00    -0.084 Cl
HETATM   11  C   UNL     1     -43.580  55.627 -58.634  1.00  0.00     0.040 A 
ENDROOT
BRANCH   6  12
HETATM   12  N   UNL     1     -41.615  55.695 -55.824  1.00  0.00    -0.323 N 
HETATM   13  C   UNL     1     -41.924  54.448 -55.335  1.00  0.00     0.248 C 
HETATM   14  O   UNL     1     -43.006  53.876 -55.386  1.00  0.00    -0.271 OA
HETATM   15  H   UNL     1     -40.678  56.068 -55.659  1.00  0.00     0.169 HD
BRANCH  13  16
HETATM   16  C   UNL     1     -40.725  53.723 -54.704  1.00  0.00     0.338 C 
BRANCH  16  17
HETATM   17  N   UNL     1     -40.972  53.127 -53.290  1.00  0.00    -0.059 N 
HETATM   18  H   UNL     1     -41.744  52.453 -53.368  1.00  0.00     0.280 HD
HETATM   19  C   UNL     1     -39.726  52.421 -52.742  1.00  0.00     0.190 C 
HETATM   20  C   UNL     1     -40.016  51.879 -51.336  1.00  0.00     0.033 C 
HETATM   21  C   UNL     1     -40.474  52.976 -50.390  1.00  0.00     0.004 C 
HETATM   22  C   UNL     1     -41.712  53.655 -50.946  1.00  0.00     0.028 C 
HETATM   23  C   UNL     1     -41.472  54.218 -52.338  1.00  0.00     0.236 C 
BRANCH  19  24
HETATM   24  C   UNL     1     -39.209  51.305 -53.668  1.00  0.00     0.059 C 
BRANCH  24  25
HETATM   25  C   UNL     1     -39.873  49.943 -53.513  1.00  0.00     0.166 C 
BRANCH  25  26
HETATM   26  O   UNL     1     -40.149  49.407 -54.795  1.00  0.00    -0.401 OA
HETATM   27  H   UNL     1     -41.103  49.243 -54.888  1.00  0.00     0.209 HD
ENDBRANCH  25  26
ENDBRANCH  24  25
ENDBRANCH  19  24
ENDBRANCH  16  17
ENDBRANCH  13  16
ENDBRANCH   6  12
BRANCH   1  28
HETATM   28  C   UNL     1     -41.965  58.418 -54.709  1.00  0.00     0.312 C 
HETATM   29  O   UNL     1     -41.362  59.486 -54.681  1.00  0.00    -0.258 OA
BRANCH  28  30
HETATM   30  O   UNL     1     -42.141  57.564 -53.667  1.00  0.00    -0.317 OA
BRANCH  30  31
HETATM   31  C   UNL     1     -42.815  58.098 -52.517  1.00  0.00     0.175 C 
HETATM   32  C   UNL     1     -44.249  58.446 -52.871  1.00  0.00     0.034 C 
ENDBRANCH  30  31
ENDBRANCH  28  30
ENDBRANCH   1  28
TORSDOF 9
ENDMDL
MODEL 6
REMARK VINA RESULT:      -6.7      2.858      4.613
REMARK  9 active torsions:
REMARK  status: ('A' for Active; 'I' for Inactive)
REMARK    1  A    between atoms: C_2  and  O_3 
REMARK    2  A    between atoms: O_3  and  C_4 
REMARK    3  A    between atoms: C_4  and  C_5 
REMARK    4  A    between atoms: C_10  and  N_11 
REMARK       I    between atoms: N_11  and  C_12 
REMARK    5  A    between atoms: C_12  and  C_13 
REMARK    6  A    between atoms: C_13  and  N_14 
REMARK    7  A    between atoms: C_16  and  C_17 
REMARK    8  A    between atoms: C_17  and  C_18 
REMARK    9  A    between atoms: C_18  and  O_19 
ROOT
HETATM    1  C   UNL     1     -41.927  54.838 -53.633  1.00  0.00     0.137 A 
HETATM    2  N   UNL     1     -41.663  54.756 -52.291  1.00  0.00    -0.349 N 
HETATM    3  H   UNL     1     -41.571  53.888 -51.777  1.00  0.00     0.166 HD
HETATM    4  C   UNL     1     -41.544  56.007 -51.742  1.00  0.00     0.045 A 
HETATM    5  C   UNL     1     -41.743  56.940 -52.770  1.00  0.00     0.021 A 
HETATM    6  C   UNL     1     -41.995  56.188 -53.969  1.00  0.00     0.080 A 
HETATM    7  C   UNL     1     -41.279  56.361 -50.412  1.00  0.00     0.032 A 
HETATM    8  C   UNL     1     -41.204  57.718 -50.099  1.00  0.00     0.026 A 
HETATM    9  C   UNL     1     -41.387  58.674 -51.088  1.00  0.00     0.035 A 
HETATM   10 CL   UNL     1     -41.284  60.344 -50.682  1.00  0.00    -0.084 Cl
HETATM   11  C   UNL     1     -41.654  58.305 -52.413  1.00  0.00     0.040 A 
ENDROOT
BRANCH   6  12
HETATM   12  N   UNL     1     -42.272  56.543 -55.290  1.00  0.00    -0.323 N 
HETATM   13  C   UNL     1     -43.440  57.042 -55.819  1.00  0.00     0.248 C 
HETATM   14  O   UNL     1     -44.473  57.311 -55.219  1.00  0.00    -0.271 OA
HETATM   15  H   UNL     1     -41.505  56.314 -55.925  1.00  0.00     0.169 HD
BRANCH  13  16
HETATM   16  C   UNL     1     -43.361  57.311 -57.330  1.00  0.00     0.338 C 
BRANCH  16  17
HETATM   17  N   UNL     1     -44.370  56.517 -58.205  1.00  0.00    -0.059 N 
HETATM   18  H   UNL     1     -44.997  56.006 -57.569  1.00  0.00     0.280 HD
HETATM   19  C   UNL     1     -45.195  57.440 -59.109  1.00  0.00     0.190 C 
HETATM   20  C   UNL     1     -46.151  56.603 -59.969  1.00  0.00     0.033 C 
HETATM   21  C   UNL     1     -45.408  55.564 -60.793  1.00  0.00     0.004 C 
HETATM   22  C   UNL     1     -44.607  54.656 -59.880  1.00  0.00     0.028 C 
HETATM   23  C   UNL     1     -43.636  55.441 -59.010  1.00  0.00     0.236 C 
BRANCH  19  24
HETATM   24  C   UNL     1     -45.961  58.523 -58.327  1.00  0.00     0.059 C 
BRANCH  24  25
HETATM   25  C   UNL     1     -47.290  58.096 -57.716  1.00  0.00     0.166 C 
BRANCH  25  26
HETATM   26  O   UNL     1     -47.052  57.467 -56.469  1.00  0.00    -0.401 OA
HETATM   27  H   UNL     1     -47.278  56.523 -56.524  1.00  0.00     0.209 HD
ENDBRANCH  25  26
ENDBRANCH  24  25
ENDBRANCH  19  24
ENDBRANCH  16  17
ENDBRANCH  13  16
ENDBRANCH   6  12
BRANCH   1  28
HETATM   28  C   UNL     1     -42.108  53.694 -54.496  1.00  0.00     0.312 C 
HETATM   29  O   UNL     1     -42.709  53.741 -55.565  1.00  0.00    -0.258 OA
BRANCH  28  30
HETATM   30  O   UNL     1     -41.531  52.596 -53.943  1.00  0.00    -0.317 OA
BRANCH  30  31
HETATM   31  C   UNL     1     -40.312  52.145 -54.554  1.00  0.00     0.175 C 
HETATM   32  C   UNL     1     -40.119  50.663 -54.293  1.00  0.00     0.034 C 
ENDBRANCH  30  31
ENDBRANCH  28  30
ENDBRANCH   1  28
TORSDOF 9
ENDMDL
MODEL 7
REMARK VINA RESULT:      -6.3      2.675      4.857
REMARK  9 active torsions:
REMARK  status: ('A' for Active; 'I' for Inactive)
REMARK    1  A    between atoms: C_2  and  O_3 
REMARK    2  A    between atoms: O_3  and  C_4 
REMARK    3  A    between atoms: C_4  and  C_5 
REMARK    4  A    between atoms: C_10  and  N_11 
REMARK       I    between atoms: N_11  and  C_12 
REMARK    5  A    between atoms: C_12  and  C_13 
REMARK    6  A    between atoms: C_13  and  N_14 
REMARK    7  A    between atoms: C_16  and  C_17 
REMARK    8  A    between atoms: C_17  and  C_18 
REMARK    9  A    between atoms: C_18  and  O_19 
ROOT
HETATM    1  C   UNL     1     -42.067  56.565 -55.663  1.00  0.00     0.137 A 
HETATM    2  N   UNL     1     -41.644  55.313 -56.029  1.00  0.00    -0.349 N 
HETATM    3  H   UNL     1     -41.648  54.963 -56.979  1.00  0.00     0.166 HD
HETATM    4  C   UNL     1     -41.219  54.604 -54.935  1.00  0.00     0.045 A 
HETATM    5  C   UNL     1     -41.376  55.427 -53.811  1.00  0.00     0.021 A 
HETATM    6  C   UNL     1     -41.924  56.670 -54.282  1.00  0.00     0.080 A 
HETATM    7  C   UNL     1     -40.715  53.297 -54.878  1.00  0.00     0.032 A 
HETATM    8  C   UNL     1     -40.345  52.794 -53.631  1.00  0.00     0.026 A 
HETATM    9  C   UNL     1     -40.477  53.578 -52.494  1.00  0.00     0.035 A 
HETATM   10 CL   UNL     1     -40.007  52.941 -50.965  1.00  0.00    -0.084 Cl
HETATM   11  C   UNL     1     -40.984  54.882 -52.567  1.00  0.00     0.040 A 
ENDROOT
BRANCH   6  12
HETATM   12  N   UNL     1     -42.305  57.856 -53.651  1.00  0.00    -0.323 N 
HETATM   13  C   UNL     1     -41.533  58.951 -53.338  1.00  0.00     0.248 C 
HETATM   14  O   UNL     1     -40.346  59.119 -53.588  1.00  0.00    -0.271 OA
HETATM   15  H   UNL     1     -43.274  57.832 -53.328  1.00  0.00     0.169 HD
BRANCH  13  16
HETATM   16  C   UNL     1     -42.315  60.072 -52.637  1.00  0.00     0.338 C 
BRANCH  16  17
HETATM   17  N   UNL     1     -43.803  60.217 -53.061  1.00  0.00    -0.059 N 
HETATM   18  H   UNL     1     -44.029  59.424 -53.675  1.00  0.00     0.280 HD
HETATM   19  C   UNL     1     -44.745  60.217 -51.852  1.00  0.00     0.190 C 
HETATM   20  C   UNL     1     -46.194  60.392 -52.326  1.00  0.00     0.033 C 
HETATM   21  C   UNL     1     -46.372  61.658 -53.148  1.00  0.00     0.004 C 
HETATM   22  C   UNL     1     -45.438  61.633 -54.343  1.00  0.00     0.028 C 
HETATM   23  C   UNL     1     -43.985  61.469 -53.924  1.00  0.00     0.236 C 
BRANCH  19  24
HETATM   24  C   UNL     1     -44.600  58.961 -50.973  1.00  0.00     0.059 C 
BRANCH  24  25
HETATM   25  C   UNL     1     -45.109  57.658 -51.576  1.00  0.00     0.166 C 
BRANCH  25  26
HETATM   26  O   UNL     1     -45.087  56.643 -50.588  1.00  0.00    -0.401 OA
HETATM   27  H   UNL     1     -44.200  56.246 -50.538  1.00  0.00     0.209 HD
ENDBRANCH  25  26
ENDBRANCH  24  25
ENDBRANCH  19  24
ENDBRANCH  16  17
ENDBRANCH  13  16
ENDBRANCH   6  12
BRANCH   1  28
HETATM   28  C   UNL     1     -42.574  57.552 -56.586  1.00  0.00     0.312 C 
HETATM   29  O   UNL     1     -41.949  58.555 -56.915  1.00  0.00    -0.258 OA
BRANCH  28  30
HETATM   30  O   UNL     1     -43.817  57.203 -57.008  1.00  0.00    -0.317 OA
BRANCH  30  31
HETATM   31  C   UNL     1     -44.847  58.188 -56.829  1.00  0.00     0.175 C 
HETATM   32  C   UNL     1     -45.481  58.033 -55.460  1.00  0.00     0.034 C 
ENDBRANCH  30  31
ENDBRANCH  28  30
ENDBRANCH   1  28
TORSDOF 9
ENDMDL
MODEL 8
REMARK VINA RESULT:      -6.3     14.918     18.080
REMARK  9 active torsions:
REMARK  status: ('A' for Active; 'I' for Inactive)
REMARK    1  A    between atoms: C_2  and  O_3 
REMARK    2  A    between atoms: O_3  and  C_4 
REMARK    3  A    between atoms: C_4  and  C_5 
REMARK    4  A    between atoms: C_10  and  N_11 
REMARK       I    between atoms: N_11  and  C_12 
REMARK    5  A    between atoms: C_12  and  C_13 
REMARK    6  A    between atoms: C_13  and  N_14 
REMARK    7  A    between atoms: C_16  and  C_17 
REMARK    8  A    between atoms: C_17  and  C_18 
REMARK    9  A    between atoms: C_18  and  O_19 
ROOT
HETATM    1  C   UNL     1     -36.016  41.592 -54.779  1.00  0.00     0.137 A 
HETATM    2  N   UNL     1     -36.698  42.374 -55.675  1.00  0.00    -0.349 N 
HETATM    3  H   UNL     1     -37.106  43.274 -55.455  1.00  0.00     0.166 HD
HETATM    4  C   UNL     1     -36.754  41.769 -56.905  1.00  0.00     0.045 A 
HETATM    5  C   UNL     1     -36.083  40.542 -56.802  1.00  0.00     0.021 A 
HETATM    6  C   UNL     1     -35.624  40.433 -55.444  1.00  0.00     0.080 A 
HETATM    7  C   UNL     1     -37.354  42.231 -58.084  1.00  0.00     0.032 A 
HETATM    8  C   UNL     1     -37.272  41.423 -59.218  1.00  0.00     0.026 A 
HETATM    9  C   UNL     1     -36.612  40.205 -59.162  1.00  0.00     0.035 A 
HETATM   10 CL   UNL     1     -36.516  39.226 -60.576  1.00  0.00    -0.084 Cl
HETATM   11  C   UNL     1     -36.018  39.756 -57.975  1.00  0.00     0.040 A 
ENDROOT
BRANCH   6  12
HETATM   12  N   UNL     1     -34.919  39.455 -54.740  1.00  0.00    -0.323 N 
HETATM   13  C   UNL     1     -35.409  38.473 -53.909  1.00  0.00     0.248 C 
HETATM   14  O   UNL     1     -36.581  38.237 -53.648  1.00  0.00    -0.271 OA
HETATM   15  H   UNL     1     -33.907  39.570 -54.820  1.00  0.00     0.169 HD
BRANCH  13  16
HETATM   16  C   UNL     1     -34.314  37.579 -53.307  1.00  0.00     0.338 C 
BRANCH  16  17
HETATM   17  N   UNL     1     -33.596  38.151 -52.054  1.00  0.00    -0.059 N 
HETATM   18  H   UNL     1     -33.096  37.376 -51.601  1.00  0.00     0.280 HD
HETATM   19  C   UNL     1     -32.603  39.260 -52.419  1.00  0.00     0.190 C 
HETATM   20  C   UNL     1     -31.947  39.808 -51.145  1.00  0.00     0.033 C 
HETATM   21  C   UNL     1     -32.979  40.315 -50.150  1.00  0.00     0.004 C 
HETATM   22  C   UNL     1     -33.945  39.201 -49.795  1.00  0.00     0.028 C 
HETATM   23  C   UNL     1     -34.629  38.629 -51.028  1.00  0.00     0.236 C 
BRANCH  19  24
HETATM   24  C   UNL     1     -31.540  38.807 -53.436  1.00  0.00     0.059 C 
BRANCH  24  25
HETATM   25  C   UNL     1     -31.432  39.636 -54.709  1.00  0.00     0.166 C 
BRANCH  25  26
HETATM   26  O   UNL     1     -32.205  40.815 -54.568  1.00  0.00    -0.401 OA
HETATM   27  H   UNL     1     -32.913  40.673 -53.917  1.00  0.00     0.209 HD
ENDBRANCH  25  26
ENDBRANCH  24  25
ENDBRANCH  19  24
ENDBRANCH  16  17
ENDBRANCH  13  16
ENDBRANCH   6  12
BRANCH   1  28
HETATM   28  C   UNL     1     -35.787  41.951 -53.399  1.00  0.00     0.312 C 
HETATM   29  O   UNL     1     -34.676  41.962 -52.879  1.00  0.00    -0.258 OA
BRANCH  28  30
HETATM   30  O   UNL     1     -36.964  42.254 -52.794  1.00  0.00    -0.317 OA
BRANCH  30  31
HETATM   31  C   UNL     1     -37.684  41.152 -52.220  1.00  0.00     0.175 C 
HETATM   32  C   UNL     1     -39.112  41.142 -52.732  1.00  0.00     0.034 C 
ENDBRANCH  30  31
ENDBRANCH  28  30
ENDBRANCH   1  28
TORSDOF 9
ENDMDL
MODEL 9
REMARK VINA RESULT:      -6.3      2.598      5.773
REMARK  9 active torsions:
REMARK  status: ('A' for Active; 'I' for Inactive)
REMARK    1  A    between atoms: C_2  and  O_3 
REMARK    2  A    between atoms: O_3  and  C_4 
REMARK    3  A    between atoms: C_4  and  C_5 
REMARK    4  A    between atoms: C_10  and  N_11 
REMARK       I    between atoms: N_11  and  C_12 
REMARK    5  A    between atoms: C_12  and  C_13 
REMARK    6  A    between atoms: C_13  and  N_14 
REMARK    7  A    between atoms: C_16  and  C_17 
REMARK    8  A    between atoms: C_17  and  C_18 
REMARK    9  A    between atoms: C_18  and  O_19 
ROOT
HETATM    1  C   UNL     1     -42.113  55.655 -55.569  1.00  0.00     0.137 A 
HETATM    2  N   UNL     1     -41.328  54.542 -55.722  1.00  0.00    -0.349 N 
HETATM    3  H   UNL     1     -41.035  54.167 -56.616  1.00  0.00     0.166 HD
HETATM    4  C   UNL     1     -40.997  54.009 -54.503  1.00  0.00     0.045 A 
HETATM    5  C   UNL     1     -41.595  54.806 -53.517  1.00  0.00     0.021 A 
HETATM    6  C   UNL     1     -42.311  55.847 -54.204  1.00  0.00     0.080 A 
HETATM    7  C   UNL     1     -40.216  52.880 -54.221  1.00  0.00     0.032 A 
HETATM    8  C   UNL     1     -40.021  52.538 -52.884  1.00  0.00     0.026 A 
HETATM    9  C   UNL     1     -40.589  53.304 -51.876  1.00  0.00     0.035 A 
HETATM   10 CL   UNL     1     -40.330  52.868 -50.230  1.00  0.00    -0.084 Cl
HETATM   11  C   UNL     1     -41.369  54.429 -52.173  1.00  0.00     0.040 A 
ENDROOT
BRANCH   6  12
HETATM   12  N   UNL     1     -43.100  56.917 -53.778  1.00  0.00    -0.323 N 
HETATM   13  C   UNL     1     -43.857  57.026 -52.635  1.00  0.00     0.248 C 
HETATM   14  O   UNL     1     -43.961  56.207 -51.731  1.00  0.00    -0.271 OA
HETATM   15  H   UNL     1     -43.155  57.663 -54.475  1.00  0.00     0.169 HD
BRANCH  13  16
HETATM   16  C   UNL     1     -44.597  58.368 -52.516  1.00  0.00     0.338 C 
BRANCH  16  17
HETATM   17  N   UNL     1     -44.211  59.238 -51.288  1.00  0.00    -0.059 N 
HETATM   18  H   UNL     1     -43.673  58.644 -50.643  1.00  0.00     0.280 HD
HETATM   19  C   UNL     1     -43.370  60.454 -51.690  1.00  0.00     0.190 C 
HETATM   20  C   UNL     1     -43.043  61.291 -50.446  1.00  0.00     0.033 C 
HETATM   21  C   UNL     1     -44.300  61.725 -49.710  1.00  0.00     0.004 C 
HETATM   22  C   UNL     1     -45.113  60.508 -49.313  1.00  0.00     0.028 C 
HETATM   23  C   UNL     1     -45.469  59.647 -50.516  1.00  0.00     0.236 C 
BRANCH  19  24
HETATM   24  C   UNL     1     -42.087  60.075 -52.452  1.00  0.00     0.059 C 
BRANCH  24  25
HETATM   25  C   UNL     1     -42.079  60.379 -53.945  1.00  0.00     0.166 C 
BRANCH  25  26
HETATM   26  O   UNL     1     -41.364  59.364 -54.627  1.00  0.00    -0.401 OA
HETATM   27  H   UNL     1     -40.430  59.377 -54.359  1.00  0.00     0.209 HD
ENDBRANCH  25  26
ENDBRANCH  24  25
ENDBRANCH  19  24
ENDBRANCH  16  17
ENDBRANCH  13  16
ENDBRANCH   6  12
BRANCH   1  28
HETATM   28  C   UNL     1     -42.628  56.442 -56.665  1.00  0.00     0.312 C 
HETATM   29  O   UNL     1     -42.747  57.662 -56.623  1.00  0.00    -0.258 OA
BRANCH  28  30
HETATM   30  O   UNL     1     -42.953  55.635 -57.707  1.00  0.00    -0.317 OA
BRANCH  30  31
HETATM   31  C   UNL     1     -43.210  56.290 -58.959  1.00  0.00     0.175 C 
HETATM   32  C   UNL     1     -43.992  55.368 -59.876  1.00  0.00     0.034 C 
ENDBRANCH  30  31
ENDBRANCH  28  30
ENDBRANCH   1  28
TORSDOF 9
ENDMDL
MODEL 10
REMARK VINA RESULT:      -6.2      3.012      6.777
REMARK  9 active torsions:
REMARK  status: ('A' for Active; 'I' for Inactive)
REMARK    1  A    between atoms: C_2  and  O_3 
REMARK    2  A    between atoms: O_3  and  C_4 
REMARK    3  A    between atoms: C_4  and  C_5 
REMARK    4  A    between atoms: C_10  and  N_11 
REMARK       I    between atoms: N_11  and  C_12 
REMARK    5  A    between atoms: C_12  and  C_13 
REMARK    6  A    between atoms: C_13  and  N_14 
REMARK    7  A    between atoms: C_16  and  C_17 
REMARK    8  A    between atoms: C_17  and  C_18 
REMARK    9  A    between atoms: C_18  and  O_19 
ROOT
HETATM    1  C   UNL     1     -43.014  55.385 -56.234  1.00  0.00     0.137 A 
HETATM    2  N   UNL     1     -43.209  55.141 -57.569  1.00  0.00    -0.349 N 
HETATM    3  H   UNL     1     -43.527  54.257 -57.949  1.00  0.00     0.166 HD
HETATM    4  C   UNL     1     -42.914  56.253 -58.315  1.00  0.00     0.045 A 
HETATM    5  C   UNL     1     -42.508  57.260 -57.429  1.00  0.00     0.021 A 
HETATM    6  C   UNL     1     -42.566  56.697 -56.107  1.00  0.00     0.080 A 
HETATM    7  C   UNL     1     -42.981  56.420 -59.705  1.00  0.00     0.032 A 
HETATM    8  C   UNL     1     -42.627  57.662 -60.231  1.00  0.00     0.026 A 
HETATM    9  C   UNL     1     -42.225  58.689 -59.389  1.00  0.00     0.035 A 
HETATM   10 CL   UNL     1     -41.799  60.218 -60.057  1.00  0.00    -0.084 Cl
HETATM   11  C   UNL     1     -42.162  58.506 -58.001  1.00  0.00     0.040 A 
ENDROOT
BRANCH   6  12
HETATM   12  N   UNL     1     -42.274  57.192 -54.835  1.00  0.00    -0.323 N 
HETATM   13  C   UNL     1     -41.187  56.925 -54.036  1.00  0.00     0.248 C 
HETATM   14  O   UNL     1     -40.225  56.216 -54.303  1.00  0.00    -0.271 OA
HETATM   15  H   UNL     1     -43.033  57.762 -54.454  1.00  0.00     0.169 HD
BRANCH  13  16
HETATM   16  C   UNL     1     -41.220  57.662 -52.689  1.00  0.00     0.338 C 
BRANCH  16  17
HETATM   17  N   UNL     1     -41.936  56.911 -51.532  1.00  0.00    -0.059 N 
HETATM   18  H   UNL     1     -41.737  57.420 -50.661  1.00  0.00     0.280 HD
HETATM   19  C   UNL     1     -43.451  56.836 -51.750  1.00  0.00     0.190 C 
HETATM   20  C   UNL     1     -44.102  56.061 -50.596  1.00  0.00     0.033 C 
HETATM   21  C   UNL     1     -43.510  54.669 -50.445  1.00  0.00     0.004 C 
HETATM   22  C   UNL     1     -42.013  54.765 -50.222  1.00  0.00     0.028 C 
HETATM   23  C   UNL     1     -41.320  55.521 -51.346  1.00  0.00     0.236 C 
BRANCH  19  24
HETATM   24  C   UNL     1     -44.105  58.220 -51.922  1.00  0.00     0.059 C 
BRANCH  24  25
HETATM   25  C   UNL     1     -44.957  58.408 -53.171  1.00  0.00     0.166 C 
BRANCH  25  26
HETATM   26  O   UNL     1     -45.125  57.159 -53.817  1.00  0.00    -0.401 OA
HETATM   27  H   UNL     1     -44.677  57.169 -54.681  1.00  0.00     0.209 HD
ENDBRANCH  25  26
ENDBRANCH  24  25
ENDBRANCH  19  24
ENDBRANCH  16  17
ENDBRANCH  13  16
ENDBRANCH   6  12
BRANCH   1  28
HETATM   28  C   UNL     1     -43.237  54.413 -55.190  1.00  0.00     0.312 C 
HETATM   29  O   UNL     1     -44.128  54.511 -54.353  1.00  0.00    -0.258 OA
BRANCH  28  30
HETATM   30  O   UNL     1     -42.323  53.411 -55.282  1.00  0.00    -0.317 OA
BRANCH  30  31
HETATM   31  C   UNL     1     -41.647  53.058 -54.065  1.00  0.00     0.175 C 
HETATM   32  C   UNL     1     -40.214  52.659 -54.365  1.00  0.00     0.034 C 
ENDBRANCH  30  31
ENDBRANCH  28  30
ENDBRANCH   1  28
TORSDOF 9
ENDMDL
