MODEL 1
REMARK VINA RESULT:      -8.7      0.000      0.000
REMARK  7 active torsions:
REMARK  status: ('A' for Active; 'I' for Inactive)
REMARK    1  A    between atoms: C_4  and  N_5 
REMARK       I    between atoms: N_5  and  C_6 
REMARK       I    between atoms: C_6  and  N_7 
REMARK    2  A    between atoms: N_7  and  N_8 
REMARK       I    between atoms: N_8  and  C_9 
REMARK    3  A    between atoms: C_9  and  C_10 
REMARK    4  A    between atoms: C_10  and  N_11 
REMARK    5  A    between atoms: C_10  and  C_19 
REMARK       I    between atoms: N_11  and  C_12 
REMARK    6  A    between atoms: C_12  and  C_13 
REMARK    7  A    between atoms: C_19  and  C_20 
ROOT
HETATM    1  C   UNL     1     -43.565  58.520 -51.406  1.00  0.00     0.183 C 
ENDROOT
BRANCH   1   2
HETATM    2  C   UNL     1     -42.424  57.637 -50.866  1.00  0.00     0.259 C 
HETATM    3  N   UNL     1     -42.770  56.351 -50.515  1.00  0.00    -0.264 N 
HETATM    4  H   UNL     1     -43.693  55.950 -50.724  1.00  0.00     0.190 HD
HETATM    5  O   UNL     1     -41.291  58.085 -50.669  1.00  0.00    -0.269 OA
BRANCH   3   6
HETATM    6  N   UNL     1     -41.751  55.451 -50.172  1.00  0.00    -0.249 N 
HETATM    7  C   UNL     1     -41.668  54.270 -50.897  1.00  0.00     0.339 C 
HETATM    8  N   UNL     1     -40.658  53.461 -50.419  1.00  0.00    -0.308 N 
HETATM    9  O   UNL     1     -42.398  54.049 -51.858  1.00  0.00    -0.245 OA
HETATM   10  H   UNL     1     -40.056  53.879 -49.727  1.00  0.00     0.170 HD
HETATM   11  H   UNL     1     -41.474  55.474 -49.195  1.00  0.00     0.192 HD
BRANCH   8  12
HETATM   12  C   UNL     1     -40.284  52.187 -50.893  1.00  0.00     0.036 A 
HETATM   13  C   UNL     1     -40.291  51.031 -50.110  1.00  0.00     0.029 A 
HETATM   14  C   UNL     1     -39.909  49.801 -50.658  1.00  0.00     0.002 A 
HETATM   15  C   UNL     1     -39.513  49.718 -51.989  1.00  0.00     0.000 A 
HETATM   16  C   UNL     1     -39.496  50.865 -52.777  1.00  0.00     0.002 A 
HETATM   17  C   UNL     1     -39.877  52.094 -52.231  1.00  0.00     0.029 A 
ENDBRANCH   8  12
ENDBRANCH   3   6
ENDBRANCH   1   2
BRANCH   1  18
HETATM   18  N   UNL     1     -43.800  59.711 -50.581  1.00  0.00    -0.343 N 
HETATM   19  C   UNL     1     -44.939  59.949 -49.848  1.00  0.00     0.259 C 
HETATM   20  O   UNL     1     -45.918  59.213 -49.954  1.00  0.00    -0.267 OA
HETATM   21  H   UNL     1     -42.994  60.286 -50.363  1.00  0.00     0.163 HD
BRANCH  19  22
HETATM   22  C   UNL     1     -44.922  61.124 -48.989  1.00  0.00     0.072 A 
HETATM   23  S   UNL     1     -44.382  62.657 -49.537  1.00  0.00    -0.097 SA
HETATM   24  C   UNL     1     -44.707  63.389 -48.025  1.00  0.00     0.050 A 
HETATM   25  C   UNL     1     -45.208  62.489 -47.113  1.00  0.00     0.009 A 
HETATM   26  C   UNL     1     -45.326  61.183 -47.667  1.00  0.00     0.025 A 
ENDBRANCH  19  22
ENDBRANCH   1  18
BRANCH   1  27
HETATM   27  C   UNL     1     -43.359  58.792 -52.906  1.00  0.00     0.076 C 
BRANCH  27  28
HETATM   28  C   UNL     1     -43.544  57.577 -53.765  1.00  0.00    -0.028 A 
HETATM   29  C   UNL     1     -42.542  56.638 -54.172  1.00  0.00    -0.002 A 
HETATM   30  C   UNL     1     -43.171  55.669 -54.954  1.00  0.00     0.042 A 
HETATM   31  C   UNL     1     -41.154  56.520 -53.947  1.00  0.00     0.014 A 
HETATM   32  C   UNL     1     -42.487  54.584 -55.517  1.00  0.00     0.030 A 
HETATM   33  N   UNL     1     -44.500  56.010 -55.032  1.00  0.00    -0.365 N 
HETATM   34  C   UNL     1     -41.114  54.487 -55.272  1.00  0.00     0.002 A 
HETATM   35  C   UNL     1     -40.455  55.440 -54.500  1.00  0.00     0.001 A 
HETATM   36  H   UNL     1     -45.197  55.490 -55.546  1.00  0.00     0.165 HD
HETATM   37  C   UNL     1     -44.736  57.154 -54.320  1.00  0.00     0.096 A 
ENDBRANCH  27  28
ENDBRANCH   1  27
TORSDOF 7
ENDMDL
MODEL 2
REMARK VINA RESULT:      -8.5      2.642      8.317
REMARK  7 active torsions:
REMARK  status: ('A' for Active; 'I' for Inactive)
REMARK    1  A    between atoms: C_4  and  N_5 
REMARK       I    between atoms: N_5  and  C_6 
REMARK       I    between atoms: C_6  and  N_7 
REMARK    2  A    between atoms: N_7  and  N_8 
REMARK       I    between atoms: N_8  and  C_9 
REMARK    3  A    between atoms: C_9  and  C_10 
REMARK    4  A    between atoms: C_10  and  N_11 
REMARK    5  A    between atoms: C_10  and  C_19 
REMARK       I    between atoms: N_11  and  C_12 
REMARK    6  A    between atoms: C_12  and  C_13 
REMARK    7  A    between atoms: C_19  and  C_20 
ROOT
HETATM    1  C   UNL     1     -42.414  54.893 -53.412  1.00  0.00     0.183 C 
ENDROOT
BRANCH   1   2
HETATM    2  C   UNL     1     -42.871  55.886 -52.326  1.00  0.00     0.259 C 
HETATM    3  N   UNL     1     -44.167  56.339 -52.429  1.00  0.00    -0.264 N 
HETATM    4  H   UNL     1     -44.840  55.945 -53.099  1.00  0.00     0.190 HD
HETATM    5  O   UNL     1     -42.094  56.321 -51.472  1.00  0.00    -0.269 OA
BRANCH   3   6
HETATM    6  N   UNL     1     -44.694  57.114 -51.386  1.00  0.00    -0.249 N 
HETATM    7  C   UNL     1     -44.593  58.494 -51.497  1.00  0.00     0.339 C 
HETATM    8  N   UNL     1     -45.103  59.124 -50.381  1.00  0.00    -0.308 N 
HETATM    9  O   UNL     1     -44.138  59.030 -52.502  1.00  0.00    -0.245 OA
HETATM   10  H   UNL     1     -45.585  58.527 -49.727  1.00  0.00     0.170 HD
HETATM   11  H   UNL     1     -44.672  56.669 -50.473  1.00  0.00     0.192 HD
BRANCH   8  12
HETATM   12  C   UNL     1     -45.162  60.510 -50.131  1.00  0.00     0.036 A 
HETATM   13  C   UNL     1     -44.222  61.205 -49.368  1.00  0.00     0.029 A 
HETATM   14  C   UNL     1     -44.349  62.584 -49.169  1.00  0.00     0.002 A 
HETATM   15  C   UNL     1     -45.417  63.278 -49.728  1.00  0.00     0.000 A 
HETATM   16  C   UNL     1     -46.364  62.595 -50.486  1.00  0.00     0.002 A 
HETATM   17  C   UNL     1     -46.238  61.217 -50.684  1.00  0.00     0.029 A 
ENDBRANCH   8  12
ENDBRANCH   3   6
ENDBRANCH   1   2
BRANCH   1  18
HETATM   18  N   UNL     1     -42.949  55.218 -54.740  1.00  0.00    -0.343 N 
HETATM   19  C   UNL     1     -42.717  56.393 -55.415  1.00  0.00     0.259 C 
HETATM   20  O   UNL     1     -42.139  57.329 -54.866  1.00  0.00    -0.267 OA
HETATM   21  H   UNL     1     -43.326  54.451 -55.284  1.00  0.00     0.163 HD
BRANCH  19  22
HETATM   22  C   UNL     1     -43.225  56.468 -56.777  1.00  0.00     0.072 A 
HETATM   23  S   UNL     1     -44.149  57.797 -57.344  1.00  0.00    -0.097 SA
HETATM   24  C   UNL     1     -44.283  57.126 -58.911  1.00  0.00     0.050 A 
HETATM   25  C   UNL     1     -43.647  55.909 -59.007  1.00  0.00     0.009 A 
HETATM   26  C   UNL     1     -43.042  55.528 -57.776  1.00  0.00     0.025 A 
ENDBRANCH  19  22
ENDBRANCH   1  18
BRANCH   1  27
HETATM   27  C   UNL     1     -40.889  54.702 -53.348  1.00  0.00     0.076 C 
BRANCH  27  28
HETATM   28  C   UNL     1     -40.469  53.504 -52.550  1.00  0.00    -0.028 A 
HETATM   29  C   UNL     1     -40.211  52.181 -53.035  1.00  0.00    -0.002 A 
HETATM   30  C   UNL     1     -39.841  51.400 -51.940  1.00  0.00     0.042 A 
HETATM   31  C   UNL     1     -40.257  51.573 -54.306  1.00  0.00     0.014 A 
HETATM   32  C   UNL     1     -39.507  50.045 -52.050  1.00  0.00     0.030 A 
HETATM   33  N   UNL     1     -39.885  52.210 -50.830  1.00  0.00    -0.365 N 
HETATM   34  C   UNL     1     -39.553  49.469 -53.323  1.00  0.00     0.002 A 
HETATM   35  C   UNL     1     -39.923  50.219 -54.436  1.00  0.00     0.001 A 
HETATM   36  H   UNL     1     -39.673  51.907 -49.889  1.00  0.00     0.165 HD
HETATM   37  C   UNL     1     -40.259  53.477 -51.185  1.00  0.00     0.096 A 
ENDBRANCH  27  28
ENDBRANCH   1  27
TORSDOF 7
ENDMDL
MODEL 3
REMARK VINA RESULT:      -8.4      3.541      4.772
REMARK  7 active torsions:
REMARK  status: ('A' for Active; 'I' for Inactive)
REMARK    1  A    between atoms: C_4  and  N_5 
REMARK       I    between atoms: N_5  and  C_6 
REMARK       I    between atoms: C_6  and  N_7 
REMARK    2  A    between atoms: N_7  and  N_8 
REMARK       I    between atoms: N_8  and  C_9 
REMARK    3  A    between atoms: C_9  and  C_10 
REMARK    4  A    between atoms: C_10  and  N_11 
REMARK    5  A    between atoms: C_10  and  C_19 
REMARK       I    between atoms: N_11  and  C_12 
REMARK    6  A    between atoms: C_12  and  C_13 
REMARK    7  A    between atoms: C_19  and  C_20 
ROOT
HETATM    1  C   UNL     1     -43.420  57.386 -55.676  1.00  0.00     0.183 C 
ENDROOT
BRANCH   1   2
HETATM    2  C   UNL     1     -42.645  56.073 -55.898  1.00  0.00     0.259 C 
HETATM    3  N   UNL     1     -41.366  56.032 -55.390  1.00  0.00    -0.264 N 
HETATM    4  H   UNL     1     -40.989  56.770 -54.780  1.00  0.00     0.190 HD
HETATM    5  O   UNL     1     -43.108  55.149 -56.573  1.00  0.00    -0.269 OA
BRANCH   3   6
HETATM    6  N   UNL     1     -40.670  54.815 -55.414  1.00  0.00    -0.249 N 
HETATM    7  C   UNL     1     -40.772  53.995 -54.299  1.00  0.00     0.339 C 
HETATM    8  N   UNL     1     -39.998  52.862 -54.441  1.00  0.00    -0.308 N 
HETATM    9  O   UNL     1     -41.506  54.273 -53.358  1.00  0.00    -0.245 OA
HETATM   10  H   UNL     1     -39.590  52.725 -55.352  1.00  0.00     0.170 HD
HETATM   11  H   UNL     1     -39.820  54.823 -55.970  1.00  0.00     0.192 HD
BRANCH   8  12
HETATM   12  C   UNL     1     -39.841  51.810 -53.515  1.00  0.00     0.036 A 
HETATM   13  C   UNL     1     -39.695  51.998 -52.139  1.00  0.00     0.029 A 
HETATM   14  C   UNL     1     -39.548  50.900 -51.285  1.00  0.00     0.002 A 
HETATM   15  C   UNL     1     -39.543  49.607 -51.799  1.00  0.00     0.000 A 
HETATM   16  C   UNL     1     -39.682  49.407 -53.170  1.00  0.00     0.002 A 
HETATM   17  C   UNL     1     -39.827  50.504 -54.024  1.00  0.00     0.029 A 
ENDBRANCH   8  12
ENDBRANCH   3   6
ENDBRANCH   1   2
BRANCH   1  18
HETATM   18  N   UNL     1     -42.926  58.147 -54.522  1.00  0.00    -0.343 N 
HETATM   19  C   UNL     1     -43.348  57.974 -53.226  1.00  0.00     0.259 C 
HETATM   20  O   UNL     1     -44.298  57.237 -52.968  1.00  0.00    -0.267 OA
HETATM   21  H   UNL     1     -42.071  58.676 -54.652  1.00  0.00     0.163 HD
BRANCH  19  22
HETATM   22  C   UNL     1     -42.639  58.734 -52.207  1.00  0.00     0.072 A 
HETATM   23  S   UNL     1     -41.038  58.353 -51.721  1.00  0.00    -0.097 SA
HETATM   24  C   UNL     1     -40.990  59.654 -50.612  1.00  0.00     0.050 A 
HETATM   25  C   UNL     1     -42.169  60.364 -50.599  1.00  0.00     0.009 A 
HETATM   26  C   UNL     1     -43.120  59.830 -51.514  1.00  0.00     0.025 A 
ENDBRANCH  19  22
ENDBRANCH   1  18
BRANCH   1  27
HETATM   27  C   UNL     1     -43.511  58.176 -56.992  1.00  0.00     0.076 C 
BRANCH  27  28
HETATM   28  C   UNL     1     -44.807  57.978 -57.720  1.00  0.00    -0.028 A 
HETATM   29  C   UNL     1     -45.047  57.145 -58.860  1.00  0.00    -0.002 A 
HETATM   30  C   UNL     1     -46.398  57.266 -59.189  1.00  0.00     0.042 A 
HETATM   31  C   UNL     1     -44.241  56.295 -59.646  1.00  0.00     0.014 A 
HETATM   32  C   UNL     1     -46.985  56.578 -60.257  1.00  0.00     0.030 A 
HETATM   33  N   UNL     1     -46.956  58.148 -58.294  1.00  0.00    -0.365 N 
HETATM   34  C   UNL     1     -46.165  55.737 -61.015  1.00  0.00     0.002 A 
HETATM   35  C   UNL     1     -44.812  55.597 -60.717  1.00  0.00     0.001 A 
HETATM   36  H   UNL     1     -47.925  58.434 -58.298  1.00  0.00     0.165 HD
HETATM   37  C   UNL     1     -46.010  58.580 -57.405  1.00  0.00     0.096 A 
ENDBRANCH  27  28
ENDBRANCH   1  27
TORSDOF 7
ENDMDL
MODEL 4
REMARK VINA RESULT:      -8.3      3.590      4.804
REMARK  7 active torsions:
REMARK  status: ('A' for Active; 'I' for Inactive)
REMARK    1  A    between atoms: C_4  and  N_5 
REMARK       I    between atoms: N_5  and  C_6 
REMARK       I    between atoms: C_6  and  N_7 
REMARK    2  A    between atoms: N_7  and  N_8 
REMARK       I    between atoms: N_8  and  C_9 
REMARK    3  A    between atoms: C_9  and  C_10 
REMARK    4  A    between atoms: C_10  and  N_11 
REMARK    5  A    between atoms: C_10  and  C_19 
REMARK       I    between atoms: N_11  and  C_12 
REMARK    6  A    between atoms: C_12  and  C_13 
REMARK    7  A    between atoms: C_19  and  C_20 
ROOT
HETATM    1  C   UNL     1     -42.980  57.441 -56.209  1.00  0.00     0.183 C 
ENDROOT
BRANCH   1   2
HETATM    2  C   UNL     1     -41.937  56.572 -55.481  1.00  0.00     0.259 C 
HETATM    3  N   UNL     1     -41.677  55.342 -56.042  1.00  0.00    -0.264 N 
HETATM    4  H   UNL     1     -42.044  55.064 -56.962  1.00  0.00     0.190 HD
HETATM    5  O   UNL     1     -41.435  56.918 -54.407  1.00  0.00    -0.269 OA
BRANCH   3   6
HETATM    6  N   UNL     1     -40.625  54.574 -55.524  1.00  0.00    -0.249 N 
HETATM    7  C   UNL     1     -40.952  53.528 -54.672  1.00  0.00     0.339 C 
HETATM    8  N   UNL     1     -39.822  52.895 -54.200  1.00  0.00    -0.308 N 
HETATM    9  O   UNL     1     -42.118  53.224 -54.441  1.00  0.00    -0.245 OA
HETATM   10  H   UNL     1     -38.954  53.179 -54.627  1.00  0.00     0.170 HD
HETATM   11  H   UNL     1     -39.749  55.076 -55.407  1.00  0.00     0.192 HD
BRANCH   8  12
HETATM   12  C   UNL     1     -39.758  51.803 -53.311  1.00  0.00     0.036 A 
HETATM   13  C   UNL     1     -39.651  50.472 -53.717  1.00  0.00     0.029 A 
HETATM   14  C   UNL     1     -39.589  49.443 -52.771  1.00  0.00     0.002 A 
HETATM   15  C   UNL     1     -39.636  49.737 -51.412  1.00  0.00     0.000 A 
HETATM   16  C   UNL     1     -39.750  51.060 -50.994  1.00  0.00     0.002 A 
HETATM   17  C   UNL     1     -39.813  52.088 -51.940  1.00  0.00     0.029 A 
ENDBRANCH   8  12
ENDBRANCH   3   6
ENDBRANCH   1   2
BRANCH   1  18
HETATM   18  N   UNL     1     -43.604  58.436 -55.328  1.00  0.00    -0.343 N 
HETATM   19  C   UNL     1     -44.689  58.199 -54.519  1.00  0.00     0.259 C 
HETATM   20  O   UNL     1     -45.307  57.139 -54.591  1.00  0.00    -0.267 OA
HETATM   21  H   UNL     1     -43.074  59.279 -55.139  1.00  0.00     0.163 HD
BRANCH  19  22
HETATM   22  C   UNL     1     -45.074  59.278 -53.621  1.00  0.00     0.072 A 
HETATM   23  S   UNL     1     -45.039  59.112 -51.914  1.00  0.00    -0.097 SA
HETATM   24  C   UNL     1     -45.567  60.721 -51.676  1.00  0.00     0.050 A 
HETATM   25  C   UNL     1     -45.777  61.377 -52.868  1.00  0.00     0.009 A 
HETATM   26  C   UNL     1     -45.498  60.543 -53.988  1.00  0.00     0.025 A 
ENDBRANCH  19  22
ENDBRANCH   1  18
BRANCH   1  27
HETATM   27  C   UNL     1     -42.385  58.001 -57.512  1.00  0.00     0.076 C 
BRANCH  27  28
HETATM   28  C   UNL     1     -43.269  57.798 -58.708  1.00  0.00    -0.028 A 
HETATM   29  C   UNL     1     -43.798  56.562 -59.200  1.00  0.00    -0.002 A 
HETATM   30  C   UNL     1     -44.570  56.857 -60.324  1.00  0.00     0.042 A 
HETATM   31  C   UNL     1     -43.695  55.215 -58.793  1.00  0.00     0.014 A 
HETATM   32  C   UNL     1     -45.250  55.877 -61.058  1.00  0.00     0.030 A 
HETATM   33  N   UNL     1     -44.503  58.216 -60.517  1.00  0.00    -0.365 N 
HETATM   34  C   UNL     1     -45.136  54.552 -60.629  1.00  0.00     0.002 A 
HETATM   35  C   UNL     1     -44.369  54.223 -59.514  1.00  0.00     0.001 A 
HETATM   36  H   UNL     1     -44.961  58.712 -61.269  1.00  0.00     0.165 HD
HETATM   37  C   UNL     1     -43.725  58.792 -59.551  1.00  0.00     0.096 A 
ENDBRANCH  27  28
ENDBRANCH   1  27
TORSDOF 7
ENDMDL
MODEL 5
REMARK VINA RESULT:      -8.1      2.787      5.981
REMARK  7 active torsions:
REMARK  status: ('A' for Active; 'I' for Inactive)
REMARK    1  A    between atoms: C_4  and  N_5 
REMARK       I    between atoms: N_5  and  C_6 
REMARK       I    between atoms: C_6  and  N_7 
REMARK    2  A    between atoms: N_7  and  N_8 
REMARK       I    between atoms: N_8  and  C_9 
REMARK    3  A    between atoms: C_9  and  C_10 
REMARK    4  A    between atoms: C_10  and  N_11 
REMARK    5  A    between atoms: C_10  and  C_19 
REMARK       I    between atoms: N_11  and  C_12 
REMARK    6  A    between atoms: C_12  and  C_13 
REMARK    7  A    between atoms: C_19  and  C_20 
ROOT
HETATM    1  C   UNL     1     -41.494  57.421 -51.409  1.00  0.00     0.183 C 
ENDROOT
BRANCH   1   2
HETATM    2  C   UNL     1     -41.143  57.578 -52.901  1.00  0.00     0.259 C 
HETATM    3  N   UNL     1     -41.870  56.805 -53.777  1.00  0.00    -0.264 N 
HETATM    4  H   UNL     1     -42.690  56.258 -53.484  1.00  0.00     0.190 HD
HETATM    5  O   UNL     1     -40.203  58.283 -53.278  1.00  0.00    -0.269 OA
BRANCH   3   6
HETATM    6  N   UNL     1     -41.713  57.019 -55.154  1.00  0.00    -0.249 N 
HETATM    7  C   UNL     1     -42.724  56.571 -55.993  1.00  0.00     0.339 C 
HETATM    8  N   UNL     1     -42.413  56.802 -57.317  1.00  0.00    -0.308 N 
HETATM    9  O   UNL     1     -43.758  56.081 -55.553  1.00  0.00    -0.245 OA
HETATM   10  H   UNL     1     -41.592  57.364 -57.480  1.00  0.00     0.170 HD
HETATM   11  H   UNL     1     -40.749  57.036 -55.475  1.00  0.00     0.192 HD
BRANCH   8  12
HETATM   12  C   UNL     1     -43.188  56.475 -58.449  1.00  0.00     0.036 A 
HETATM   13  C   UNL     1     -43.508  55.169 -58.823  1.00  0.00     0.029 A 
HETATM   14  C   UNL     1     -44.287  54.928 -59.960  1.00  0.00     0.002 A 
HETATM   15  C   UNL     1     -44.750  55.989 -60.732  1.00  0.00     0.000 A 
HETATM   16  C   UNL     1     -44.431  57.296 -60.372  1.00  0.00     0.002 A 
HETATM   17  C   UNL     1     -43.652  57.537 -59.237  1.00  0.00     0.029 A 
ENDBRANCH   8  12
ENDBRANCH   3   6
ENDBRANCH   1   2
BRANCH   1  18
HETATM   18  N   UNL     1     -42.162  58.606 -50.856  1.00  0.00    -0.343 N 
HETATM   19  C   UNL     1     -43.302  59.178 -51.368  1.00  0.00     0.259 C 
HETATM   20  O   UNL     1     -43.769  58.797 -52.439  1.00  0.00    -0.267 OA
HETATM   21  H   UNL     1     -41.897  58.888 -49.919  1.00  0.00     0.163 HD
BRANCH  19  22
HETATM   22  C   UNL     1     -43.883  60.266 -50.595  1.00  0.00     0.072 A 
HETATM   23  S   UNL     1     -45.512  60.248 -50.059  1.00  0.00    -0.097 SA
HETATM   24  C   UNL     1     -45.346  61.760 -49.278  1.00  0.00     0.050 A 
HETATM   25  C   UNL     1     -44.081  62.280 -49.425  1.00  0.00     0.009 A 
HETATM   26  C   UNL     1     -43.240  61.422 -50.189  1.00  0.00     0.025 A 
ENDBRANCH  19  22
ENDBRANCH   1  18
BRANCH   1  27
HETATM   27  C   UNL     1     -42.225  56.089 -51.174  1.00  0.00     0.076 C 
BRANCH  27  28
HETATM   28  C   UNL     1     -41.300  54.937 -50.912  1.00  0.00    -0.028 A 
HETATM   29  C   UNL     1     -40.914  53.905 -51.826  1.00  0.00    -0.002 A 
HETATM   30  C   UNL     1     -40.035  53.057 -51.151  1.00  0.00     0.042 A 
HETATM   31  C   UNL     1     -41.229  53.610 -53.169  1.00  0.00     0.014 A 
HETATM   32  C   UNL     1     -39.450  51.936 -51.750  1.00  0.00     0.030 A 
HETATM   33  N   UNL     1     -39.902  53.546 -49.873  1.00  0.00    -0.365 N 
HETATM   34  C   UNL     1     -39.773  51.671 -53.084  1.00  0.00     0.002 A 
HETATM   35  C   UNL     1     -40.651  52.494 -53.785  1.00  0.00     0.001 A 
HETATM   36  H   UNL     1     -39.330  53.124 -49.154  1.00  0.00     0.165 HD
HETATM   37  C   UNL     1     -40.655  54.676 -49.719  1.00  0.00     0.096 A 
ENDBRANCH  27  28
ENDBRANCH   1  27
TORSDOF 7
ENDMDL
MODEL 6
REMARK VINA RESULT:      -8.1      3.576      7.335
REMARK  7 active torsions:
REMARK  status: ('A' for Active; 'I' for Inactive)
REMARK    1  A    between atoms: C_4  and  N_5 
REMARK       I    between atoms: N_5  and  C_6 
REMARK       I    between atoms: C_6  and  N_7 
REMARK    2  A    between atoms: N_7  and  N_8 
REMARK       I    between atoms: N_8  and  C_9 
REMARK    3  A    between atoms: C_9  and  C_10 
REMARK    4  A    between atoms: C_10  and  N_11 
REMARK    5  A    between atoms: C_10  and  C_19 
REMARK       I    between atoms: N_11  and  C_12 
REMARK    6  A    between atoms: C_12  and  C_13 
REMARK    7  A    between atoms: C_19  and  C_20 
ROOT
HETATM    1  C   UNL     1     -42.479  56.259 -53.073  1.00  0.00     0.183 C 
ENDROOT
BRANCH   1   2
HETATM    2  C   UNL     1     -43.018  55.982 -54.489  1.00  0.00     0.259 C 
HETATM    3  N   UNL     1     -42.694  56.911 -55.452  1.00  0.00    -0.264 N 
HETATM    4  H   UNL     1     -42.022  57.672 -55.283  1.00  0.00     0.190 HD
HETATM    5  O   UNL     1     -43.774  55.035 -54.725  1.00  0.00    -0.269 OA
BRANCH   3   6
HETATM    6  N   UNL     1     -43.014  56.636 -56.789  1.00  0.00    -0.249 N 
HETATM    7  C   UNL     1     -44.159  57.223 -57.309  1.00  0.00     0.339 C 
HETATM    8  N   UNL     1     -44.377  56.825 -58.611  1.00  0.00    -0.308 N 
HETATM    9  O   UNL     1     -44.827  58.021 -56.660  1.00  0.00    -0.245 OA
HETATM   10  H   UNL     1     -43.633  56.293 -59.034  1.00  0.00     0.170 HD
HETATM   11  H   UNL     1     -42.708  55.726 -57.120  1.00  0.00     0.192 HD
BRANCH   8  12
HETATM   12  C   UNL     1     -45.440  57.203 -59.456  1.00  0.00     0.036 A 
HETATM   13  C   UNL     1     -45.724  58.524 -59.809  1.00  0.00     0.029 A 
HETATM   14  C   UNL     1     -46.796  58.816 -60.659  1.00  0.00     0.002 A 
HETATM   15  C   UNL     1     -47.594  57.793 -61.160  1.00  0.00     0.000 A 
HETATM   16  C   UNL     1     -47.325  56.472 -60.810  1.00  0.00     0.002 A 
HETATM   17  C   UNL     1     -46.254  56.180 -59.960  1.00  0.00     0.029 A 
ENDBRANCH   8  12
ENDBRANCH   3   6
ENDBRANCH   1   2
BRANCH   1  18
HETATM   18  N   UNL     1     -42.773  57.620 -52.610  1.00  0.00    -0.343 N 
HETATM   19  C   UNL     1     -41.891  58.429 -51.933  1.00  0.00     0.259 C 
HETATM   20  O   UNL     1     -40.811  57.990 -51.541  1.00  0.00    -0.267 OA
HETATM   21  H   UNL     1     -43.591  58.073 -53.002  1.00  0.00     0.163 HD
BRANCH  19  22
HETATM   22  C   UNL     1     -42.328  59.794 -51.680  1.00  0.00     0.072 A 
HETATM   23  S   UNL     1     -42.902  60.823 -52.927  1.00  0.00    -0.097 SA
HETATM   24  C   UNL     1     -43.196  62.103 -51.832  1.00  0.00     0.050 A 
HETATM   25  C   UNL     1     -42.857  61.766 -50.541  1.00  0.00     0.009 A 
HETATM   26  C   UNL     1     -42.352  60.437 -50.455  1.00  0.00     0.025 A 
ENDBRANCH  19  22
ENDBRANCH   1  18
BRANCH   1  27
HETATM   27  C   UNL     1     -42.906  55.135 -52.114  1.00  0.00     0.076 C 
BRANCH  27  28
HETATM   28  C   UNL     1     -41.773  54.249 -51.688  1.00  0.00    -0.028 A 
HETATM   29  C   UNL     1     -41.092  53.267 -52.477  1.00  0.00    -0.002 A 
HETATM   30  C   UNL     1     -40.105  52.696 -51.672  1.00  0.00     0.042 A 
HETATM   31  C   UNL     1     -41.220  52.808 -53.805  1.00  0.00     0.014 A 
HETATM   32  C   UNL     1     -39.237  51.697 -52.126  1.00  0.00     0.030 A 
HETATM   33  N   UNL     1     -40.191  53.296 -50.438  1.00  0.00    -0.365 N 
HETATM   34  C   UNL     1     -39.381  51.266 -53.448  1.00  0.00     0.002 A 
HETATM   35  C   UNL     1     -40.358  51.811 -54.277  1.00  0.00     0.001 A 
HETATM   36  H   UNL     1     -39.602  53.072 -49.648  1.00  0.00     0.165 HD
HETATM   37  C   UNL     1     -41.188  54.232 -50.437  1.00  0.00     0.096 A 
ENDBRANCH  27  28
ENDBRANCH   1  27
TORSDOF 7
ENDMDL
MODEL 7
REMARK VINA RESULT:      -8.1      3.562      7.194
REMARK  7 active torsions:
REMARK  status: ('A' for Active; 'I' for Inactive)
REMARK    1  A    between atoms: C_4  and  N_5 
REMARK       I    between atoms: N_5  and  C_6 
REMARK       I    between atoms: C_6  and  N_7 
REMARK    2  A    between atoms: N_7  and  N_8 
REMARK       I    between atoms: N_8  and  C_9 
REMARK    3  A    between atoms: C_9  and  C_10 
REMARK    4  A    between atoms: C_10  and  N_11 
REMARK    5  A    between atoms: C_10  and  C_19 
REMARK       I    between atoms: N_11  and  C_12 
REMARK    6  A    between atoms: C_12  and  C_13 
REMARK    7  A    between atoms: C_19  and  C_20 
ROOT
HETATM    1  C   UNL     1     -41.421  56.170 -52.616  1.00  0.00     0.183 C 
ENDROOT
BRANCH   1   2
HETATM    2  C   UNL     1     -41.219  56.016 -54.135  1.00  0.00     0.259 C 
HETATM    3  N   UNL     1     -42.365  55.882 -54.887  1.00  0.00    -0.264 N 
HETATM    4  H   UNL     1     -43.305  56.014 -54.491  1.00  0.00     0.190 HD
HETATM    5  O   UNL     1     -40.095  55.922 -54.637  1.00  0.00    -0.269 OA
BRANCH   3   6
HETATM    6  N   UNL     1     -42.259  55.903 -56.285  1.00  0.00    -0.249 N 
HETATM    7  C   UNL     1     -42.588  57.083 -56.936  1.00  0.00     0.339 C 
HETATM    8  N   UNL     1     -42.488  56.943 -58.305  1.00  0.00    -0.308 N 
HETATM    9  O   UNL     1     -42.880  58.102 -56.319  1.00  0.00    -0.245 OA
HETATM   10  H   UNL     1     -42.075  56.081 -58.625  1.00  0.00     0.170 HD
HETATM   11  H   UNL     1     -42.416  55.006 -56.736  1.00  0.00     0.192 HD
BRANCH   8  12
HETATM   12  C   UNL     1     -42.752  57.918 -59.288  1.00  0.00     0.036 A 
HETATM   13  C   UNL     1     -41.762  58.658 -59.938  1.00  0.00     0.029 A 
HETATM   14  C   UNL     1     -42.106  59.606 -60.907  1.00  0.00     0.002 A 
HETATM   15  C   UNL     1     -43.441  59.825 -61.233  1.00  0.00     0.000 A 
HETATM   16  C   UNL     1     -44.438  59.098 -60.587  1.00  0.00     0.002 A 
HETATM   17  C   UNL     1     -44.094  58.151 -59.617  1.00  0.00     0.029 A 
ENDBRANCH   8  12
ENDBRANCH   3   6
ENDBRANCH   1   2
BRANCH   1  18
HETATM   18  N   UNL     1     -41.938  57.492 -52.243  1.00  0.00    -0.343 N 
HETATM   19  C   UNL     1     -41.212  58.659 -52.279  1.00  0.00     0.259 C 
HETATM   20  O   UNL     1     -40.003  58.640 -52.504  1.00  0.00    -0.267 OA
HETATM   21  H   UNL     1     -42.944  57.588 -52.166  1.00  0.00     0.163 HD
BRANCH  19  22
HETATM   22  C   UNL     1     -41.944  59.886 -52.001  1.00  0.00     0.072 A 
HETATM   23  S   UNL     1     -42.733  60.787 -53.228  1.00  0.00    -0.097 SA
HETATM   24  C   UNL     1     -43.308  61.944 -52.108  1.00  0.00     0.050 A 
HETATM   25  C   UNL     1     -42.905  61.662 -50.822  1.00  0.00     0.009 A 
HETATM   26  C   UNL     1     -42.114  60.479 -50.762  1.00  0.00     0.025 A 
ENDBRANCH  19  22
ENDBRANCH   1  18
BRANCH   1  27
HETATM   27  C   UNL     1     -42.219  54.976 -52.064  1.00  0.00     0.076 C 
BRANCH  27  28
HETATM   28  C   UNL     1     -41.357  53.819 -51.654  1.00  0.00    -0.028 A 
HETATM   29  C   UNL     1     -40.803  52.803 -52.499  1.00  0.00    -0.002 A 
HETATM   30  C   UNL     1     -40.065  51.942 -51.687  1.00  0.00     0.042 A 
HETATM   31  C   UNL     1     -40.859  52.536 -53.883  1.00  0.00     0.014 A 
HETATM   32  C   UNL     1     -39.374  50.831 -52.187  1.00  0.00     0.030 A 
HETATM   33  N   UNL     1     -40.175  52.405 -50.398  1.00  0.00    -0.365 N 
HETATM   34  C   UNL     1     -39.441  50.593 -53.562  1.00  0.00     0.002 A 
HETATM   35  C   UNL     1     -40.172  51.430 -54.400  1.00  0.00     0.001 A 
HETATM   36  H   UNL     1     -39.748  51.969 -49.592  1.00  0.00     0.165 HD
HETATM   37  C   UNL     1     -40.948  53.534 -50.366  1.00  0.00     0.096 A 
ENDBRANCH  27  28
ENDBRANCH   1  27
TORSDOF 7
ENDMDL
MODEL 8
REMARK VINA RESULT:      -8.1      4.011      8.060
REMARK  7 active torsions:
REMARK  status: ('A' for Active; 'I' for Inactive)
REMARK    1  A    between atoms: C_4  and  N_5 
REMARK       I    between atoms: N_5  and  C_6 
REMARK       I    between atoms: C_6  and  N_7 
REMARK    2  A    between atoms: N_7  and  N_8 
REMARK       I    between atoms: N_8  and  C_9 
REMARK    3  A    between atoms: C_9  and  C_10 
REMARK    4  A    between atoms: C_10  and  N_11 
REMARK    5  A    between atoms: C_10  and  C_19 
REMARK       I    between atoms: N_11  and  C_12 
REMARK    6  A    between atoms: C_12  and  C_13 
REMARK    7  A    between atoms: C_19  and  C_20 
ROOT
HETATM    1  C   UNL     1     -41.447  56.314 -54.969  1.00  0.00     0.183 C 
ENDROOT
BRANCH   1   2
HETATM    2  C   UNL     1     -42.955  56.337 -55.282  1.00  0.00     0.259 C 
HETATM    3  N   UNL     1     -43.404  57.412 -56.014  1.00  0.00    -0.264 N 
HETATM    4  H   UNL     1     -42.765  58.091 -56.449  1.00  0.00     0.190 HD
HETATM    5  O   UNL     1     -43.729  55.492 -54.822  1.00  0.00    -0.269 OA
BRANCH   3   6
HETATM    6  N   UNL     1     -44.730  57.410 -56.470  1.00  0.00    -0.249 N 
HETATM    7  C   UNL     1     -44.937  57.448 -57.842  1.00  0.00     0.339 C 
HETATM    8  N   UNL     1     -46.282  57.493 -58.143  1.00  0.00    -0.308 N 
HETATM    9  O   UNL     1     -44.004  57.400 -58.638  1.00  0.00    -0.245 OA
HETATM   10  H   UNL     1     -46.907  57.360 -57.364  1.00  0.00     0.170 HD
HETATM   11  H   UNL     1     -45.398  57.842 -55.838  1.00  0.00     0.192 HD
BRANCH   8  12
HETATM   12  C   UNL     1     -46.873  57.550 -59.422  1.00  0.00     0.036 A 
HETATM   13  C   UNL     1     -47.126  56.429 -60.214  1.00  0.00     0.029 A 
HETATM   14  C   UNL     1     -47.721  56.569 -61.473  1.00  0.00     0.002 A 
HETATM   15  C   UNL     1     -48.065  57.830 -61.951  1.00  0.00     0.000 A 
HETATM   16  C   UNL     1     -47.811  58.956 -61.172  1.00  0.00     0.002 A 
HETATM   17  C   UNL     1     -47.216  58.816 -59.915  1.00  0.00     0.029 A 
ENDBRANCH   8  12
ENDBRANCH   3   6
ENDBRANCH   1   2
BRANCH   1  18
HETATM   18  N   UNL     1     -41.112  57.040 -53.738  1.00  0.00    -0.343 N 
HETATM   19  C   UNL     1     -41.077  58.409 -53.617  1.00  0.00     0.259 C 
HETATM   20  O   UNL     1     -41.196  59.130 -54.605  1.00  0.00    -0.267 OA
HETATM   21  H   UNL     1     -41.122  56.510 -52.874  1.00  0.00     0.163 HD
BRANCH  19  22
HETATM   22  C   UNL     1     -40.854  58.935 -52.278  1.00  0.00     0.072 A 
HETATM   23  S   UNL     1     -42.138  59.464 -51.271  1.00  0.00    -0.097 SA
HETATM   24  C   UNL     1     -41.070  59.854 -49.994  1.00  0.00     0.050 A 
HETATM   25  C   UNL     1     -39.758  59.599 -50.323  1.00  0.00     0.009 A 
HETATM   26  C   UNL     1     -39.634  59.074 -51.641  1.00  0.00     0.025 A 
ENDBRANCH  19  22
ENDBRANCH   1  18
BRANCH   1  27
HETATM   27  C   UNL     1     -40.911  54.874 -55.046  1.00  0.00     0.076 C 
BRANCH  27  28
HETATM   28  C   UNL     1     -40.699  54.242 -53.703  1.00  0.00    -0.028 A 
HETATM   29  C   UNL     1     -40.297  52.895 -53.427  1.00  0.00    -0.002 A 
HETATM   30  C   UNL     1     -40.221  52.758 -52.041  1.00  0.00     0.042 A 
HETATM   31  C   UNL     1     -39.988  51.777 -54.229  1.00  0.00     0.014 A 
HETATM   32  C   UNL     1     -39.845  51.563 -51.415  1.00  0.00     0.030 A 
HETATM   33  N   UNL     1     -40.575  53.967 -51.493  1.00  0.00    -0.365 N 
HETATM   34  C   UNL     1     -39.538  50.472 -52.233  1.00  0.00     0.002 A 
HETATM   35  C   UNL     1     -39.609  50.574 -53.620  1.00  0.00     0.001 A 
HETATM   36  H   UNL     1     -40.619  54.157 -50.501  1.00  0.00     0.165 HD
HETATM   37  C   UNL     1     -40.863  54.867 -52.482  1.00  0.00     0.096 A 
ENDBRANCH  27  28
ENDBRANCH   1  27
TORSDOF 7
ENDMDL
MODEL 9
REMARK VINA RESULT:      -8.0      3.195      8.678
REMARK  7 active torsions:
REMARK  status: ('A' for Active; 'I' for Inactive)
REMARK    1  A    between atoms: C_4  and  N_5 
REMARK       I    between atoms: N_5  and  C_6 
REMARK       I    between atoms: C_6  and  N_7 
REMARK    2  A    between atoms: N_7  and  N_8 
REMARK       I    between atoms: N_8  and  C_9 
REMARK    3  A    between atoms: C_9  and  C_10 
REMARK    4  A    between atoms: C_10  and  N_11 
REMARK    5  A    between atoms: C_10  and  C_19 
REMARK       I    between atoms: N_11  and  C_12 
REMARK    6  A    between atoms: C_12  and  C_13 
REMARK    7  A    between atoms: C_19  and  C_20 
ROOT
HETATM    1  C   UNL     1     -41.944  55.573 -53.680  1.00  0.00     0.183 C 
ENDROOT
BRANCH   1   2
HETATM    2  C   UNL     1     -42.090  56.409 -52.394  1.00  0.00     0.259 C 
HETATM    3  N   UNL     1     -43.045  57.401 -52.423  1.00  0.00    -0.264 N 
HETATM    4  H   UNL     1     -43.718  57.499 -53.194  1.00  0.00     0.190 HD
HETATM    5  O   UNL     1     -41.332  56.262 -51.431  1.00  0.00    -0.269 OA
BRANCH   3   6
HETATM    6  N   UNL     1     -43.339  58.087 -51.236  1.00  0.00    -0.249 N 
HETATM    7  C   UNL     1     -43.359  59.474 -51.285  1.00  0.00     0.339 C 
HETATM    8  N   UNL     1     -43.609  60.014 -50.040  1.00  0.00    -0.308 N 
HETATM    9  O   UNL     1     -43.209  60.086 -52.337  1.00  0.00    -0.245 OA
HETATM   10  H   UNL     1     -43.869  59.354 -49.324  1.00  0.00     0.170 HD
HETATM   11  H   UNL     1     -43.058  57.607 -50.387  1.00  0.00     0.192 HD
BRANCH   8  12
HETATM   12  C   UNL     1     -43.692  61.379 -49.699  1.00  0.00     0.036 A 
HETATM   13  C   UNL     1     -42.927  62.381 -50.299  1.00  0.00     0.029 A 
HETATM   14  C   UNL     1     -43.072  63.716 -49.907  1.00  0.00     0.002 A 
HETATM   15  C   UNL     1     -43.980  64.060 -48.910  1.00  0.00     0.000 A 
HETATM   16  C   UNL     1     -44.744  63.069 -48.301  1.00  0.00     0.002 A 
HETATM   17  C   UNL     1     -44.599  61.735 -48.692  1.00  0.00     0.029 A 
ENDBRANCH   8  12
ENDBRANCH   3   6
ENDBRANCH   1   2
BRANCH   1  18
HETATM   18  N   UNL     1     -41.526  54.192 -53.414  1.00  0.00    -0.343 N 
HETATM   19  C   UNL     1     -40.490  53.547 -54.047  1.00  0.00     0.259 C 
HETATM   20  O   UNL     1     -39.920  54.066 -55.005  1.00  0.00    -0.267 OA
HETATM   21  H   UNL     1     -41.875  53.761 -52.565  1.00  0.00     0.163 HD
BRANCH  19  22
HETATM   22  C   UNL     1     -40.148  52.224 -53.545  1.00  0.00     0.072 A 
HETATM   23  S   UNL     1     -39.697  51.946 -51.914  1.00  0.00    -0.097 SA
HETATM   24  C   UNL     1     -39.516  50.266 -52.176  1.00  0.00     0.050 A 
HETATM   25  C   UNL     1     -39.782  49.916 -53.481  1.00  0.00     0.009 A 
HETATM   26  C   UNL     1     -40.141  51.046 -54.270  1.00  0.00     0.025 A 
ENDBRANCH  19  22
ENDBRANCH   1  18
BRANCH   1  27
HETATM   27  C   UNL     1     -43.202  55.720 -54.553  1.00  0.00     0.076 C 
BRANCH  27  28
HETATM   28  C   UNL     1     -42.915  56.233 -55.933  1.00  0.00    -0.028 A 
HETATM   29  C   UNL     1     -42.584  57.574 -56.312  1.00  0.00    -0.002 A 
HETATM   30  C   UNL     1     -42.394  57.582 -57.694  1.00  0.00     0.042 A 
HETATM   31  C   UNL     1     -42.427  58.786 -55.608  1.00  0.00     0.014 A 
HETATM   32  C   UNL     1     -42.048  58.735 -58.408  1.00  0.00     0.030 A 
HETATM   33  N   UNL     1     -42.613  56.301 -58.141  1.00  0.00    -0.365 N 
HETATM   34  C   UNL     1     -41.891  59.921 -57.685  1.00  0.00     0.002 A 
HETATM   35  C   UNL     1     -42.079  59.949 -56.305  1.00  0.00     0.001 A 
HETATM   36  H   UNL     1     -42.555  56.012 -59.108  1.00  0.00     0.165 HD
HETATM   37  C   UNL     1     -42.925  55.481 -57.092  1.00  0.00     0.096 A 
ENDBRANCH  27  28
ENDBRANCH   1  27
TORSDOF 7
ENDMDL
MODEL 10
REMARK VINA RESULT:      -7.8      3.008      8.338
REMARK  7 active torsions:
REMARK  status: ('A' for Active; 'I' for Inactive)
REMARK    1  A    between atoms: C_4  and  N_5 
REMARK       I    between atoms: N_5  and  C_6 
REMARK       I    between atoms: C_6  and  N_7 
REMARK    2  A    between atoms: N_7  and  N_8 
REMARK       I    between atoms: N_8  and  C_9 
REMARK    3  A    between atoms: C_9  and  C_10 
REMARK    4  A    between atoms: C_10  and  N_11 
REMARK    5  A    between atoms: C_10  and  C_19 
REMARK       I    between atoms: N_11  and  C_12 
REMARK    6  A    between atoms: C_12  and  C_13 
REMARK    7  A    between atoms: C_19  and  C_20 
ROOT
HETATM    1  C   UNL     1     -41.422  57.398 -54.026  1.00  0.00     0.183 C 
ENDROOT
BRANCH   1   2
HETATM    2  C   UNL     1     -41.371  58.264 -52.753  1.00  0.00     0.259 C 
HETATM    3  N   UNL     1     -42.584  58.549 -52.167  1.00  0.00    -0.264 N 
HETATM    4  H   UNL     1     -43.462  58.107 -52.469  1.00  0.00     0.190 HD
HETATM    5  O   UNL     1     -40.316  58.751 -52.337  1.00  0.00    -0.269 OA
BRANCH   3   6
HETATM    6  N   UNL     1     -42.596  59.192 -50.921  1.00  0.00    -0.249 N 
HETATM    7  C   UNL     1     -43.649  60.056 -50.654  1.00  0.00     0.339 C 
HETATM    8  N   UNL     1     -43.504  60.654 -49.420  1.00  0.00    -0.308 N 
HETATM    9  O   UNL     1     -44.583  60.196 -51.436  1.00  0.00    -0.245 OA
HETATM   10  H   UNL     1     -42.757  60.293 -48.847  1.00  0.00     0.170 HD
HETATM   11  H   UNL     1     -41.677  59.363 -50.523  1.00  0.00     0.192 HD
BRANCH   8  12
HETATM   12  C   UNL     1     -44.365  61.592 -48.815  1.00  0.00     0.036 A 
HETATM   13  C   UNL     1     -44.339  62.962 -49.087  1.00  0.00     0.029 A 
HETATM   14  C   UNL     1     -45.232  63.829 -48.447  1.00  0.00     0.002 A 
HETATM   15  C   UNL     1     -46.154  63.335 -47.530  1.00  0.00     0.000 A 
HETATM   16  C   UNL     1     -46.184  61.972 -47.246  1.00  0.00     0.002 A 
HETATM   17  C   UNL     1     -45.292  61.106 -47.884  1.00  0.00     0.029 A 
ENDBRANCH   8  12
ENDBRANCH   3   6
ENDBRANCH   1   2
BRANCH   1  18
HETATM   18  N   UNL     1     -40.844  56.064 -53.828  1.00  0.00    -0.343 N 
HETATM   19  C   UNL     1     -41.317  55.124 -52.943  1.00  0.00     0.259 C 
HETATM   20  O   UNL     1     -42.201  55.410 -52.138  1.00  0.00    -0.267 OA
HETATM   21  H   UNL     1     -40.199  55.732 -54.536  1.00  0.00     0.163 HD
BRANCH  19  22
HETATM   22  C   UNL     1     -40.688  53.813 -52.993  1.00  0.00     0.072 A 
HETATM   23  S   UNL     1     -40.100  53.018 -51.591  1.00  0.00    -0.097 SA
HETATM   24  C   UNL     1     -39.599  51.652 -52.489  1.00  0.00     0.050 A 
HETATM   25  C   UNL     1     -39.862  51.793 -53.833  1.00  0.00     0.009 A 
HETATM   26  C   UNL     1     -40.484  53.041 -54.123  1.00  0.00     0.025 A 
ENDBRANCH  19  22
ENDBRANCH   1  18
BRANCH   1  27
HETATM   27  C   UNL     1     -42.840  57.416 -54.623  1.00  0.00     0.076 C 
BRANCH  27  28
HETATM   28  C   UNL     1     -42.972  56.602 -55.875  1.00  0.00    -0.028 A 
HETATM   29  C   UNL     1     -42.675  57.010 -57.215  1.00  0.00    -0.002 A 
HETATM   30  C   UNL     1     -42.938  55.925 -58.051  1.00  0.00     0.042 A 
HETATM   31  C   UNL     1     -42.204  58.205 -57.798  1.00  0.00     0.014 A 
HETATM   32  C   UNL     1     -42.749  55.969 -59.437  1.00  0.00     0.030 A 
HETATM   33  N   UNL     1     -43.391  54.900 -57.254  1.00  0.00    -0.365 N 
HETATM   34  C   UNL     1     -42.275  57.163 -59.988  1.00  0.00     0.002 A 
HETATM   35  C   UNL     1     -42.006  58.267 -59.183  1.00  0.00     0.001 A 
HETATM   36  H   UNL     1     -43.669  53.989 -57.594  1.00  0.00     0.165 HD
HETATM   37  C   UNL     1     -43.413  55.294 -55.945  1.00  0.00     0.096 A 
ENDBRANCH  27  28
ENDBRANCH   1  27
TORSDOF 7
ENDMDL
