MODEL 1
REMARK VINA RESULT:      -9.8      0.000      0.000
REMARK  6 active torsions:
REMARK  status: ('A' for Active; 'I' for Inactive)
REMARK    1  A    between atoms: C_3  and  C_4 
REMARK    2  A    between atoms: C_4  and  C_5 
REMARK       I    between atoms: C_5  and  N_6 
REMARK    3  A    between atoms: N_6  and  C_7 
REMARK    4  A    between atoms: C_7  and  C_8 
REMARK    5  A    between atoms: C_8  and  C_9 
REMARK    6  A    between atoms: C_27  and  O_28 
ROOT
HETATM    1  C   UNL     1     -42.468  56.758 -51.838  1.00  0.00     0.222 C 
HETATM    2  N   UNL     1     -42.240  57.907 -52.572  1.00  0.00    -0.360 N 
HETATM    3  O   UNL     1     -43.539  56.163 -51.796  1.00  0.00    -0.273 OA
HETATM    4  H   UNL     1     -41.270  58.061 -52.822  1.00  0.00     0.162 HD
ENDROOT
BRANCH   1   5
HETATM    5  C   UNL     1     -41.234  56.280 -51.067  1.00  0.00     0.148 C 
BRANCH   5   6
HETATM    6  C   UNL     1     -40.921  54.810 -51.245  1.00  0.00     0.033 C 
HETATM    7  C   UNL     1     -40.621  54.224 -52.427  1.00  0.00    -0.036 C 
HETATM    8  C   UNL     1     -40.601  54.949 -53.749  1.00  0.00     0.050 C 
HETATM    9  C   UNL     1     -40.310  52.779 -52.442  1.00  0.00     0.006 A 
HETATM   10  C   UNL     1     -40.116  52.128 -51.223  1.00  0.00     0.093 A 
HETATM   11  C   UNL     1     -40.167  52.019 -53.611  1.00  0.00     0.041 A 
HETATM   12  O   UNL     1     -40.336  52.784 -50.006  1.00  0.00    -0.274 OA
HETATM   13  C   UNL     1     -39.749  50.782 -51.138  1.00  0.00     0.076 A 
HETATM   14  C   UNL     1     -41.045  53.968 -50.023  1.00  0.00     0.295 C 
HETATM   15  O   UNL     1     -41.738  54.309 -49.071  1.00  0.00    -0.259 OA
HETATM   16  C   UNL     1     -39.608  50.048 -52.309  1.00  0.00     0.090 A 
HETATM   17  C   UNL     1     -39.830  50.660 -53.545  1.00  0.00     0.068 A 
HETATM   18 CL   UNL     1     -39.700  49.775 -55.022  1.00  0.00    -0.081 Cl
BRANCH  16  19
HETATM   19  O   UNL     1     -39.268  48.726 -52.249  1.00  0.00    -0.359 OA
HETATM   20  H   UNL     1     -39.800  48.221 -52.887  1.00  0.00     0.218 HD
ENDBRANCH  16  19
ENDBRANCH   5   6
ENDBRANCH   1   5
BRANCH   2  21
HETATM   21  C   UNL     1     -43.186  58.356 -53.577  1.00  0.00     0.127 C 
BRANCH  21  22
HETATM   22  C   UNL     1     -42.580  58.578 -54.964  1.00  0.00     0.060 C 
BRANCH  22  23
HETATM   23  C   UNL     1     -42.897  57.428 -55.874  1.00  0.00    -0.029 A 
HETATM   24  C   UNL     1     -42.745  57.390 -57.299  1.00  0.00    -0.000 A 
HETATM   25  C   UNL     1     -43.090  56.106 -57.722  1.00  0.00     0.043 A 
HETATM   26  C   UNL     1     -42.329  58.329 -58.267  1.00  0.00     0.038 A 
HETATM   27  C   UNL     1     -43.034  55.706 -59.063  1.00  0.00     0.032 A 
HETATM   28  N   UNL     1     -43.457  55.397 -56.602  1.00  0.00    -0.365 N 
HETATM   29  C   UNL     1     -42.620  56.654 -60.004  1.00  0.00     0.026 A 
HETATM   30  C   UNL     1     -42.276  57.943 -59.609  1.00  0.00     0.035 A 
HETATM   31 CL   UNL     1     -41.773  59.088 -60.797  1.00  0.00    -0.084 Cl
HETATM   32  H   UNL     1     -43.753  54.431 -56.607  1.00  0.00     0.165 HD
HETATM   33  C   UNL     1     -43.347  56.181 -55.488  1.00  0.00     0.096 A 
ENDBRANCH  22  23
ENDBRANCH  21  22
ENDBRANCH   2  21
TORSDOF 6
ENDMDL
MODEL 2
REMARK VINA RESULT:      -9.4      2.005      2.325
REMARK  6 active torsions:
REMARK  status: ('A' for Active; 'I' for Inactive)
REMARK    1  A    between atoms: C_3  and  C_4 
REMARK    2  A    between atoms: C_4  and  C_5 
REMARK       I    between atoms: C_5  and  N_6 
REMARK    3  A    between atoms: N_6  and  C_7 
REMARK    4  A    between atoms: C_7  and  C_8 
REMARK    5  A    between atoms: C_8  and  C_9 
REMARK    6  A    between atoms: C_27  and  O_28 
ROOT
HETATM    1  C   UNL     1     -43.193  56.866 -53.907  1.00  0.00     0.222 C 
HETATM    2  N   UNL     1     -43.529  58.114 -54.399  1.00  0.00    -0.360 N 
HETATM    3  O   UNL     1     -43.918  55.879 -53.967  1.00  0.00    -0.273 OA
HETATM    4  H   UNL     1     -42.737  58.702 -54.629  1.00  0.00     0.162 HD
ENDROOT
BRANCH   1   5
HETATM    5  C   UNL     1     -41.802  56.823 -53.268  1.00  0.00     0.148 C 
BRANCH   5   6
HETATM    6  C   UNL     1     -41.369  55.446 -52.815  1.00  0.00     0.033 C 
HETATM    7  C   UNL     1     -40.864  54.491 -53.630  1.00  0.00    -0.036 C 
HETATM    8  C   UNL     1     -40.704  54.649 -55.120  1.00  0.00     0.050 C 
HETATM    9  C   UNL     1     -40.457  53.199 -53.037  1.00  0.00     0.006 A 
HETATM   10  C   UNL     1     -40.396  53.094 -51.647  1.00  0.00     0.093 A 
HETATM   11  C   UNL     1     -40.098  52.070 -53.787  1.00  0.00     0.041 A 
HETATM   12  O   UNL     1     -40.832  54.136 -50.820  1.00  0.00    -0.274 OA
HETATM   13  C   UNL     1     -39.956  51.938 -50.998  1.00  0.00     0.076 A 
HETATM   14  C   UNL     1     -41.609  55.130 -51.380  1.00  0.00     0.295 C 
HETATM   15  O   UNL     1     -42.453  55.727 -50.720  1.00  0.00    -0.259 OA
HETATM   16  C   UNL     1     -39.600  50.832 -51.760  1.00  0.00     0.090 A 
HETATM   17  C   UNL     1     -39.682  50.891 -53.153  1.00  0.00     0.068 A 
HETATM   18 CL   UNL     1     -39.283  49.528 -54.135  1.00  0.00    -0.081 Cl
BRANCH  16  19
HETATM   19  O   UNL     1     -39.182  49.685 -51.145  1.00  0.00    -0.359 OA
HETATM   20  H   UNL     1     -38.703  49.128 -51.782  1.00  0.00     0.218 HD
ENDBRANCH  16  19
ENDBRANCH   5   6
ENDBRANCH   1   5
BRANCH   2  21
HETATM   21  C   UNL     1     -44.671  58.292 -55.278  1.00  0.00     0.127 C 
BRANCH  21  22
HETATM   22  C   UNL     1     -44.314  58.739 -56.697  1.00  0.00     0.060 C 
BRANCH  22  23
HETATM   23  C   UNL     1     -43.811  57.582 -57.509  1.00  0.00    -0.029 A 
HETATM   24  C   UNL     1     -44.491  56.926 -58.586  1.00  0.00    -0.000 A 
HETATM   25  C   UNL     1     -43.626  55.955 -59.097  1.00  0.00     0.043 A 
HETATM   26  C   UNL     1     -45.758  57.080 -59.185  1.00  0.00     0.038 A 
HETATM   27  C   UNL     1     -43.960  55.135 -60.182  1.00  0.00     0.032 A 
HETATM   28  N   UNL     1     -42.475  56.006 -58.346  1.00  0.00    -0.365 N 
HETATM   29  C   UNL     1     -45.222  55.305 -60.758  1.00  0.00     0.026 A 
HETATM   30  C   UNL     1     -46.105  56.261 -60.264  1.00  0.00     0.035 A 
HETATM   31 CL   UNL     1     -47.655  56.442 -60.997  1.00  0.00    -0.084 Cl
HETATM   32  H   UNL     1     -41.668  55.416 -58.494  1.00  0.00     0.165 HD
HETATM   33  C   UNL     1     -42.575  56.977 -57.389  1.00  0.00     0.096 A 
ENDBRANCH  22  23
ENDBRANCH  21  22
ENDBRANCH   2  21
TORSDOF 6
ENDMDL
MODEL 3
REMARK VINA RESULT:      -9.0      1.724      2.381
REMARK  6 active torsions:
REMARK  status: ('A' for Active; 'I' for Inactive)
REMARK    1  A    between atoms: C_3  and  C_4 
REMARK    2  A    between atoms: C_4  and  C_5 
REMARK       I    between atoms: C_5  and  N_6 
REMARK    3  A    between atoms: N_6  and  C_7 
REMARK    4  A    between atoms: C_7  and  C_8 
REMARK    5  A    between atoms: C_8  and  C_9 
REMARK    6  A    between atoms: C_27  and  O_28 
ROOT
HETATM    1  C   UNL     1     -43.315  57.529 -51.327  1.00  0.00     0.222 C 
HETATM    2  N   UNL     1     -43.432  58.614 -52.177  1.00  0.00    -0.360 N 
HETATM    3  O   UNL     1     -44.262  56.894 -50.879  1.00  0.00    -0.273 OA
HETATM    4  H   UNL     1     -42.617  58.786 -52.753  1.00  0.00     0.162 HD
ENDROOT
BRANCH   1   5
HETATM    5  C   UNL     1     -41.862  57.180 -50.990  1.00  0.00     0.148 C 
BRANCH   5   6
HETATM    6  C   UNL     1     -41.360  55.912 -51.644  1.00  0.00     0.033 C 
HETATM    7  C   UNL     1     -41.069  54.768 -50.983  1.00  0.00    -0.036 C 
HETATM    8  C   UNL     1     -41.162  54.608 -49.486  1.00  0.00     0.050 C 
HETATM    9  C   UNL     1     -40.613  53.597 -51.762  1.00  0.00     0.006 A 
HETATM   10  C   UNL     1     -40.715  53.642 -53.152  1.00  0.00     0.093 A 
HETATM   11  C   UNL     1     -40.107  52.422 -51.189  1.00  0.00     0.041 A 
HETATM   12  O   UNL     1     -41.115  54.810 -53.814  1.00  0.00    -0.274 OA
HETATM   13  C   UNL     1     -40.376  52.560 -53.968  1.00  0.00     0.076 A 
HETATM   14  C   UNL     1     -41.100  55.996 -53.108  1.00  0.00     0.295 C 
HETATM   15  O   UNL     1     -40.889  57.067 -53.666  1.00  0.00    -0.259 OA
HETATM   16  C   UNL     1     -39.881  51.403 -53.380  1.00  0.00     0.090 A 
HETATM   17  C   UNL     1     -39.733  51.336 -51.992  1.00  0.00     0.068 A 
HETATM   18 CL   UNL     1     -39.088  49.931 -51.224  1.00  0.00    -0.081 Cl
BRANCH  16  19
HETATM   19  O   UNL     1     -39.526  50.338 -54.160  1.00  0.00    -0.359 OA
HETATM   20  H   UNL     1     -39.013  50.648 -54.925  1.00  0.00     0.218 HD
ENDBRANCH  16  19
ENDBRANCH   5   6
ENDBRANCH   1   5
BRANCH   2  21
HETATM   21  C   UNL     1     -44.691  58.923 -52.829  1.00  0.00     0.127 C 
BRANCH  21  22
HETATM   22  C   UNL     1     -44.589  59.122 -54.343  1.00  0.00     0.060 C 
BRANCH  22  23
HETATM   23  C   UNL     1     -44.248  57.831 -55.026  1.00  0.00    -0.029 A 
HETATM   24  C   UNL     1     -43.698  57.671 -56.341  1.00  0.00    -0.000 A 
HETATM   25  C   UNL     1     -43.476  56.308 -56.538  1.00  0.00     0.043 A 
HETATM   26  C   UNL     1     -43.354  58.566 -57.375  1.00  0.00     0.038 A 
HETATM   27  C   UNL     1     -42.919  55.790 -57.715  1.00  0.00     0.032 A 
HETATM   28  N   UNL     1     -43.893  55.662 -55.398  1.00  0.00    -0.365 N 
HETATM   29  C   UNL     1     -42.587  56.696 -58.726  1.00  0.00     0.026 A 
HETATM   30  C   UNL     1     -42.804  58.061 -58.557  1.00  0.00     0.035 A 
HETATM   31 CL   UNL     1     -42.387  59.150 -59.827  1.00  0.00    -0.084 Cl
HETATM   32  H   UNL     1     -43.846  54.662 -55.256  1.00  0.00     0.165 HD
HETATM   33  C   UNL     1     -44.360  56.565 -54.485  1.00  0.00     0.096 A 
ENDBRANCH  22  23
ENDBRANCH  21  22
ENDBRANCH   2  21
TORSDOF 6
ENDMDL
MODEL 4
REMARK VINA RESULT:      -8.9      3.518      5.446
REMARK  6 active torsions:
REMARK  status: ('A' for Active; 'I' for Inactive)
REMARK    1  A    between atoms: C_3  and  C_4 
REMARK    2  A    between atoms: C_4  and  C_5 
REMARK       I    between atoms: C_5  and  N_6 
REMARK    3  A    between atoms: N_6  and  C_7 
REMARK    4  A    between atoms: C_7  and  C_8 
REMARK    5  A    between atoms: C_8  and  C_9 
REMARK    6  A    between atoms: C_27  and  O_28 
ROOT
HETATM    1  C   UNL     1     -42.840  56.570 -51.388  1.00  0.00     0.222 C 
HETATM    2  N   UNL     1     -42.984  57.495 -52.406  1.00  0.00    -0.360 N 
HETATM    3  O   UNL     1     -43.773  56.051 -50.786  1.00  0.00    -0.273 OA
HETATM    4  H   UNL     1     -42.200  57.540 -53.046  1.00  0.00     0.162 HD
ENDROOT
BRANCH   1   5
HETATM    5  C   UNL     1     -41.377  56.242 -51.073  1.00  0.00     0.148 C 
BRANCH   5   6
HETATM    6  C   UNL     1     -41.016  54.784 -51.254  1.00  0.00     0.033 C 
HETATM    7  C   UNL     1     -40.746  54.199 -52.444  1.00  0.00    -0.036 C 
HETATM    8  C   UNL     1     -40.812  54.911 -53.771  1.00  0.00     0.050 C 
HETATM    9  C   UNL     1     -40.379  52.767 -52.461  1.00  0.00     0.006 A 
HETATM   10  C   UNL     1     -40.107  52.135 -51.247  1.00  0.00     0.093 A 
HETATM   11  C   UNL     1     -40.259  52.001 -53.629  1.00  0.00     0.041 A 
HETATM   12  O   UNL     1     -40.298  52.793 -50.027  1.00  0.00    -0.274 OA
HETATM   13  C   UNL     1     -39.685  50.805 -51.168  1.00  0.00     0.076 A 
HETATM   14  C   UNL     1     -41.053  53.949 -50.021  1.00  0.00     0.295 C 
HETATM   15  O   UNL     1     -41.716  54.273 -49.042  1.00  0.00    -0.259 OA
HETATM   16  C   UNL     1     -39.567  50.066 -52.338  1.00  0.00     0.090 A 
HETATM   17  C   UNL     1     -39.866  50.658 -53.568  1.00  0.00     0.068 A 
HETATM   18 CL   UNL     1     -39.767  49.764 -55.042  1.00  0.00    -0.081 Cl
BRANCH  16  19
HETATM   19  O   UNL     1     -39.173  48.759 -52.284  1.00  0.00    -0.359 OA
HETATM   20  H   UNL     1     -39.540  48.339 -51.488  1.00  0.00     0.218 HD
ENDBRANCH  16  19
ENDBRANCH   5   6
ENDBRANCH   1   5
BRANCH   2  21
HETATM   21  C   UNL     1     -44.273  57.725 -53.034  1.00  0.00     0.127 C 
BRANCH  21  22
HETATM   22  C   UNL     1     -44.746  59.180 -52.995  1.00  0.00     0.060 C 
BRANCH  22  23
HETATM   23  C   UNL     1     -44.914  59.646 -51.579  1.00  0.00    -0.029 A 
HETATM   24  C   UNL     1     -44.533  60.919 -51.041  1.00  0.00    -0.000 A 
HETATM   25  C   UNL     1     -44.939  60.947 -49.706  1.00  0.00     0.043 A 
HETATM   26  C   UNL     1     -43.894  62.058 -51.574  1.00  0.00     0.038 A 
HETATM   27  C   UNL     1     -44.747  62.058 -48.875  1.00  0.00     0.032 A 
HETATM   28  N   UNL     1     -45.525  59.732 -49.437  1.00  0.00    -0.365 N 
HETATM   29  C   UNL     1     -44.110  63.174 -49.425  1.00  0.00     0.026 A 
HETATM   30  C   UNL     1     -43.689  63.170 -50.752  1.00  0.00     0.035 A 
HETATM   31 CL   UNL     1     -42.903  64.563 -51.396  1.00  0.00    -0.084 Cl
HETATM   32  H   UNL     1     -45.918  59.470 -48.543  1.00  0.00     0.165 HD
HETATM   33  C   UNL     1     -45.514  58.943 -50.553  1.00  0.00     0.096 A 
ENDBRANCH  22  23
ENDBRANCH  21  22
ENDBRANCH   2  21
TORSDOF 6
ENDMDL
MODEL 5
REMARK VINA RESULT:      -8.8      4.657     10.157
REMARK  6 active torsions:
REMARK  status: ('A' for Active; 'I' for Inactive)
REMARK    1  A    between atoms: C_3  and  C_4 
REMARK    2  A    between atoms: C_4  and  C_5 
REMARK       I    between atoms: C_5  and  N_6 
REMARK    3  A    between atoms: N_6  and  C_7 
REMARK    4  A    between atoms: C_7  and  C_8 
REMARK    5  A    between atoms: C_8  and  C_9 
REMARK    6  A    between atoms: C_27  and  O_28 
ROOT
HETATM    1  C   UNL     1     -42.802  56.710 -57.936  1.00  0.00     0.222 C 
HETATM    2  N   UNL     1     -43.404  55.709 -57.195  1.00  0.00    -0.360 N 
HETATM    3  O   UNL     1     -42.229  57.680 -57.454  1.00  0.00    -0.273 OA
HETATM    4  H   UNL     1     -43.486  54.821 -57.676  1.00  0.00     0.162 HD
ENDROOT
BRANCH   1   5
HETATM    5  C   UNL     1     -42.915  56.492 -59.448  1.00  0.00     0.148 C 
BRANCH   5   6
HETATM    6  C   UNL     1     -44.317  56.649 -59.994  1.00  0.00     0.033 C 
HETATM    7  C   UNL     1     -44.938  57.835 -60.194  1.00  0.00    -0.036 C 
HETATM    8  C   UNL     1     -44.333  59.173 -59.855  1.00  0.00     0.050 C 
HETATM    9  C   UNL     1     -46.303  57.832 -60.762  1.00  0.00     0.006 A 
HETATM   10  C   UNL     1     -46.807  56.637 -61.277  1.00  0.00     0.093 A 
HETATM   11  C   UNL     1     -47.121  58.967 -60.845  1.00  0.00     0.041 A 
HETATM   12  O   UNL     1     -46.100  55.435 -61.148  1.00  0.00    -0.274 OA
HETATM   13  C   UNL     1     -48.056  56.552 -61.897  1.00  0.00     0.076 A 
HETATM   14  C   UNL     1     -45.064  55.383 -60.238  1.00  0.00     0.295 C 
HETATM   15  O   UNL     1     -44.771  54.340 -59.664  1.00  0.00    -0.259 OA
HETATM   16  C   UNL     1     -48.849  57.690 -61.973  1.00  0.00     0.090 A 
HETATM   17  C   UNL     1     -48.389  58.895 -61.436  1.00  0.00     0.068 A 
HETATM   18 CL   UNL     1     -49.358  60.324 -61.477  1.00  0.00    -0.081 Cl
BRANCH  16  19
HETATM   19  O   UNL     1     -50.082  57.626 -62.559  1.00  0.00    -0.359 OA
HETATM   20  H   UNL     1     -50.200  58.384 -63.156  1.00  0.00     0.218 HD
ENDBRANCH  16  19
ENDBRANCH   5   6
ENDBRANCH   1   5
BRANCH   2  21
HETATM   21  C   UNL     1     -43.166  55.587 -55.767  1.00  0.00     0.127 C 
BRANCH  21  22
HETATM   22  C   UNL     1     -43.123  54.146 -55.254  1.00  0.00     0.060 C 
BRANCH  22  23
HETATM   23  C   UNL     1     -42.369  54.065 -53.959  1.00  0.00    -0.029 A 
HETATM   24  C   UNL     1     -41.386  53.088 -53.595  1.00  0.00    -0.000 A 
HETATM   25  C   UNL     1     -40.896  53.437 -52.335  1.00  0.00     0.043 A 
HETATM   26  C   UNL     1     -40.855  51.946 -54.231  1.00  0.00     0.038 A 
HETATM   27  C   UNL     1     -39.896  52.708 -51.679  1.00  0.00     0.032 A 
HETATM   28  N   UNL     1     -41.570  54.570 -51.941  1.00  0.00    -0.365 N 
HETATM   29  C   UNL     1     -39.387  51.579 -52.328  1.00  0.00     0.026 A 
HETATM   30  C   UNL     1     -39.862  51.206 -53.582  1.00  0.00     0.035 A 
HETATM   31 CL   UNL     1     -39.214  49.806 -54.352  1.00  0.00    -0.084 Cl
HETATM   32  H   UNL     1     -41.416  55.052 -51.066  1.00  0.00     0.165 HD
HETATM   33  C   UNL     1     -42.457  54.954 -52.906  1.00  0.00     0.096 A 
ENDBRANCH  22  23
ENDBRANCH  21  22
ENDBRANCH   2  21
TORSDOF 6
ENDMDL
MODEL 6
REMARK VINA RESULT:      -8.8      2.704      7.530
REMARK  6 active torsions:
REMARK  status: ('A' for Active; 'I' for Inactive)
REMARK    1  A    between atoms: C_3  and  C_4 
REMARK    2  A    between atoms: C_4  and  C_5 
REMARK       I    between atoms: C_5  and  N_6 
REMARK    3  A    between atoms: N_6  and  C_7 
REMARK    4  A    between atoms: C_7  and  C_8 
REMARK    5  A    between atoms: C_8  and  C_9 
REMARK    6  A    between atoms: C_27  and  O_28 
ROOT
HETATM    1  C   UNL     1     -42.471  57.682 -51.613  1.00  0.00     0.222 C 
HETATM    2  N   UNL     1     -43.037  56.423 -51.541  1.00  0.00    -0.360 N 
HETATM    3  O   UNL     1     -41.454  58.020 -51.017  1.00  0.00    -0.273 OA
HETATM    4  H   UNL     1     -43.606  56.172 -52.340  1.00  0.00     0.162 HD
ENDROOT
BRANCH   1   5
HETATM    5  C   UNL     1     -43.242  58.639 -52.528  1.00  0.00     0.148 C 
BRANCH   5   6
HETATM    6  C   UNL     1     -42.877  58.528 -53.992  1.00  0.00     0.033 C 
HETATM    7  C   UNL     1     -43.423  57.642 -54.856  1.00  0.00    -0.036 C 
HETATM    8  C   UNL     1     -44.447  56.604 -54.470  1.00  0.00     0.050 C 
HETATM    9  C   UNL     1     -42.985  57.669 -56.268  1.00  0.00     0.006 A 
HETATM   10  C   UNL     1     -42.204  58.741 -56.701  1.00  0.00     0.093 A 
HETATM   11  C   UNL     1     -43.330  56.696 -57.216  1.00  0.00     0.041 A 
HETATM   12  O   UNL     1     -41.730  59.705 -55.803  1.00  0.00    -0.274 OA
HETATM   13  C   UNL     1     -41.802  58.891 -58.031  1.00  0.00     0.076 A 
HETATM   14  C   UNL     1     -41.775  59.416 -54.455  1.00  0.00     0.295 C 
HETATM   15  O   UNL     1     -40.946  59.877 -53.676  1.00  0.00    -0.259 OA
HETATM   16  C   UNL     1     -42.158  57.917 -58.956  1.00  0.00     0.090 A 
HETATM   17  C   UNL     1     -42.911  56.813 -58.548  1.00  0.00     0.068 A 
HETATM   18 CL   UNL     1     -43.344  55.562 -59.657  1.00  0.00    -0.081 Cl
BRANCH  16  19
HETATM   19  O   UNL     1     -41.761  58.034 -60.258  1.00  0.00    -0.359 OA
HETATM   20  H   UNL     1     -41.861  58.956 -60.550  1.00  0.00     0.218 HD
ENDBRANCH  16  19
ENDBRANCH   5   6
ENDBRANCH   1   5
BRANCH   2  21
HETATM   21  C   UNL     1     -42.313  55.307 -50.959  1.00  0.00     0.127 C 
BRANCH  21  22
HETATM   22  C   UNL     1     -40.865  55.173 -51.436  1.00  0.00     0.060 C 
BRANCH  22  23
HETATM   23  C   UNL     1     -40.780  54.267 -52.629  1.00  0.00    -0.029 A 
HETATM   24  C   UNL     1     -40.369  52.893 -52.639  1.00  0.00    -0.000 A 
HETATM   25  C   UNL     1     -40.510  52.424 -53.946  1.00  0.00     0.043 A 
HETATM   26  C   UNL     1     -39.906  52.000 -51.650  1.00  0.00     0.038 A 
HETATM   27  C   UNL     1     -40.219  51.105 -54.317  1.00  0.00     0.032 A 
HETATM   28  N   UNL     1     -40.968  53.476 -54.705  1.00  0.00    -0.365 N 
HETATM   29  C   UNL     1     -39.760  50.240 -53.320  1.00  0.00     0.026 A 
HETATM   30  C   UNL     1     -39.605  50.683 -52.009  1.00  0.00     0.035 A 
HETATM   31 CL   UNL     1     -39.033  49.589 -50.806  1.00  0.00    -0.084 Cl
HETATM   32  H   UNL     1     -41.167  53.425 -55.694  1.00  0.00     0.165 HD
HETATM   33  C   UNL     1     -41.132  54.587 -53.925  1.00  0.00     0.096 A 
ENDBRANCH  22  23
ENDBRANCH  21  22
ENDBRANCH   2  21
TORSDOF 6
ENDMDL
MODEL 7
REMARK VINA RESULT:      -8.8      3.432      7.138
REMARK  6 active torsions:
REMARK  status: ('A' for Active; 'I' for Inactive)
REMARK    1  A    between atoms: C_3  and  C_4 
REMARK    2  A    between atoms: C_4  and  C_5 
REMARK       I    between atoms: C_5  and  N_6 
REMARK    3  A    between atoms: N_6  and  C_7 
REMARK    4  A    between atoms: C_7  and  C_8 
REMARK    5  A    between atoms: C_8  and  C_9 
REMARK    6  A    between atoms: C_27  and  O_28 
ROOT
HETATM    1  C   UNL     1     -42.790  58.975 -51.697  1.00  0.00     0.222 C 
HETATM    2  N   UNL     1     -42.386  57.654 -51.753  1.00  0.00    -0.360 N 
HETATM    3  O   UNL     1     -42.439  59.771 -50.834  1.00  0.00    -0.273 OA
HETATM    4  H   UNL     1     -42.426  57.241 -52.677  1.00  0.00     0.162 HD
ENDROOT
BRANCH   1   5
HETATM    5  C   UNL     1     -43.735  59.366 -52.838  1.00  0.00     0.148 C 
BRANCH   5   6
HETATM    6  C   UNL     1     -43.229  58.999 -54.216  1.00  0.00     0.033 C 
HETATM    7  C   UNL     1     -43.820  58.103 -55.040  1.00  0.00    -0.036 C 
HETATM    8  C   UNL     1     -45.048  57.305 -54.681  1.00  0.00     0.050 C 
HETATM    9  C   UNL     1     -43.225  57.867 -56.372  1.00  0.00     0.006 A 
HETATM   10  C   UNL     1     -42.222  58.731 -56.815  1.00  0.00     0.093 A 
HETATM   11  C   UNL     1     -43.625  56.842 -57.240  1.00  0.00     0.041 A 
HETATM   12  O   UNL     1     -41.693  59.719 -55.977  1.00  0.00    -0.274 OA
HETATM   13  C   UNL     1     -41.650  58.631 -58.086  1.00  0.00     0.076 A 
HETATM   14  C   UNL     1     -41.942  59.627 -54.623  1.00  0.00     0.295 C 
HETATM   15  O   UNL     1     -41.141  60.051 -53.797  1.00  0.00    -0.259 OA
HETATM   16  C   UNL     1     -42.064  57.611 -58.933  1.00  0.00     0.090 A 
HETATM   17  C   UNL     1     -43.041  56.707 -58.507  1.00  0.00     0.068 A 
HETATM   18 CL   UNL     1     -43.558  55.403 -59.515  1.00  0.00    -0.081 Cl
BRANCH  16  19
HETATM   19  O   UNL     1     -41.505  57.484 -60.174  1.00  0.00    -0.359 OA
HETATM   20  H   UNL     1     -40.846  58.185 -60.309  1.00  0.00     0.218 HD
ENDBRANCH  16  19
ENDBRANCH   5   6
ENDBRANCH   1   5
BRANCH   2  21
HETATM   21  C   UNL     1     -41.287  57.170 -50.937  1.00  0.00     0.127 C 
BRANCH  21  22
HETATM   22  C   UNL     1     -41.609  55.919 -50.116  1.00  0.00     0.060 C 
BRANCH  22  23
HETATM   23  C   UNL     1     -40.929  54.714 -50.694  1.00  0.00    -0.029 A 
HETATM   24  C   UNL     1     -41.173  54.120 -51.976  1.00  0.00    -0.000 A 
HETATM   25  C   UNL     1     -40.269  53.067 -52.127  1.00  0.00     0.043 A 
HETATM   26  C   UNL     1     -42.070  54.393 -53.030  1.00  0.00     0.038 A 
HETATM   27  C   UNL     1     -40.209  52.275 -53.282  1.00  0.00     0.032 A 
HETATM   28  N   UNL     1     -39.520  53.009 -50.975  1.00  0.00    -0.365 N 
HETATM   29  C   UNL     1     -41.109  52.564 -54.311  1.00  0.00     0.026 A 
HETATM   30  C   UNL     1     -42.025  53.605 -54.184  1.00  0.00     0.035 A 
HETATM   31 CL   UNL     1     -43.122  53.932 -55.473  1.00  0.00    -0.084 Cl
HETATM   32  H   UNL     1     -38.780  52.342 -50.805  1.00  0.00     0.165 HD
HETATM   33  C   UNL     1     -39.909  53.992 -50.108  1.00  0.00     0.096 A 
ENDBRANCH  22  23
ENDBRANCH  21  22
ENDBRANCH   2  21
TORSDOF 6
ENDMDL
MODEL 8
REMARK VINA RESULT:      -8.6      3.171      8.066
REMARK  6 active torsions:
REMARK  status: ('A' for Active; 'I' for Inactive)
REMARK    1  A    between atoms: C_3  and  C_4 
REMARK    2  A    between atoms: C_4  and  C_5 
REMARK       I    between atoms: C_5  and  N_6 
REMARK    3  A    between atoms: N_6  and  C_7 
REMARK    4  A    between atoms: C_7  and  C_8 
REMARK    5  A    between atoms: C_8  and  C_9 
REMARK    6  A    between atoms: C_27  and  O_28 
ROOT
HETATM    1  C   UNL     1     -43.625  58.332 -54.034  1.00  0.00     0.222 C 
HETATM    2  N   UNL     1     -42.658  57.780 -53.215  1.00  0.00    -0.360 N 
HETATM    3  O   UNL     1     -44.809  58.436 -53.736  1.00  0.00    -0.273 OA
HETATM    4  H   UNL     1     -41.715  58.097 -53.404  1.00  0.00     0.162 HD
ENDROOT
BRANCH   1   5
HETATM    5  C   UNL     1     -43.073  58.816 -55.378  1.00  0.00     0.148 C 
BRANCH   5   6
HETATM    6  C   UNL     1     -43.428  57.929 -56.551  1.00  0.00     0.033 C 
HETATM    7  C   UNL     1     -44.471  58.139 -57.388  1.00  0.00    -0.036 C 
HETATM    8  C   UNL     1     -45.458  59.269 -57.241  1.00  0.00     0.050 C 
HETATM    9  C   UNL     1     -44.677  57.200 -58.510  1.00  0.00     0.006 A 
HETATM   10  C   UNL     1     -43.673  56.275 -58.798  1.00  0.00     0.093 A 
HETATM   11  C   UNL     1     -45.814  57.195 -59.331  1.00  0.00     0.041 A 
HETATM   12  O   UNL     1     -42.550  56.142 -57.972  1.00  0.00    -0.274 OA
HETATM   13  C   UNL     1     -43.746  55.395 -59.881  1.00  0.00     0.076 A 
HETATM   14  C   UNL     1     -42.598  56.703 -56.712  1.00  0.00     0.295 C 
HETATM   15  O   UNL     1     -41.979  56.215 -55.773  1.00  0.00    -0.259 OA
HETATM   16  C   UNL     1     -44.880  55.410 -60.684  1.00  0.00     0.090 A 
HETATM   17  C   UNL     1     -45.920  56.300 -60.403  1.00  0.00     0.068 A 
HETATM   18 CL   UNL     1     -47.361  56.326 -61.355  1.00  0.00    -0.081 Cl
BRANCH  16  19
HETATM   19  O   UNL     1     -44.981  54.547 -61.739  1.00  0.00    -0.359 OA
HETATM   20  H   UNL     1     -44.112  54.441 -62.161  1.00  0.00     0.218 HD
ENDBRANCH  16  19
ENDBRANCH   5   6
ENDBRANCH   1   5
BRANCH   2  21
HETATM   21  C   UNL     1     -42.922  57.522 -51.810  1.00  0.00     0.127 C 
BRANCH  21  22
HETATM   22  C   UNL     1     -43.367  56.091 -51.501  1.00  0.00     0.060 C 
BRANCH  22  23
HETATM   23  C   UNL     1     -42.252  55.312 -50.869  1.00  0.00    -0.029 A 
HETATM   24  C   UNL     1     -41.481  54.267 -51.475  1.00  0.00    -0.000 A 
HETATM   25  C   UNL     1     -40.508  53.876 -50.553  1.00  0.00     0.043 A 
HETATM   26  C   UNL     1     -41.512  53.627 -52.732  1.00  0.00     0.038 A 
HETATM   27  C   UNL     1     -39.558  52.884 -50.824  1.00  0.00     0.032 A 
HETATM   28  N   UNL     1     -40.693  54.640 -49.424  1.00  0.00    -0.365 N 
HETATM   29  C   UNL     1     -39.609  52.263 -52.075  1.00  0.00     0.026 A 
HETATM   30  C   UNL     1     -40.573  52.630 -53.011  1.00  0.00     0.035 A 
HETATM   31 CL   UNL     1     -40.609  51.841 -54.544  1.00  0.00    -0.084 Cl
HETATM   32  H   UNL     1     -40.126  54.576 -48.590  1.00  0.00     0.165 HD
HETATM   33  C   UNL     1     -41.738  55.503 -49.602  1.00  0.00     0.096 A 
ENDBRANCH  22  23
ENDBRANCH  21  22
ENDBRANCH   2  21
TORSDOF 6
ENDMDL
MODEL 9
REMARK VINA RESULT:      -8.4      2.816      7.700
REMARK  6 active torsions:
REMARK  status: ('A' for Active; 'I' for Inactive)
REMARK    1  A    between atoms: C_3  and  C_4 
REMARK    2  A    between atoms: C_4  and  C_5 
REMARK       I    between atoms: C_5  and  N_6 
REMARK    3  A    between atoms: N_6  and  C_7 
REMARK    4  A    between atoms: C_7  and  C_8 
REMARK    5  A    between atoms: C_8  and  C_9 
REMARK    6  A    between atoms: C_27  and  O_28 
ROOT
HETATM    1  C   UNL     1     -42.548  58.735 -52.331  1.00  0.00     0.222 C 
HETATM    2  N   UNL     1     -42.469  57.398 -51.988  1.00  0.00    -0.360 N 
HETATM    3  O   UNL     1     -41.787  59.603 -51.916  1.00  0.00    -0.273 OA
HETATM    4  H   UNL     1     -42.879  56.766 -52.666  1.00  0.00     0.162 HD
ENDROOT
BRANCH   1   5
HETATM    5  C   UNL     1     -43.694  59.044 -53.298  1.00  0.00     0.148 C 
BRANCH   5   6
HETATM    6  C   UNL     1     -43.474  58.532 -54.705  1.00  0.00     0.033 C 
HETATM    7  C   UNL     1     -42.964  59.267 -55.721  1.00  0.00    -0.036 C 
HETATM    8  C   UNL     1     -42.583  60.720 -55.605  1.00  0.00     0.050 C 
HETATM    9  C   UNL     1     -42.781  58.620 -57.038  1.00  0.00     0.006 A 
HETATM   10  C   UNL     1     -42.925  57.235 -57.125  1.00  0.00     0.093 A 
HETATM   11  C   UNL     1     -42.441  59.310 -58.210  1.00  0.00     0.041 A 
HETATM   12  O   UNL     1     -43.360  56.480 -56.029  1.00  0.00    -0.274 OA
HETATM   13  C   UNL     1     -42.702  56.528 -58.309  1.00  0.00     0.076 A 
HETATM   14  C   UNL     1     -43.943  57.144 -54.970  1.00  0.00     0.295 C 
HETATM   15  O   UNL     1     -44.803  56.610 -54.278  1.00  0.00    -0.259 OA
HETATM   16  C   UNL     1     -42.362  57.230 -59.459  1.00  0.00     0.090 A 
HETATM   17  C   UNL     1     -42.243  58.622 -59.414  1.00  0.00     0.068 A 
HETATM   18 CL   UNL     1     -41.857  59.535 -60.828  1.00  0.00    -0.081 Cl
BRANCH  16  19
HETATM   19  O   UNL     1     -42.156  56.561 -60.632  1.00  0.00    -0.359 OA
HETATM   20  H   UNL     1     -42.901  56.721 -61.235  1.00  0.00     0.218 HD
ENDBRANCH  16  19
ENDBRANCH   5   6
ENDBRANCH   1   5
BRANCH   2  21
HETATM   21  C   UNL     1     -41.299  56.863 -51.315  1.00  0.00     0.127 C 
BRANCH  21  22
HETATM   22  C   UNL     1     -41.334  55.350 -51.090  1.00  0.00     0.060 C 
BRANCH  22  23
HETATM   23  C   UNL     1     -40.975  54.617 -52.349  1.00  0.00    -0.029 A 
HETATM   24  C   UNL     1     -40.476  53.277 -52.452  1.00  0.00    -0.000 A 
HETATM   25  C   UNL     1     -40.348  52.982 -53.810  1.00  0.00     0.043 A 
HETATM   26  C   UNL     1     -40.137  52.281 -51.512  1.00  0.00     0.038 A 
HETATM   27  C   UNL     1     -39.905  51.739 -54.280  1.00  0.00     0.032 A 
HETATM   28  N   UNL     1     -40.734  54.104 -54.505  1.00  0.00    -0.365 N 
HETATM   29  C   UNL     1     -39.574  50.768 -53.330  1.00  0.00     0.026 A 
HETATM   30  C   UNL     1     -39.687  51.039 -51.969  1.00  0.00     0.035 A 
HETATM   31 CL   UNL     1     -39.266  49.820 -50.825  1.00  0.00    -0.084 Cl
HETATM   32  H   UNL     1     -40.748  54.178 -55.513  1.00  0.00     0.165 HD
HETATM   33  C   UNL     1     -41.110  55.092 -53.638  1.00  0.00     0.096 A 
ENDBRANCH  22  23
ENDBRANCH  21  22
ENDBRANCH   2  21
TORSDOF 6
ENDMDL
MODEL 10
REMARK VINA RESULT:      -8.4      2.697      3.258
REMARK  6 active torsions:
REMARK  status: ('A' for Active; 'I' for Inactive)
REMARK    1  A    between atoms: C_3  and  C_4 
REMARK    2  A    between atoms: C_4  and  C_5 
REMARK       I    between atoms: C_5  and  N_6 
REMARK    3  A    between atoms: N_6  and  C_7 
REMARK    4  A    between atoms: C_7  and  C_8 
REMARK    5  A    between atoms: C_8  and  C_9 
REMARK    6  A    between atoms: C_27  and  O_28 
ROOT
HETATM    1  C   UNL     1     -42.867  57.247 -53.077  1.00  0.00     0.222 C 
HETATM    2  N   UNL     1     -42.696  58.329 -53.921  1.00  0.00    -0.360 N 
HETATM    3  O   UNL     1     -43.934  56.671 -52.896  1.00  0.00    -0.273 OA
HETATM    4  H   UNL     1     -41.751  58.449 -54.264  1.00  0.00     0.162 HD
ENDROOT
BRANCH   1   5
HETATM    5  C   UNL     1     -41.575  56.819 -52.375  1.00  0.00     0.148 C 
BRANCH   5   6
HETATM    6  C   UNL     1     -41.121  55.416 -52.712  1.00  0.00     0.033 C 
HETATM    7  C   UNL     1     -40.856  54.452 -51.800  1.00  0.00    -0.036 C 
HETATM    8  C   UNL     1     -40.934  54.655 -50.308  1.00  0.00     0.050 C 
HETATM    9  C   UNL     1     -40.447  53.115 -52.282  1.00  0.00     0.006 A 
HETATM   10  C   UNL     1     -40.566  52.833 -53.643  1.00  0.00     0.093 A 
HETATM   11  C   UNL     1     -39.969  52.094 -51.449  1.00  0.00     0.041 A 
HETATM   12  O   UNL     1     -40.939  53.823 -54.560  1.00  0.00    -0.274 OA
HETATM   13  C   UNL     1     -40.271  51.578 -54.181  1.00  0.00     0.076 A 
HETATM   14  C   UNL     1     -40.879  55.141 -54.156  1.00  0.00     0.295 C 
HETATM   15  O   UNL     1     -40.643  56.043 -54.954  1.00  0.00    -0.259 OA
HETATM   16  C   UNL     1     -39.803  50.577 -53.338  1.00  0.00     0.090 A 
HETATM   17  C   UNL     1     -39.639  50.837 -51.974  1.00  0.00     0.068 A 
HETATM   18 CL   UNL     1     -39.027  49.633 -50.899  1.00  0.00    -0.081 Cl
BRANCH  16  19
HETATM   19  O   UNL     1     -39.492  49.347 -53.844  1.00  0.00    -0.359 OA
HETATM   20  H   UNL     1     -40.052  49.160 -54.617  1.00  0.00     0.218 HD
ENDBRANCH  16  19
ENDBRANCH   5   6
ENDBRANCH   1   5
BRANCH   2  21
HETATM   21  C   UNL     1     -43.722  58.704 -54.877  1.00  0.00     0.127 C 
BRANCH  21  22
HETATM   22  C   UNL     1     -43.721  57.878 -56.166  1.00  0.00     0.060 C 
BRANCH  22  23
HETATM   23  C   UNL     1     -44.838  58.304 -57.072  1.00  0.00    -0.029 A 
HETATM   24  C   UNL     1     -45.252  57.666 -58.286  1.00  0.00    -0.000 A 
HETATM   25  C   UNL     1     -46.369  58.354 -58.761  1.00  0.00     0.043 A 
HETATM   26  C   UNL     1     -44.787  56.553 -59.018  1.00  0.00     0.038 A 
HETATM   27  C   UNL     1     -47.053  57.985 -59.926  1.00  0.00     0.032 A 
HETATM   28  N   UNL     1     -46.613  59.383 -57.880  1.00  0.00    -0.365 N 
HETATM   29  C   UNL     1     -46.572  56.880 -60.635  1.00  0.00     0.026 A 
HETATM   30  C   UNL     1     -45.456  56.179 -60.187  1.00  0.00     0.035 A 
HETATM   31 CL   UNL     1     -44.889  54.823 -61.088  1.00  0.00    -0.084 Cl
HETATM   32  H   UNL     1     -47.369  60.047 -57.971  1.00  0.00     0.165 HD
HETATM   33  C   UNL     1     -45.699  59.363 -56.864  1.00  0.00     0.096 A 
ENDBRANCH  22  23
ENDBRANCH  21  22
ENDBRANCH   2  21
TORSDOF 6
ENDMDL
