MODEL 1
REMARK VINA RESULT:      -8.6      0.000      0.000
REMARK  10 active torsions:
REMARK  status: ('A' for Active; 'I' for Inactive)
REMARK    1  A    between atoms: C_2  and  N_3 
REMARK    2  A    between atoms: N_3  and  C_4 
REMARK    3  A    between atoms: N_3  and  C_37 
REMARK    4  A    between atoms: C_7  and  C_8 
REMARK    5  A    between atoms: N_9  and  C_11 
REMARK    6  A    between atoms: C_11  and  C_12 
REMARK       I    between atoms: C_12  and  N_13 
REMARK    7  A    between atoms: N_13  and  C_14 
REMARK    8  A    between atoms: C_20  and  C_21 
REMARK    9  A    between atoms: C_21  and  O_22 
REMARK   10  A    between atoms: C_28  and  O_29 
ROOT
HETATM    1  C   UNL     1     -40.591  53.586 -52.798  1.00  0.00     0.228 C 
HETATM    2  N   UNL     1     -41.104  54.053 -51.434  1.00  0.00    -0.054 N 
HETATM    3  H   UNL     1     -40.730  55.008 -51.402  1.00  0.00     0.281 HD
HETATM    4  C   UNL     1     -40.416  53.376 -50.275  1.00  0.00     0.239 C 
HETATM    5  C   UNL     1     -40.325  51.864 -50.400  1.00  0.00     0.066 C 
HETATM    6  C   UNL     1     -39.776  51.425 -51.756  1.00  0.00     0.065 C 
HETATM    7  C   UNL     1     -40.590  52.045 -52.912  1.00  0.00     0.055 C 
HETATM    8  C   UNL     1     -39.758  49.888 -51.864  1.00  0.00     0.038 C 
HETATM    9  C   UNL     1     -39.227  49.415 -53.216  1.00  0.00     0.003 C 
HETATM   10  C   UNL     1     -39.991  50.047 -54.370  1.00  0.00     0.001 C 
HETATM   11  C   UNL     1     -40.016  51.569 -54.269  1.00  0.00     0.010 C 
ENDROOT
BRANCH   2  12
HETATM   12  C   UNL     1     -42.602  54.311 -51.237  1.00  0.00     0.338 C 
BRANCH  12  13
HETATM   13  C   UNL     1     -43.236  55.573 -51.829  1.00  0.00     0.248 C 
HETATM   14  N   UNL     1     -42.812  56.724 -51.192  1.00  0.00    -0.319 N 
HETATM   15  H   UNL     1     -42.471  56.680 -50.237  1.00  0.00     0.169 HD
HETATM   16  O   UNL     1     -44.078  55.526 -52.718  1.00  0.00    -0.271 OA
BRANCH  14  17
HETATM   17  C   UNL     1     -43.095  58.003 -51.626  1.00  0.00     0.094 A 
HETATM   18  S   UNL     1     -44.715  58.401 -51.301  1.00  0.00    -0.076 SA
HETATM   19  C   UNL     1     -44.570  59.923 -52.052  1.00  0.00    -0.012 A 
HETATM   20  C   UNL     1     -45.768  60.815 -52.133  1.00  0.00     0.057 C 
HETATM   21  C   UNL     1     -43.271  60.175 -52.467  1.00  0.00    -0.030 A 
HETATM   22  C   UNL     1     -42.815  61.482 -53.046  1.00  0.00     0.050 C 
HETATM   23  C   UNL     1     -42.391  59.032 -52.224  1.00  0.00     0.080 A 
BRANCH  23  24
HETATM   24  C   UNL     1     -40.948  59.022 -52.469  1.00  0.00     0.296 C 
HETATM   25  O   UNL     1     -40.452  59.274 -53.561  1.00  0.00    -0.259 OA
BRANCH  24  26
HETATM   26  O   UNL     1     -40.230  58.648 -51.373  1.00  0.00    -0.322 OA
HETATM   27  C   UNL     1     -40.127  59.660 -50.372  1.00  0.00     0.213 C 
ENDBRANCH  24  26
ENDBRANCH  23  24
ENDBRANCH  14  17
ENDBRANCH  12  13
ENDBRANCH   2  12
BRANCH   1  28
HETATM   28  C   UNL     1     -41.193  54.330 -53.979  1.00  0.00    -0.027 A 
HETATM   29  C   UNL     1     -42.196  53.731 -54.750  1.00  0.00     0.011 A 
HETATM   30  C   UNL     1     -42.896  54.467 -55.721  1.00  0.00     0.030 A 
HETATM   31  C   UNL     1     -42.635  55.821 -55.980  1.00  0.00     0.030 A 
HETATM   32  C   UNL     1     -41.555  56.366 -55.271  1.00  0.00     0.030 A 
HETATM   33  C   UNL     1     -40.868  55.652 -54.281  1.00  0.00     0.011 A 
BRANCH  31  34
HETATM   34  N   UNL     1     -43.392  56.584 -56.866  1.00  0.00    -0.382 N 
BRANCH  34  35
HETATM   35  C   UNL     1     -43.347  56.305 -58.314  1.00  0.00     0.118 C 
HETATM   36  C   UNL     1     -44.565  56.896 -59.006  1.00  0.00     0.026 C 
ENDBRANCH  34  35
BRANCH  34  37
HETATM   37  C   UNL     1     -43.930  57.903 -56.498  1.00  0.00     0.118 C 
HETATM   38  C   UNL     1     -44.875  57.804 -55.310  1.00  0.00     0.026 C 
ENDBRANCH  34  37
ENDBRANCH  31  34
ENDBRANCH   1  28
BRANCH   6  39
HETATM   39  O   UNL     1     -38.433  51.927 -51.830  1.00  0.00    -0.389 OA
HETATM   40  H   UNL     1     -38.102  51.811 -52.741  1.00  0.00     0.210 HD
ENDBRANCH   6  39
TORSDOF 10
ENDMDL
MODEL 2
REMARK VINA RESULT:      -8.0      2.182      3.101
REMARK  10 active torsions:
REMARK  status: ('A' for Active; 'I' for Inactive)
REMARK    1  A    between atoms: C_2  and  N_3 
REMARK    2  A    between atoms: N_3  and  C_4 
REMARK    3  A    between atoms: N_3  and  C_37 
REMARK    4  A    between atoms: C_7  and  C_8 
REMARK    5  A    between atoms: N_9  and  C_11 
REMARK    6  A    between atoms: C_11  and  C_12 
REMARK       I    between atoms: C_12  and  N_13 
REMARK    7  A    between atoms: N_13  and  C_14 
REMARK    8  A    between atoms: C_20  and  C_21 
REMARK    9  A    between atoms: C_21  and  O_22 
REMARK   10  A    between atoms: C_28  and  O_29 
ROOT
HETATM    1  C   UNL     1     -41.352  55.235 -51.974  1.00  0.00     0.228 C 
HETATM    2  N   UNL     1     -42.058  55.834 -50.755  1.00  0.00    -0.054 N 
HETATM    3  H   UNL     1     -41.785  56.820 -50.837  1.00  0.00     0.281 HD
HETATM    4  C   UNL     1     -41.442  55.416 -49.444  1.00  0.00     0.239 C 
HETATM    5  C   UNL     1     -41.190  53.922 -49.320  1.00  0.00     0.066 C 
HETATM    6  C   UNL     1     -40.452  53.355 -50.531  1.00  0.00     0.065 C 
HETATM    7  C   UNL     1     -41.187  53.704 -51.844  1.00  0.00     0.055 C 
HETATM    8  C   UNL     1     -40.272  51.831 -50.395  1.00  0.00     0.038 C 
HETATM    9  C   UNL     1     -39.549  51.229 -51.599  1.00  0.00     0.003 C 
HETATM   10  C   UNL     1     -40.236  51.596 -52.906  1.00  0.00     0.001 C 
HETATM   11  C   UNL     1     -40.421  53.103 -53.048  1.00  0.00     0.010 C 
ENDROOT
BRANCH   2  12
HETATM   12  C   UNL     1     -43.586  55.946 -50.746  1.00  0.00     0.338 C 
BRANCH  12  13
HETATM   13  C   UNL     1     -44.246  57.309 -50.980  1.00  0.00     0.248 C 
HETATM   14  N   UNL     1     -43.333  58.347 -50.951  1.00  0.00    -0.319 N 
HETATM   15  H   UNL     1     -42.460  58.242 -50.444  1.00  0.00     0.169 HD
HETATM   16  O   UNL     1     -45.458  57.436 -51.102  1.00  0.00    -0.271 OA
BRANCH  14  17
HETATM   17  C   UNL     1     -43.628  59.652 -51.293  1.00  0.00     0.094 A 
HETATM   18  S   UNL     1     -43.076  59.997 -52.862  1.00  0.00    -0.076 SA
HETATM   19  C   UNL     1     -43.578  61.622 -52.761  1.00  0.00    -0.012 A 
HETATM   20  C   UNL     1     -43.317  62.541 -53.913  1.00  0.00     0.057 C 
HETATM   21  C   UNL     1     -44.251  61.884 -51.577  1.00  0.00    -0.030 A 
HETATM   22  C   UNL     1     -44.916  63.192 -51.263  1.00  0.00     0.050 C 
HETATM   23  C   UNL     1     -44.275  60.717 -50.696  1.00  0.00     0.080 A 
BRANCH  23  24
HETATM   24  C   UNL     1     -44.985  60.650 -49.418  1.00  0.00     0.296 C 
HETATM   25  O   UNL     1     -46.094  60.142 -49.293  1.00  0.00    -0.259 OA
BRANCH  24  26
HETATM   26  O   UNL     1     -44.309  61.263 -48.405  1.00  0.00    -0.322 OA
HETATM   27  C   UNL     1     -45.125  62.096 -47.583  1.00  0.00     0.213 C 
ENDBRANCH  24  26
ENDBRANCH  23  24
ENDBRANCH  14  17
ENDBRANCH  12  13
ENDBRANCH   2  12
BRANCH   1  28
HETATM   28  C   UNL     1     -41.887  55.725 -53.309  1.00  0.00    -0.027 A 
HETATM   29  C   UNL     1     -41.333  56.856 -53.917  1.00  0.00     0.011 A 
HETATM   30  C   UNL     1     -41.680  57.213 -55.231  1.00  0.00     0.030 A 
HETATM   31  C   UNL     1     -42.593  56.475 -56.001  1.00  0.00     0.030 A 
HETATM   32  C   UNL     1     -43.214  55.412 -55.331  1.00  0.00     0.030 A 
HETATM   33  C   UNL     1     -42.856  55.029 -54.031  1.00  0.00     0.011 A 
BRANCH  31  34
HETATM   34  N   UNL     1     -42.865  56.762 -57.336  1.00  0.00    -0.382 N 
BRANCH  34  35
HETATM   35  C   UNL     1     -43.190  58.140 -57.752  1.00  0.00     0.118 C 
HETATM   36  C   UNL     1     -44.604  58.503 -57.328  1.00  0.00     0.026 C 
ENDBRANCH  34  35
BRANCH  34  37
HETATM   37  C   UNL     1     -43.238  55.712 -58.299  1.00  0.00     0.118 C 
HETATM   38  C   UNL     1     -42.731  56.038 -59.696  1.00  0.00     0.026 C 
ENDBRANCH  34  37
ENDBRANCH  31  34
ENDBRANCH   1  28
BRANCH   6  39
HETATM   39  O   UNL     1     -39.165  53.990 -50.554  1.00  0.00    -0.389 OA
HETATM   40  H   UNL     1     -38.575  53.530 -49.926  1.00  0.00     0.210 HD
ENDBRANCH   6  39
TORSDOF 10
ENDMDL
MODEL 3
REMARK VINA RESULT:      -7.8      2.325      6.589
REMARK  10 active torsions:
REMARK  status: ('A' for Active; 'I' for Inactive)
REMARK    1  A    between atoms: C_2  and  N_3 
REMARK    2  A    between atoms: N_3  and  C_4 
REMARK    3  A    between atoms: N_3  and  C_37 
REMARK    4  A    between atoms: C_7  and  C_8 
REMARK    5  A    between atoms: N_9  and  C_11 
REMARK    6  A    between atoms: C_11  and  C_12 
REMARK       I    between atoms: C_12  and  N_13 
REMARK    7  A    between atoms: N_13  and  C_14 
REMARK    8  A    between atoms: C_20  and  C_21 
REMARK    9  A    between atoms: C_21  and  O_22 
REMARK   10  A    between atoms: C_28  and  O_29 
ROOT
HETATM    1  C   UNL     1     -43.512  56.682 -55.946  1.00  0.00     0.228 C 
HETATM    2  N   UNL     1     -43.488  58.000 -55.167  1.00  0.00    -0.054 N 
HETATM    3  H   UNL     1     -44.040  57.747 -54.340  1.00  0.00     0.281 HD
HETATM    4  C   UNL     1     -44.311  59.088 -55.810  1.00  0.00     0.239 C 
HETATM    5  C   UNL     1     -44.061  59.263 -57.299  1.00  0.00     0.066 C 
HETATM    6  C   UNL     1     -44.127  57.939 -58.059  1.00  0.00     0.065 C 
HETATM    7  C   UNL     1     -43.175  56.894 -57.439  1.00  0.00     0.055 C 
HETATM    8  C   UNL     1     -43.808  58.152 -59.551  1.00  0.00     0.038 C 
HETATM    9  C   UNL     1     -43.851  56.843 -60.339  1.00  0.00     0.003 C 
HETATM   10  C   UNL     1     -42.949  55.787 -59.719  1.00  0.00     0.001 C 
HETATM   11  C   UNL     1     -43.256  55.572 -58.240  1.00  0.00     0.010 C 
ENDROOT
BRANCH   2  12
HETATM   12  C   UNL     1     -42.181  58.472 -54.522  1.00  0.00     0.338 C 
BRANCH  12  13
HETATM   13  C   UNL     1     -42.224  59.222 -53.187  1.00  0.00     0.248 C 
HETATM   14  N   UNL     1     -43.394  59.942 -53.026  1.00  0.00    -0.319 N 
HETATM   15  H   UNL     1     -43.922  60.241 -53.839  1.00  0.00     0.169 HD
HETATM   16  O   UNL     1     -41.280  59.223 -52.406  1.00  0.00    -0.271 OA
BRANCH  14  17
HETATM   17  C   UNL     1     -43.764  60.571 -51.854  1.00  0.00     0.094 A 
HETATM   18  S   UNL     1     -43.131  62.146 -51.795  1.00  0.00    -0.076 SA
HETATM   19  C   UNL     1     -43.764  62.422 -50.237  1.00  0.00    -0.012 A 
HETATM   20  C   UNL     1     -43.495  63.728 -49.559  1.00  0.00     0.057 C 
HETATM   21  C   UNL     1     -44.538  61.359 -49.797  1.00  0.00    -0.030 A 
HETATM   22  C   UNL     1     -45.325  61.368 -48.519  1.00  0.00     0.050 C 
HETATM   23  C   UNL     1     -44.534  60.251 -50.752  1.00  0.00     0.080 A 
BRANCH  23  24
HETATM   24  C   UNL     1     -45.327  59.028 -50.615  1.00  0.00     0.296 C 
HETATM   25  O   UNL     1     -46.126  58.846 -49.703  1.00  0.00    -0.259 OA
BRANCH  24  26
HETATM   26  O   UNL     1     -45.036  58.101 -51.571  1.00  0.00    -0.322 OA
HETATM   27  C   UNL     1     -44.332  56.961 -51.079  1.00  0.00     0.213 C 
ENDBRANCH  24  26
ENDBRANCH  23  24
ENDBRANCH  14  17
ENDBRANCH  12  13
ENDBRANCH   2  12
BRANCH   1  28
HETATM   28  C   UNL     1     -42.777  55.541 -55.264  1.00  0.00    -0.027 A 
HETATM   29  C   UNL     1     -41.478  55.205 -55.659  1.00  0.00     0.011 A 
HETATM   30  C   UNL     1     -40.713  54.286 -54.920  1.00  0.00     0.030 A 
HETATM   31  C   UNL     1     -41.198  53.652 -53.766  1.00  0.00     0.030 A 
HETATM   32  C   UNL     1     -42.538  53.923 -53.455  1.00  0.00     0.030 A 
HETATM   33  C   UNL     1     -43.301  54.858 -54.167  1.00  0.00     0.011 A 
BRANCH  31  34
HETATM   34  N   UNL     1     -40.413  52.819 -52.971  1.00  0.00    -0.382 N 
BRANCH  34  35
HETATM   35  C   UNL     1     -40.122  53.182 -51.572  1.00  0.00     0.118 C 
HETATM   36  C   UNL     1     -40.202  51.956 -50.677  1.00  0.00     0.026 C 
ENDBRANCH  34  35
BRANCH  34  37
HETATM   37  C   UNL     1     -39.529  51.795 -53.551  1.00  0.00     0.118 C 
HETATM   38  C   UNL     1     -40.328  50.697 -54.235  1.00  0.00     0.026 C 
ENDBRANCH  34  37
ENDBRANCH  31  34
ENDBRANCH   1  28
BRANCH   6  39
HETATM   39  O   UNL     1     -45.473  57.461 -57.920  1.00  0.00    -0.389 OA
HETATM   40  H   UNL     1     -45.892  57.433 -58.802  1.00  0.00     0.210 HD
ENDBRANCH   6  39
TORSDOF 10
ENDMDL
MODEL 4
REMARK VINA RESULT:      -7.8      2.586      7.721
REMARK  10 active torsions:
REMARK  status: ('A' for Active; 'I' for Inactive)
REMARK    1  A    between atoms: C_2  and  N_3 
REMARK    2  A    between atoms: N_3  and  C_4 
REMARK    3  A    between atoms: N_3  and  C_37 
REMARK    4  A    between atoms: C_7  and  C_8 
REMARK    5  A    between atoms: N_9  and  C_11 
REMARK    6  A    between atoms: C_11  and  C_12 
REMARK       I    between atoms: C_12  and  N_13 
REMARK    7  A    between atoms: N_13  and  C_14 
REMARK    8  A    between atoms: C_20  and  C_21 
REMARK    9  A    between atoms: C_21  and  O_22 
REMARK   10  A    between atoms: C_28  and  O_29 
ROOT
HETATM    1  C   UNL     1     -43.757  57.485 -57.779  1.00  0.00     0.228 C 
HETATM    2  N   UNL     1     -42.963  56.177 -57.842  1.00  0.00    -0.054 N 
HETATM    3  H   UNL     1     -42.018  56.513 -57.624  1.00  0.00     0.281 HD
HETATM    4  C   UNL     1     -42.820  55.633 -59.242  1.00  0.00     0.239 C 
HETATM    5  C   UNL     1     -44.119  55.588 -60.030  1.00  0.00     0.066 C 
HETATM    6  C   UNL     1     -44.875  56.915 -59.982  1.00  0.00     0.065 C 
HETATM    7  C   UNL     1     -45.106  57.371 -58.525  1.00  0.00     0.055 C 
HETATM    8  C   UNL     1     -46.211  56.808 -60.740  1.00  0.00     0.038 C 
HETATM    9  C   UNL     1     -47.000  58.116 -60.699  1.00  0.00     0.003 C 
HETATM   10  C   UNL     1     -47.204  58.603 -59.272  1.00  0.00     0.001 C 
HETATM   11  C   UNL     1     -45.884  58.709 -58.513  1.00  0.00     0.010 C 
ENDROOT
BRANCH   2  12
HETATM   12  C   UNL     1     -43.163  55.118 -56.753  1.00  0.00     0.338 C 
BRANCH  12  13
HETATM   13  C   UNL     1     -42.204  55.071 -55.559  1.00  0.00     0.248 C 
HETATM   14  N   UNL     1     -42.549  54.090 -54.647  1.00  0.00    -0.319 N 
HETATM   15  H   UNL     1     -43.507  53.761 -54.592  1.00  0.00     0.169 HD
HETATM   16  O   UNL     1     -41.290  55.874 -55.422  1.00  0.00    -0.271 OA
BRANCH  14  17
HETATM   17  C   UNL     1     -41.769  53.722 -53.569  1.00  0.00     0.094 A 
HETATM   18  S   UNL     1     -40.723  52.451 -53.995  1.00  0.00    -0.076 SA
HETATM   19  C   UNL     1     -40.099  52.336 -52.414  1.00  0.00    -0.012 A 
HETATM   20  C   UNL     1     -39.077  51.289 -52.106  1.00  0.00     0.057 C 
HETATM   21  C   UNL     1     -40.610  53.321 -51.582  1.00  0.00    -0.030 A 
HETATM   22  C   UNL     1     -40.151  53.547 -50.171  1.00  0.00     0.050 C 
HETATM   23  C   UNL     1     -41.611  54.143 -52.263  1.00  0.00     0.080 A 
BRANCH  23  24
HETATM   24  C   UNL     1     -42.264  55.317 -51.680  1.00  0.00     0.296 C 
HETATM   25  O   UNL     1     -43.309  55.254 -51.043  1.00  0.00    -0.259 OA
BRANCH  24  26
HETATM   26  O   UNL     1     -41.616  56.480 -51.973  1.00  0.00    -0.322 OA
HETATM   27  C   UNL     1     -41.002  57.102 -50.846  1.00  0.00     0.213 C 
ENDBRANCH  24  26
ENDBRANCH  23  24
ENDBRANCH  14  17
ENDBRANCH  12  13
ENDBRANCH   2  12
BRANCH   1  28
HETATM   28  C   UNL     1     -43.825  58.108 -56.395  1.00  0.00    -0.027 A 
HETATM   29  C   UNL     1     -44.843  57.743 -55.508  1.00  0.00     0.011 A 
HETATM   30  C   UNL     1     -44.816  58.160 -54.166  1.00  0.00     0.030 A 
HETATM   31  C   UNL     1     -43.789  58.959 -53.642  1.00  0.00     0.030 A 
HETATM   32  C   UNL     1     -42.840  59.399 -54.575  1.00  0.00     0.030 A 
HETATM   33  C   UNL     1     -42.841  58.968 -55.909  1.00  0.00     0.011 A 
BRANCH  31  34
HETATM   34  N   UNL     1     -43.700  59.291 -52.292  1.00  0.00    -0.382 N 
BRANCH  34  35
HETATM   35  C   UNL     1     -44.460  58.527 -51.285  1.00  0.00     0.118 C 
HETATM   36  C   UNL     1     -45.727  59.272 -50.898  1.00  0.00     0.026 C 
ENDBRANCH  34  35
BRANCH  34  37
HETATM   37  C   UNL     1     -43.205  60.602 -51.842  1.00  0.00     0.118 C 
HETATM   38  C   UNL     1     -42.300  60.466 -50.628  1.00  0.00     0.026 C 
ENDBRANCH  34  37
ENDBRANCH  31  34
ENDBRANCH   1  28
BRANCH   6  39
HETATM   39  O   UNL     1     -44.033  57.882 -60.628  1.00  0.00    -0.389 OA
HETATM   40  H   UNL     1     -44.591  58.484 -61.156  1.00  0.00     0.210 HD
ENDBRANCH   6  39
TORSDOF 10
ENDMDL
MODEL 5
REMARK VINA RESULT:      -7.7      3.492      8.159
REMARK  10 active torsions:
REMARK  status: ('A' for Active; 'I' for Inactive)
REMARK    1  A    between atoms: C_2  and  N_3 
REMARK    2  A    between atoms: N_3  and  C_4 
REMARK    3  A    between atoms: N_3  and  C_37 
REMARK    4  A    between atoms: C_7  and  C_8 
REMARK    5  A    between atoms: N_9  and  C_11 
REMARK    6  A    between atoms: C_11  and  C_12 
REMARK       I    between atoms: C_12  and  N_13 
REMARK    7  A    between atoms: N_13  and  C_14 
REMARK    8  A    between atoms: C_20  and  C_21 
REMARK    9  A    between atoms: C_21  and  O_22 
REMARK   10  A    between atoms: C_28  and  O_29 
ROOT
HETATM    1  C   UNL     1     -42.077  56.725 -55.507  1.00  0.00     0.228 C 
HETATM    2  N   UNL     1     -42.193  57.002 -57.008  1.00  0.00    -0.054 N 
HETATM    3  H   UNL     1     -41.214  56.907 -57.299  1.00  0.00     0.281 HD
HETATM    4  C   UNL     1     -42.507  58.442 -57.326  1.00  0.00     0.239 C 
HETATM    5  C   UNL     1     -43.653  59.025 -56.515  1.00  0.00     0.066 C 
HETATM    6  C   UNL     1     -43.496  58.767 -55.018  1.00  0.00     0.065 C 
HETATM    7  C   UNL     1     -43.300  57.263 -54.730  1.00  0.00     0.055 C 
HETATM    8  C   UNL     1     -44.707  59.319 -54.241  1.00  0.00     0.038 C 
HETATM    9  C   UNL     1     -44.587  59.065 -52.738  1.00  0.00     0.003 C 
HETATM   10  C   UNL     1     -44.353  57.592 -52.437  1.00  0.00     0.001 C 
HETATM   11  C   UNL     1     -43.158  57.037 -53.205  1.00  0.00     0.010 C 
ENDROOT
BRANCH   2  12
HETATM   12  C   UNL     1     -42.877  55.974 -57.915  1.00  0.00     0.338 C 
BRANCH  12  13
HETATM   13  C   UNL     1     -43.669  56.451 -59.136  1.00  0.00     0.248 C 
HETATM   14  N   UNL     1     -44.994  56.709 -58.835  1.00  0.00    -0.319 N 
HETATM   15  H   UNL     1     -45.433  56.253 -58.042  1.00  0.00     0.169 HD
HETATM   16  O   UNL     1     -43.173  56.515 -60.254  1.00  0.00    -0.271 OA
BRANCH  14  17
HETATM   17  C   UNL     1     -45.887  57.305 -59.703  1.00  0.00     0.094 A 
HETATM   18  S   UNL     1     -46.978  56.158 -60.319  1.00  0.00    -0.076 SA
HETATM   19  C   UNL     1     -47.740  57.310 -61.317  1.00  0.00    -0.012 A 
HETATM   20  C   UNL     1     -48.856  56.876 -62.214  1.00  0.00     0.057 C 
HETATM   21  C   UNL     1     -47.235  58.585 -61.116  1.00  0.00    -0.030 A 
HETATM   22  C   UNL     1     -47.794  59.820 -61.760  1.00  0.00     0.050 C 
HETATM   23  C   UNL     1     -46.125  58.586 -60.163  1.00  0.00     0.080 A 
BRANCH  23  24
HETATM   24  C   UNL     1     -45.444  59.787 -59.676  1.00  0.00     0.296 C 
HETATM   25  O   UNL     1     -45.950  60.566 -58.875  1.00  0.00    -0.259 OA
BRANCH  24  26
HETATM   26  O   UNL     1     -44.222  59.971 -60.252  1.00  0.00    -0.322 OA
HETATM   27  C   UNL     1     -43.547  61.151 -59.818  1.00  0.00     0.213 C 
ENDBRANCH  24  26
ENDBRANCH  23  24
ENDBRANCH  14  17
ENDBRANCH  12  13
ENDBRANCH   2  12
BRANCH   1  28
HETATM   28  C   UNL     1     -41.657  55.306 -55.164  1.00  0.00    -0.027 A 
HETATM   29  C   UNL     1     -40.301  54.972 -55.086  1.00  0.00     0.011 A 
HETATM   30  C   UNL     1     -39.891  53.723 -54.588  1.00  0.00     0.030 A 
HETATM   31  C   UNL     1     -40.799  52.747 -54.152  1.00  0.00     0.030 A 
HETATM   32  C   UNL     1     -42.152  53.063 -54.342  1.00  0.00     0.030 A 
HETATM   33  C   UNL     1     -42.573  54.315 -54.812  1.00  0.00     0.011 A 
BRANCH  31  34
HETATM   34  N   UNL     1     -40.401  51.549 -53.564  1.00  0.00    -0.382 N 
BRANCH  34  35
HETATM   35  C   UNL     1     -39.514  51.557 -52.385  1.00  0.00     0.118 C 
HETATM   36  C   UNL     1     -40.031  52.529 -51.338  1.00  0.00     0.026 C 
ENDBRANCH  34  35
BRANCH  34  37
HETATM   37  C   UNL     1     -40.487  50.264 -54.275  1.00  0.00     0.118 C 
HETATM   38  C   UNL     1     -39.112  49.777 -54.708  1.00  0.00     0.026 C 
ENDBRANCH  34  37
ENDBRANCH  31  34
ENDBRANCH   1  28
BRANCH   6  39
HETATM   39  O   UNL     1     -42.307  59.463 -54.611  1.00  0.00    -0.389 OA
HETATM   40  H   UNL     1     -42.562  60.236 -54.072  1.00  0.00     0.210 HD
ENDBRANCH   6  39
TORSDOF 10
ENDMDL
MODEL 6
REMARK VINA RESULT:      -7.6      3.454      8.125
REMARK  10 active torsions:
REMARK  status: ('A' for Active; 'I' for Inactive)
REMARK    1  A    between atoms: C_2  and  N_3 
REMARK    2  A    between atoms: N_3  and  C_4 
REMARK    3  A    between atoms: N_3  and  C_37 
REMARK    4  A    between atoms: C_7  and  C_8 
REMARK    5  A    between atoms: N_9  and  C_11 
REMARK    6  A    between atoms: C_11  and  C_12 
REMARK       I    between atoms: C_12  and  N_13 
REMARK    7  A    between atoms: N_13  and  C_14 
REMARK    8  A    between atoms: C_20  and  C_21 
REMARK    9  A    between atoms: C_21  and  O_22 
REMARK   10  A    between atoms: C_28  and  O_29 
ROOT
HETATM    1  C   UNL     1     -42.445  57.133 -54.550  1.00  0.00     0.228 C 
HETATM    2  N   UNL     1     -42.692  57.640 -55.973  1.00  0.00    -0.054 N 
HETATM    3  H   UNL     1     -41.733  57.670 -56.338  1.00  0.00     0.281 HD
HETATM    4  C   UNL     1     -43.125  59.084 -56.025  1.00  0.00     0.239 C 
HETATM    5  C   UNL     1     -44.243  59.435 -55.057  1.00  0.00     0.066 C 
HETATM    6  C   UNL     1     -43.957  58.951 -53.637  1.00  0.00     0.065 C 
HETATM    7  C   UNL     1     -43.640  57.440 -53.618  1.00  0.00     0.055 C 
HETATM    8  C   UNL     1     -45.139  59.272 -52.704  1.00  0.00     0.038 C 
HETATM    9  C   UNL     1     -44.891  58.787 -51.276  1.00  0.00     0.003 C 
HETATM   10  C   UNL     1     -44.537  57.307 -51.241  1.00  0.00     0.001 C 
HETATM   11  C   UNL     1     -43.369  56.980 -52.165  1.00  0.00     0.010 C 
ENDROOT
BRANCH   2  12
HETATM   12  C   UNL     1     -43.372  56.723 -56.995  1.00  0.00     0.338 C 
BRANCH  12  13
HETATM   13  C   UNL     1     -44.029  57.332 -58.238  1.00  0.00     0.248 C 
HETATM   14  N   UNL     1     -45.408  57.358 -58.143  1.00  0.00    -0.319 N 
HETATM   15  H   UNL     1     -45.889  56.703 -57.536  1.00  0.00     0.169 HD
HETATM   16  O   UNL     1     -43.381  57.677 -59.218  1.00  0.00    -0.271 OA
BRANCH  14  17
HETATM   17  C   UNL     1     -46.237  58.000 -59.042  1.00  0.00     0.094 A 
HETATM   18  S   UNL     1     -46.423  59.636 -58.622  1.00  0.00    -0.076 SA
HETATM   19  C   UNL     1     -47.515  59.916 -59.900  1.00  0.00    -0.012 A 
HETATM   20  C   UNL     1     -48.119  61.275 -60.060  1.00  0.00     0.057 C 
HETATM   21  C   UNL     1     -47.668  58.798 -60.706  1.00  0.00    -0.030 A 
HETATM   22  C   UNL     1     -48.467  58.784 -61.976  1.00  0.00     0.050 C 
HETATM   23  C   UNL     1     -46.917  57.652 -60.194  1.00  0.00     0.080 A 
BRANCH  23  24
HETATM   24  C   UNL     1     -46.805  56.358 -60.869  1.00  0.00     0.296 C 
HETATM   25  O   UNL     1     -47.406  56.088 -61.903  1.00  0.00    -0.259 OA
BRANCH  24  26
HETATM   26  O   UNL     1     -46.013  55.477 -60.195  1.00  0.00    -0.322 OA
HETATM   27  C   UNL     1     -44.959  54.924 -60.982  1.00  0.00     0.213 C 
ENDBRANCH  24  26
ENDBRANCH  23  24
ENDBRANCH  14  17
ENDBRANCH  12  13
ENDBRANCH   2  12
BRANCH   1  28
HETATM   28  C   UNL     1     -41.907  55.713 -54.478  1.00  0.00    -0.027 A 
HETATM   29  C   UNL     1     -40.573  55.449 -54.805  1.00  0.00     0.011 A 
HETATM   30  C   UNL     1     -40.007  54.186 -54.565  1.00  0.00     0.030 A 
HETATM   31  C   UNL     1     -40.731  53.126 -53.997  1.00  0.00     0.030 A 
HETATM   32  C   UNL     1     -42.092  53.384 -53.779  1.00  0.00     0.030 A 
HETATM   33  C   UNL     1     -42.662  54.647 -53.989  1.00  0.00     0.011 A 
BRANCH  31  34
HETATM   34  N   UNL     1     -40.152  51.905 -53.662  1.00  0.00    -0.382 N 
BRANCH  34  35
HETATM   35  C   UNL     1     -40.505  50.682 -54.408  1.00  0.00     0.118 C 
HETATM   36  C   UNL     1     -39.520  49.568 -54.097  1.00  0.00     0.026 C 
ENDBRANCH  34  35
BRANCH  34  37
HETATM   37  C   UNL     1     -39.508  51.680 -52.358  1.00  0.00     0.118 C 
HETATM   38  C   UNL     1     -39.993  52.680 -51.320  1.00  0.00     0.026 C 
ENDBRANCH  34  37
ENDBRANCH  31  34
ENDBRANCH   1  28
BRANCH   6  39
HETATM   39  O   UNL     1     -42.790  59.661 -53.195  1.00  0.00    -0.389 OA
HETATM   40  H   UNL     1     -42.731  59.597 -52.223  1.00  0.00     0.210 HD
ENDBRANCH   6  39
TORSDOF 10
ENDMDL
MODEL 7
REMARK VINA RESULT:      -7.6      2.358      7.849
REMARK  10 active torsions:
REMARK  status: ('A' for Active; 'I' for Inactive)
REMARK    1  A    between atoms: C_2  and  N_3 
REMARK    2  A    between atoms: N_3  and  C_4 
REMARK    3  A    between atoms: N_3  and  C_37 
REMARK    4  A    between atoms: C_7  and  C_8 
REMARK    5  A    between atoms: N_9  and  C_11 
REMARK    6  A    between atoms: C_11  and  C_12 
REMARK       I    between atoms: C_12  and  N_13 
REMARK    7  A    between atoms: N_13  and  C_14 
REMARK    8  A    between atoms: C_20  and  C_21 
REMARK    9  A    between atoms: C_21  and  O_22 
REMARK   10  A    between atoms: C_28  and  O_29 
ROOT
HETATM    1  C   UNL     1     -43.744  57.532 -57.740  1.00  0.00     0.228 C 
HETATM    2  N   UNL     1     -42.920  56.254 -57.913  1.00  0.00    -0.054 N 
HETATM    3  H   UNL     1     -41.978  56.599 -57.700  1.00  0.00     0.281 HD
HETATM    4  C   UNL     1     -42.805  55.809 -59.350  1.00  0.00     0.239 C 
HETATM    5  C   UNL     1     -44.126  55.782 -60.102  1.00  0.00     0.066 C 
HETATM    6  C   UNL     1     -44.913  57.081 -59.943  1.00  0.00     0.065 C 
HETATM    7  C   UNL     1     -45.112  57.432 -58.453  1.00  0.00     0.055 C 
HETATM    8  C   UNL     1     -46.268  56.989 -60.669  1.00  0.00     0.038 C 
HETATM    9  C   UNL     1     -47.088  58.270 -60.517  1.00  0.00     0.003 C 
HETATM   10  C   UNL     1     -47.261  58.654 -59.055  1.00  0.00     0.001 C 
HETATM   11  C   UNL     1     -45.923  58.744 -58.328  1.00  0.00     0.010 C 
ENDROOT
BRANCH   2  12
HETATM   12  C   UNL     1     -43.060  55.119 -56.893  1.00  0.00     0.338 C 
BRANCH  12  13
HETATM   13  C   UNL     1     -42.219  55.143 -55.613  1.00  0.00     0.248 C 
HETATM   14  N   UNL     1     -42.761  54.358 -54.613  1.00  0.00    -0.319 N 
HETATM   15  H   UNL     1     -43.754  54.151 -54.610  1.00  0.00     0.169 HD
HETATM   16  O   UNL     1     -41.225  55.849 -55.498  1.00  0.00    -0.271 OA
BRANCH  14  17
HETATM   17  C   UNL     1     -42.127  54.069 -53.421  1.00  0.00     0.094 A 
HETATM   18  S   UNL     1     -42.916  54.831 -52.124  1.00  0.00    -0.076 SA
HETATM   19  C   UNL     1     -41.772  54.262 -50.997  1.00  0.00    -0.012 A 
HETATM   20  C   UNL     1     -41.904  54.655 -49.559  1.00  0.00     0.057 C 
HETATM   21  C   UNL     1     -40.843  53.415 -51.583  1.00  0.00    -0.030 A 
HETATM   22  C   UNL     1     -39.793  52.664 -50.818  1.00  0.00     0.050 C 
HETATM   23  C   UNL     1     -41.045  53.304 -53.028  1.00  0.00     0.080 A 
BRANCH  23  24
HETATM   24  C   UNL     1     -40.285  52.418 -53.911  1.00  0.00     0.296 C 
HETATM   25  O   UNL     1     -39.887  52.758 -55.020  1.00  0.00    -0.259 OA
BRANCH  24  26
HETATM   26  O   UNL     1     -40.124  51.168 -53.392  1.00  0.00    -0.322 OA
HETATM   27  C   UNL     1     -40.214  50.122 -54.359  1.00  0.00     0.213 C 
ENDBRANCH  24  26
ENDBRANCH  23  24
ENDBRANCH  14  17
ENDBRANCH  12  13
ENDBRANCH   2  12
BRANCH   1  28
HETATM   28  C   UNL     1     -43.786  58.058 -56.315  1.00  0.00    -0.027 A 
HETATM   29  C   UNL     1     -44.797  57.644 -55.441  1.00  0.00     0.011 A 
HETATM   30  C   UNL     1     -44.747  57.967 -54.074  1.00  0.00     0.030 A 
HETATM   31  C   UNL     1     -43.703  58.717 -53.510  1.00  0.00     0.030 A 
HETATM   32  C   UNL     1     -42.762  59.210 -54.425  1.00  0.00     0.030 A 
HETATM   33  C   UNL     1     -42.786  58.873 -55.785  1.00  0.00     0.011 A 
BRANCH  31  34
HETATM   34  N   UNL     1     -43.592  58.954 -52.142  1.00  0.00    -0.382 N 
BRANCH  34  35
HETATM   35  C   UNL     1     -44.518  59.885 -51.470  1.00  0.00     0.118 C 
HETATM   36  C   UNL     1     -45.521  59.117 -50.624  1.00  0.00     0.026 C 
ENDBRANCH  34  35
BRANCH  34  37
HETATM   37  C   UNL     1     -42.364  58.640 -51.394  1.00  0.00     0.118 C 
HETATM   38  C   UNL     1     -41.723  59.899 -50.829  1.00  0.00     0.026 C 
ENDBRANCH  34  37
ENDBRANCH  31  34
ENDBRANCH   1  28
BRANCH   6  39
HETATM   39  O   UNL     1     -44.115  58.112 -60.546  1.00  0.00    -0.389 OA
HETATM   40  H   UNL     1     -44.650  58.571 -61.222  1.00  0.00     0.210 HD
ENDBRANCH   6  39
TORSDOF 10
ENDMDL
MODEL 8
REMARK VINA RESULT:      -7.4      2.422      7.389
REMARK  10 active torsions:
REMARK  status: ('A' for Active; 'I' for Inactive)
REMARK    1  A    between atoms: C_2  and  N_3 
REMARK    2  A    between atoms: N_3  and  C_4 
REMARK    3  A    between atoms: N_3  and  C_37 
REMARK    4  A    between atoms: C_7  and  C_8 
REMARK    5  A    between atoms: N_9  and  C_11 
REMARK    6  A    between atoms: C_11  and  C_12 
REMARK       I    between atoms: C_12  and  N_13 
REMARK    7  A    between atoms: N_13  and  C_14 
REMARK    8  A    between atoms: C_20  and  C_21 
REMARK    9  A    between atoms: C_21  and  O_22 
REMARK   10  A    between atoms: C_28  and  O_29 
ROOT
HETATM    1  C   UNL     1     -43.967  58.681 -53.848  1.00  0.00     0.228 C 
HETATM    2  N   UNL     1     -43.562  57.370 -53.170  1.00  0.00    -0.054 N 
HETATM    3  H   UNL     1     -44.296  56.739 -53.510  1.00  0.00     0.281 HD
HETATM    4  C   UNL     1     -43.781  57.378 -51.678  1.00  0.00     0.239 C 
HETATM    5  C   UNL     1     -43.241  58.613 -50.974  1.00  0.00     0.066 C 
HETATM    6  C   UNL     1     -43.689  59.909 -51.648  1.00  0.00     0.065 C 
HETATM    7  C   UNL     1     -43.333  59.906 -53.151  1.00  0.00     0.055 C 
HETATM    8  C   UNL     1     -43.072  61.131 -50.943  1.00  0.00     0.038 C 
HETATM    9  C   UNL     1     -43.490  62.445 -51.603  1.00  0.00     0.003 C 
HETATM   10  C   UNL     1     -43.182  62.445 -53.093  1.00  0.00     0.001 C 
HETATM   11  C   UNL     1     -43.788  61.236 -53.799  1.00  0.00     0.010 C 
ENDROOT
BRANCH   2  12
HETATM   12  C   UNL     1     -42.299  56.637 -53.635  1.00  0.00     0.338 C 
BRANCH  12  13
HETATM   13  C   UNL     1     -42.181  55.124 -53.424  1.00  0.00     0.248 C 
HETATM   14  N   UNL     1     -40.866  54.700 -53.379  1.00  0.00    -0.319 N 
HETATM   15  H   UNL     1     -40.140  55.247 -53.830  1.00  0.00     0.169 HD
HETATM   16  O   UNL     1     -43.162  54.392 -53.379  1.00  0.00    -0.271 OA
BRANCH  14  17
HETATM   17  C   UNL     1     -40.472  53.422 -53.037  1.00  0.00     0.094 A 
HETATM   18  S   UNL     1     -40.153  52.501 -54.429  1.00  0.00    -0.076 SA
HETATM   19  C   UNL     1     -39.817  51.102 -53.517  1.00  0.00    -0.012 A 
HETATM   20  C   UNL     1     -39.477  49.830 -54.228  1.00  0.00     0.057 C 
HETATM   21  C   UNL     1     -39.852  51.351 -52.154  1.00  0.00    -0.030 A 
HETATM   22  C   UNL     1     -39.475  50.343 -51.108  1.00  0.00     0.050 C 
HETATM   23  C   UNL     1     -40.250  52.728 -51.863  1.00  0.00     0.080 A 
BRANCH  23  24
HETATM   24  C   UNL     1     -40.292  53.320 -50.524  1.00  0.00     0.296 C 
HETATM   25  O   UNL     1     -40.462  52.661 -49.505  1.00  0.00    -0.259 OA
BRANCH  24  26
HETATM   26  O   UNL     1     -40.179  54.678 -50.545  1.00  0.00    -0.322 OA
HETATM   27  C   UNL     1     -41.201  55.356 -49.813  1.00  0.00     0.213 C 
ENDBRANCH  24  26
ENDBRANCH  23  24
ENDBRANCH  14  17
ENDBRANCH  12  13
ENDBRANCH   2  12
BRANCH   1  28
HETATM   28  C   UNL     1     -43.855  58.660 -55.363  1.00  0.00    -0.027 A 
HETATM   29  C   UNL     1     -42.614  58.851 -55.980  1.00  0.00     0.011 A 
HETATM   30  C   UNL     1     -42.454  58.648 -57.362  1.00  0.00     0.030 A 
HETATM   31  C   UNL     1     -43.511  58.254 -58.196  1.00  0.00     0.030 A 
HETATM   32  C   UNL     1     -44.765  58.175 -57.574  1.00  0.00     0.030 A 
HETATM   33  C   UNL     1     -44.932  58.348 -56.193  1.00  0.00     0.011 A 
BRANCH  31  34
HETATM   34  N   UNL     1     -43.341  57.951 -59.545  1.00  0.00    -0.382 N 
BRANCH  34  35
HETATM   35  C   UNL     1     -42.596  56.744 -59.950  1.00  0.00     0.118 C 
HETATM   36  C   UNL     1     -43.428  55.497 -59.699  1.00  0.00     0.026 C 
ENDBRANCH  34  35
BRANCH  34  37
HETATM   37  C   UNL     1     -43.516  58.963 -60.600  1.00  0.00     0.118 C 
HETATM   38  C   UNL     1     -42.198  59.642 -60.939  1.00  0.00     0.026 C 
ENDBRANCH  34  37
ENDBRANCH  31  34
ENDBRANCH   1  28
BRANCH   6  39
HETATM   39  O   UNL     1     -45.119  59.954 -51.525  1.00  0.00    -0.389 OA
HETATM   40  H   UNL     1     -45.414  60.881 -51.612  1.00  0.00     0.210 HD
ENDBRANCH   6  39
TORSDOF 10
ENDMDL
MODEL 9
REMARK VINA RESULT:      -7.4      3.001      6.476
REMARK  10 active torsions:
REMARK  status: ('A' for Active; 'I' for Inactive)
REMARK    1  A    between atoms: C_2  and  N_3 
REMARK    2  A    between atoms: N_3  and  C_4 
REMARK    3  A    between atoms: N_3  and  C_37 
REMARK    4  A    between atoms: C_7  and  C_8 
REMARK    5  A    between atoms: N_9  and  C_11 
REMARK    6  A    between atoms: C_11  and  C_12 
REMARK       I    between atoms: C_12  and  N_13 
REMARK    7  A    between atoms: N_13  and  C_14 
REMARK    8  A    between atoms: C_20  and  C_21 
REMARK    9  A    between atoms: C_21  and  O_22 
REMARK   10  A    between atoms: C_28  and  O_29 
ROOT
HETATM    1  C   UNL     1     -42.850  56.171 -53.309  1.00  0.00     0.228 C 
HETATM    2  N   UNL     1     -42.757  55.599 -54.726  1.00  0.00    -0.054 N 
HETATM    3  H   UNL     1     -43.715  55.752 -55.061  1.00  0.00     0.281 HD
HETATM    4  C   UNL     1     -42.619  54.097 -54.755  1.00  0.00     0.239 C 
HETATM    5  C   UNL     1     -41.559  53.549 -53.813  1.00  0.00     0.066 C 
HETATM    6  C   UNL     1     -41.695  54.106 -52.398  1.00  0.00     0.065 C 
HETATM    7  C   UNL     1     -41.708  55.650 -52.407  1.00  0.00     0.055 C 
HETATM    8  C   UNL     1     -40.568  53.575 -51.493  1.00  0.00     0.038 C 
HETATM    9  C   UNL     1     -40.667  54.125 -50.071  1.00  0.00     0.003 C 
HETATM   10  C   UNL     1     -40.720  55.646 -50.062  1.00  0.00     0.001 C 
HETATM   11  C   UNL     1     -41.833  56.181 -50.958  1.00  0.00     0.010 C 
ENDROOT
BRANCH   2  12
HETATM   12  C   UNL     1     -41.945  56.345 -55.791  1.00  0.00     0.338 C 
BRANCH  12  13
HETATM   13  C   UNL     1     -42.674  57.153 -56.870  1.00  0.00     0.248 C 
HETATM   14  N   UNL     1     -43.978  56.730 -57.052  1.00  0.00    -0.319 N 
HETATM   15  H   UNL     1     -44.244  55.783 -56.804  1.00  0.00     0.169 HD
HETATM   16  O   UNL     1     -42.112  58.019 -57.529  1.00  0.00    -0.271 OA
BRANCH  14  17
HETATM   17  C   UNL     1     -44.905  57.386 -57.837  1.00  0.00     0.094 A 
HETATM   18  S   UNL     1     -45.789  58.503 -56.912  1.00  0.00    -0.076 SA
HETATM   19  C   UNL     1     -46.769  58.938 -58.236  1.00  0.00    -0.012 A 
HETATM   20  C   UNL     1     -47.861  59.940 -58.040  1.00  0.00     0.057 C 
HETATM   21  C   UNL     1     -46.367  58.310 -59.406  1.00  0.00    -0.030 A 
HETATM   22  C   UNL     1     -46.960  58.592 -60.755  1.00  0.00     0.050 C 
HETATM   23  C   UNL     1     -45.264  57.378 -59.171  1.00  0.00     0.080 A 
BRANCH  23  24
HETATM   24  C   UNL     1     -44.563  56.634 -60.219  1.00  0.00     0.296 C 
HETATM   25  O   UNL     1     -43.494  56.997 -60.697  1.00  0.00    -0.259 OA
BRANCH  24  26
HETATM   26  O   UNL     1     -45.253  55.537 -60.639  1.00  0.00    -0.322 OA
HETATM   27  C   UNL     1     -44.909  54.335 -59.951  1.00  0.00     0.213 C 
ENDBRANCH  24  26
ENDBRANCH  23  24
ENDBRANCH  14  17
ENDBRANCH  12  13
ENDBRANCH   2  12
BRANCH   1  28
HETATM   28  C   UNL     1     -43.095  57.669 -53.256  1.00  0.00    -0.027 A 
HETATM   29  C   UNL     1     -44.401  58.168 -53.223  1.00  0.00     0.011 A 
HETATM   30  C   UNL     1     -44.649  59.530 -52.983  1.00  0.00     0.030 A 
HETATM   31  C   UNL     1     -43.621  60.462 -52.772  1.00  0.00     0.030 A 
HETATM   32  C   UNL     1     -42.321  59.957 -52.917  1.00  0.00     0.030 A 
HETATM   33  C   UNL     1     -42.061  58.596 -53.129  1.00  0.00     0.011 A 
BRANCH  31  34
HETATM   34  N   UNL     1     -43.859  61.791 -52.432  1.00  0.00    -0.382 N 
BRANCH  34  35
HETATM   35  C   UNL     1     -43.233  62.881 -53.205  1.00  0.00     0.118 C 
HETATM   36  C   UNL     1     -43.681  62.828 -54.656  1.00  0.00     0.026 C 
ENDBRANCH  34  35
BRANCH  34  37
HETATM   37  C   UNL     1     -44.379  62.178 -51.111  1.00  0.00     0.118 C 
HETATM   38  C   UNL     1     -43.633  61.467 -49.992  1.00  0.00     0.026 C 
ENDBRANCH  34  37
ENDBRANCH  31  34
ENDBRANCH   1  28
BRANCH   6  39
HETATM   39  O   UNL     1     -42.963  53.649 -51.904  1.00  0.00    -0.389 OA
HETATM   40  H   UNL     1     -43.675  54.133 -52.365  1.00  0.00     0.210 HD
ENDBRANCH   6  39
TORSDOF 10
ENDMDL
MODEL 10
REMARK VINA RESULT:      -7.3      2.973      8.437
REMARK  10 active torsions:
REMARK  status: ('A' for Active; 'I' for Inactive)
REMARK    1  A    between atoms: C_2  and  N_3 
REMARK    2  A    between atoms: N_3  and  C_4 
REMARK    3  A    between atoms: N_3  and  C_37 
REMARK    4  A    between atoms: C_7  and  C_8 
REMARK    5  A    between atoms: N_9  and  C_11 
REMARK    6  A    between atoms: C_11  and  C_12 
REMARK       I    between atoms: C_12  and  N_13 
REMARK    7  A    between atoms: N_13  and  C_14 
REMARK    8  A    between atoms: C_20  and  C_21 
REMARK    9  A    between atoms: C_21  and  O_22 
REMARK   10  A    between atoms: C_28  and  O_29 
ROOT
HETATM    1  C   UNL     1     -42.752  59.801 -52.537  1.00  0.00     0.228 C 
HETATM    2  N   UNL     1     -41.806  58.641 -52.217  1.00  0.00    -0.054 N 
HETATM    3  H   UNL     1     -41.146  59.098 -51.578  1.00  0.00     0.281 HD
HETATM    4  C   UNL     1     -40.935  58.242 -53.382  1.00  0.00     0.239 C 
HETATM    5  C   UNL     1     -41.687  58.064 -54.691  1.00  0.00     0.066 C 
HETATM    6  C   UNL     1     -42.596  59.250 -55.006  1.00  0.00     0.065 C 
HETATM    7  C   UNL     1     -43.555  59.544 -53.832  1.00  0.00     0.055 C 
HETATM    8  C   UNL     1     -43.384  59.002 -56.306  1.00  0.00     0.038 C 
HETATM    9  C   UNL     1     -44.315  60.167 -56.644  1.00  0.00     0.003 C 
HETATM   10  C   UNL     1     -45.241  60.497 -55.483  1.00  0.00     0.001 C 
HETATM   11  C   UNL     1     -44.469  60.741 -54.190  1.00  0.00     0.010 C 
ENDROOT
BRANCH   2  12
HETATM   12  C   UNL     1     -42.303  57.477 -51.351  1.00  0.00     0.338 C 
BRANCH  12  13
HETATM   13  C   UNL     1     -42.244  56.048 -51.900  1.00  0.00     0.248 C 
HETATM   14  N   UNL     1     -40.980  55.498 -51.799  1.00  0.00    -0.319 N 
HETATM   15  H   UNL     1     -40.165  56.102 -51.757  1.00  0.00     0.169 HD
HETATM   16  O   UNL     1     -43.210  55.511 -52.429  1.00  0.00    -0.271 OA
BRANCH  14  17
HETATM   17  C   UNL     1     -40.684  54.176 -52.063  1.00  0.00     0.094 A 
HETATM   18  S   UNL     1     -40.540  53.295 -50.617  1.00  0.00    -0.076 SA
HETATM   19  C   UNL     1     -40.120  51.865 -51.443  1.00  0.00    -0.012 A 
HETATM   20  C   UNL     1     -39.806  50.632 -50.657  1.00  0.00     0.057 C 
HETATM   21  C   UNL     1     -40.182  52.024 -52.820  1.00  0.00    -0.030 A 
HETATM   22  C   UNL     1     -39.988  50.907 -53.802  1.00  0.00     0.050 C 
HETATM   23  C   UNL     1     -40.507  53.401 -53.193  1.00  0.00     0.080 A 
BRANCH  23  24
HETATM   24  C   UNL     1     -40.732  53.862 -54.565  1.00  0.00     0.296 C 
HETATM   25  O   UNL     1     -39.866  54.411 -55.237  1.00  0.00    -0.259 OA
BRANCH  24  26
HETATM   26  O   UNL     1     -42.015  53.669 -54.983  1.00  0.00    -0.322 OA
HETATM   27  C   UNL     1     -42.505  54.694 -55.847  1.00  0.00     0.213 C 
ENDBRANCH  24  26
ENDBRANCH  23  24
ENDBRANCH  14  17
ENDBRANCH  12  13
ENDBRANCH   2  12
BRANCH   1  28
HETATM   28  C   UNL     1     -43.564  60.290 -51.350  1.00  0.00    -0.027 A 
HETATM   29  C   UNL     1     -44.798  59.703 -51.051  1.00  0.00     0.011 A 
HETATM   30  C   UNL     1     -45.473  60.006 -49.856  1.00  0.00     0.030 A 
HETATM   31  C   UNL     1     -44.964  60.906 -48.907  1.00  0.00     0.030 A 
HETATM   32  C   UNL     1     -43.782  61.562 -49.280  1.00  0.00     0.030 A 
HETATM   33  C   UNL     1     -43.086  61.248 -50.455  1.00  0.00     0.011 A 
BRANCH  31  34
HETATM   34  N   UNL     1     -45.574  61.136 -47.676  1.00  0.00    -0.382 N 
BRANCH  34  35
HETATM   35  C   UNL     1     -46.831  61.903 -47.598  1.00  0.00     0.118 C 
HETATM   36  C   UNL     1     -46.786  63.094 -48.542  1.00  0.00     0.026 C 
ENDBRANCH  34  35
BRANCH  34  37
HETATM   37  C   UNL     1     -44.842  61.001 -46.406  1.00  0.00     0.118 C 
HETATM   38  C   UNL     1     -45.145  62.159 -45.467  1.00  0.00     0.026 C 
ENDBRANCH  34  37
ENDBRANCH  31  34
ENDBRANCH   1  28
BRANCH   6  39
HETATM   39  O   UNL     1     -41.733  60.385 -55.177  1.00  0.00    -0.389 OA
HETATM   40  H   UNL     1     -41.216  60.269 -55.997  1.00  0.00     0.210 HD
ENDBRANCH   6  39
TORSDOF 10
ENDMDL
