MODEL 1
REMARK VINA RESULT:      -8.1      0.000      0.000
REMARK  6 active torsions:
REMARK  status: ('A' for Active; 'I' for Inactive)
REMARK    1  A    between atoms: C_7  and  S_8 
REMARK    2  A    between atoms: S_8  and  C_9 
REMARK    3  A    between atoms: C_9  and  C_10 
REMARK    4  A    between atoms: C_18  and  C_19 
REMARK    5  A    between atoms: C_26  and  C_27 
REMARK    6  A    between atoms: C_27  and  O_28 
ROOT
HETATM    1  C   UNL     1     -45.024  57.661 -56.135  1.00  0.00     0.070 C 
HETATM    2  C   UNL     1     -44.120  57.415 -54.952  1.00  0.00     0.037 A 
HETATM    3  N   UNL     1     -44.277  56.194 -54.304  1.00  0.00    -0.192 N 
HETATM    4  C   UNL     1     -43.442  55.764 -53.338  1.00  0.00     0.726 A 
HETATM    5  N   UNL     1     -42.476  56.608 -52.861  1.00  0.00    -0.082 N 
HETATM    6  N   UNL     1     -41.700  55.997 -51.946  1.00  0.00    -0.128 NA
HETATM    7  C   UNL     1     -42.274  54.790 -51.894  1.00  0.00     0.226 A 
HETATM    8  N   UNL     1     -43.348  54.610 -52.732  1.00  0.00    -0.035 NA
HETATM    9  C   UNL     1     -42.278  57.988 -53.330  1.00  0.00     0.204 A 
HETATM   10  C   UNL     1     -43.166  58.280 -54.532  1.00  0.00     0.070 A 
HETATM   11  H   UNL     1     -44.956  55.542 -54.688  1.00  0.00     0.184 HD
ENDROOT
BRANCH   7  12
HETATM   12  S   UNL     1     -41.679  53.557 -50.820  1.00  0.00    -0.083 SA
BRANCH  12  13
HETATM   13  C   UNL     1     -40.013  53.336 -51.501  1.00  0.00     0.123 C 
BRANCH  13  14
HETATM   14  C   UNL     1     -39.901  52.063 -52.307  1.00  0.00    -0.027 A 
HETATM   15  C   UNL     1     -40.028  52.030 -53.705  1.00  0.00     0.041 A 
HETATM   16 CL   UNL     1     -40.345  53.455 -54.630  1.00  0.00    -0.084 Cl
HETATM   17  C   UNL     1     -39.902  50.823 -54.402  1.00  0.00     0.024 A 
HETATM   18  C   UNL     1     -39.646  49.637 -53.716  1.00  0.00     0.002 A 
HETATM   19  C   UNL     1     -39.511  49.654 -52.331  1.00  0.00     0.001 A 
HETATM   20  C   UNL     1     -39.634  50.856 -51.632  1.00  0.00     0.009 A 
ENDBRANCH  13  14
ENDBRANCH  12  13
ENDBRANCH   7  12
BRANCH   9  21
HETATM   21  C   UNL     1     -42.526  58.966 -52.182  1.00  0.00    -0.006 A 
HETATM   22  C   UNL     1     -41.481  59.520 -51.423  1.00  0.00     0.042 A 
HETATM   23 CL   UNL     1     -39.819  59.155 -51.726  1.00  0.00    -0.084 Cl
HETATM   24  C   UNL     1     -41.750  60.416 -50.381  1.00  0.00     0.024 A 
HETATM   25  C   UNL     1     -43.062  60.777 -50.081  1.00  0.00     0.002 A 
HETATM   26  C   UNL     1     -44.111  60.248 -50.824  1.00  0.00     0.001 A 
HETATM   27  C   UNL     1     -43.848  59.354 -51.864  1.00  0.00     0.011 A 
ENDBRANCH   9  21
BRANCH  10  28
HETATM   28  C   UNL     1     -42.942  59.565 -55.217  1.00  0.00     0.293 C 
HETATM   29  O   UNL     1     -43.683  60.529 -55.140  1.00  0.00    -0.259 OA
BRANCH  28  30
HETATM   30  O   UNL     1     -41.816  59.468 -55.964  1.00  0.00    -0.323 OA
HETATM   31  C   UNL     1     -42.029  59.636 -57.366  1.00  0.00     0.213 C 
ENDBRANCH  28  30
ENDBRANCH  10  28
TORSDOF 6
ENDMDL
MODEL 2
REMARK VINA RESULT:      -7.9      3.488      4.429
REMARK  6 active torsions:
REMARK  status: ('A' for Active; 'I' for Inactive)
REMARK    1  A    between atoms: C_7  and  S_8 
REMARK    2  A    between atoms: S_8  and  C_9 
REMARK    3  A    between atoms: C_9  and  C_10 
REMARK    4  A    between atoms: C_18  and  C_19 
REMARK    5  A    between atoms: C_26  and  C_27 
REMARK    6  A    between atoms: C_27  and  O_28 
ROOT
HETATM    1  C   UNL     1     -44.130  55.056 -59.947  1.00  0.00     0.070 C 
HETATM    2  C   UNL     1     -43.575  55.814 -58.768  1.00  0.00     0.037 A 
HETATM    3  N   UNL     1     -43.562  55.137 -57.553  1.00  0.00    -0.192 N 
HETATM    4  C   UNL     1     -42.955  55.618 -56.451  1.00  0.00     0.726 A 
HETATM    5  N   UNL     1     -42.445  56.888 -56.466  1.00  0.00    -0.082 N 
HETATM    6  N   UNL     1     -41.826  57.182 -55.306  1.00  0.00    -0.128 NA
HETATM    7  C   UNL     1     -42.028  56.051 -54.621  1.00  0.00     0.226 A 
HETATM    8  N   UNL     1     -42.719  55.069 -55.289  1.00  0.00    -0.035 NA
HETATM    9  C   UNL     1     -42.517  57.794 -57.622  1.00  0.00     0.204 A 
HETATM   10  C   UNL     1     -43.066  57.067 -58.842  1.00  0.00     0.070 A 
HETATM   11  H   UNL     1     -43.890  54.174 -57.548  1.00  0.00     0.184 HD
ENDROOT
BRANCH   7  12
HETATM   12  S   UNL     1     -41.445  55.873 -52.990  1.00  0.00    -0.083 SA
BRANCH  12  13
HETATM   13  C   UNL     1     -42.139  54.245 -52.593  1.00  0.00     0.123 C 
BRANCH  13  14
HETATM   14  C   UNL     1     -41.132  53.140 -52.805  1.00  0.00    -0.027 A 
HETATM   15  C   UNL     1     -40.216  52.742 -51.817  1.00  0.00     0.041 A 
HETATM   16 CL   UNL     1     -40.149  53.504 -50.268  1.00  0.00    -0.084 Cl
HETATM   17  C   UNL     1     -39.313  51.701 -52.064  1.00  0.00     0.024 A 
HETATM   18  C   UNL     1     -39.314  51.044 -53.293  1.00  0.00     0.002 A 
HETATM   19  C   UNL     1     -40.221  51.422 -54.279  1.00  0.00     0.001 A 
HETATM   20  C   UNL     1     -41.125  52.458 -54.037  1.00  0.00     0.009 A 
ENDBRANCH  13  14
ENDBRANCH  12  13
ENDBRANCH   7  12
BRANCH   9  21
HETATM   21  C   UNL     1     -43.349  59.025 -57.264  1.00  0.00    -0.006 A 
HETATM   22  C   UNL     1     -42.869  60.336 -57.431  1.00  0.00     0.042 A 
HETATM   23 CL   UNL     1     -41.299  60.675 -58.068  1.00  0.00    -0.084 Cl
HETATM   24  C   UNL     1     -43.665  61.437 -57.095  1.00  0.00     0.024 A 
HETATM   25  C   UNL     1     -44.951  61.253 -56.591  1.00  0.00     0.002 A 
HETATM   26  C   UNL     1     -45.449  59.966 -56.425  1.00  0.00     0.001 A 
HETATM   27  C   UNL     1     -44.659  58.864 -56.759  1.00  0.00     0.011 A 
ENDBRANCH   9  21
BRANCH  10  28
HETATM   28  C   UNL     1     -43.024  57.803 -60.118  1.00  0.00     0.293 C 
HETATM   29  O   UNL     1     -42.006  58.048 -60.742  1.00  0.00    -0.259 OA
BRANCH  28  30
HETATM   30  O   UNL     1     -44.282  58.186 -60.441  1.00  0.00    -0.323 OA
HETATM   31  C   UNL     1     -44.400  59.565 -60.791  1.00  0.00     0.213 C 
ENDBRANCH  28  30
ENDBRANCH  10  28
TORSDOF 6
ENDMDL
MODEL 3
REMARK VINA RESULT:      -7.8      2.870      5.008
REMARK  6 active torsions:
REMARK  status: ('A' for Active; 'I' for Inactive)
REMARK    1  A    between atoms: C_7  and  S_8 
REMARK    2  A    between atoms: S_8  and  C_9 
REMARK    3  A    between atoms: C_9  and  C_10 
REMARK    4  A    between atoms: C_18  and  C_19 
REMARK    5  A    between atoms: C_26  and  C_27 
REMARK    6  A    between atoms: C_27  and  O_28 
ROOT
HETATM    1  C   UNL     1     -45.151  59.771 -53.985  1.00  0.00     0.070 C 
HETATM    2  C   UNL     1     -44.380  58.750 -54.783  1.00  0.00     0.037 A 
HETATM    3  N   UNL     1     -43.301  58.154 -54.138  1.00  0.00    -0.192 N 
HETATM    4  C   UNL     1     -42.617  57.117 -54.658  1.00  0.00     0.726 A 
HETATM    5  N   UNL     1     -42.889  56.706 -55.936  1.00  0.00    -0.082 N 
HETATM    6  N   UNL     1     -42.157  55.626 -56.270  1.00  0.00    -0.128 NA
HETATM    7  C   UNL     1     -41.438  55.455 -55.154  1.00  0.00     0.226 A 
HETATM    8  N   UNL     1     -41.691  56.351 -54.144  1.00  0.00    -0.035 NA
HETATM    9  C   UNL     1     -43.892  57.333 -56.810  1.00  0.00     0.204 A 
HETATM   10  C   UNL     1     -44.702  58.368 -56.042  1.00  0.00     0.070 A 
HETATM   11  H   UNL     1     -43.129  58.417 -53.171  1.00  0.00     0.184 HD
ENDROOT
BRANCH   7  12
HETATM   12  S   UNL     1     -40.265  54.175 -55.029  1.00  0.00    -0.083 SA
BRANCH  12  13
HETATM   13  C   UNL     1     -40.550  53.665 -53.312  1.00  0.00     0.123 C 
BRANCH  13  14
HETATM   14  C   UNL     1     -40.176  52.219 -53.086  1.00  0.00    -0.027 A 
HETATM   15  C   UNL     1     -39.920  51.686 -51.813  1.00  0.00     0.041 A 
HETATM   16 CL   UNL     1     -39.993  52.654 -50.383  1.00  0.00    -0.084 Cl
HETATM   17  C   UNL     1     -39.590  50.335 -51.661  1.00  0.00     0.024 A 
HETATM   18  C   UNL     1     -39.514  49.499 -52.774  1.00  0.00     0.002 A 
HETATM   19  C   UNL     1     -39.772  50.011 -54.043  1.00  0.00     0.001 A 
HETATM   20  C   UNL     1     -40.104  51.358 -54.198  1.00  0.00     0.009 A 
ENDBRANCH  13  14
ENDBRANCH  12  13
ENDBRANCH   7  12
BRANCH   9  21
HETATM   21  C   UNL     1     -43.206  57.935 -58.036  1.00  0.00    -0.006 A 
HETATM   22  C   UNL     1     -43.173  57.280 -59.280  1.00  0.00     0.042 A 
HETATM   23 CL   UNL     1     -43.915  55.742 -59.539  1.00  0.00    -0.084 Cl
HETATM   24  C   UNL     1     -42.538  57.868 -60.380  1.00  0.00     0.024 A 
HETATM   25  C   UNL     1     -41.929  59.116 -60.263  1.00  0.00     0.002 A 
HETATM   26  C   UNL     1     -41.956  59.785 -59.044  1.00  0.00     0.001 A 
HETATM   27  C   UNL     1     -42.589  59.203 -57.943  1.00  0.00     0.011 A 
ENDBRANCH   9  21
BRANCH  10  28
HETATM   28  C   UNL     1     -45.862  58.945 -56.744  1.00  0.00     0.293 C 
HETATM   29  O   UNL     1     -45.996  60.129 -57.002  1.00  0.00    -0.259 OA
BRANCH  28  30
HETATM   30  O   UNL     1     -46.750  57.956 -57.005  1.00  0.00    -0.323 OA
HETATM   31  C   UNL     1     -47.055  57.796 -58.391  1.00  0.00     0.213 C 
ENDBRANCH  28  30
ENDBRANCH  10  28
TORSDOF 6
ENDMDL
MODEL 4
REMARK VINA RESULT:      -7.7      3.901      7.158
REMARK  6 active torsions:
REMARK  status: ('A' for Active; 'I' for Inactive)
REMARK    1  A    between atoms: C_7  and  S_8 
REMARK    2  A    between atoms: S_8  and  C_9 
REMARK    3  A    between atoms: C_9  and  C_10 
REMARK    4  A    between atoms: C_18  and  C_19 
REMARK    5  A    between atoms: C_26  and  C_27 
REMARK    6  A    between atoms: C_27  and  O_28 
ROOT
HETATM    1  C   UNL     1     -40.480  53.385 -54.616  1.00  0.00     0.070 C 
HETATM    2  C   UNL     1     -41.288  54.658 -54.627  1.00  0.00     0.037 A 
HETATM    3  N   UNL     1     -41.383  55.315 -55.849  1.00  0.00    -0.192 N 
HETATM    4  C   UNL     1     -42.195  56.370 -56.054  1.00  0.00     0.726 A 
HETATM    5  N   UNL     1     -42.858  56.924 -54.991  1.00  0.00    -0.082 N 
HETATM    6  N   UNL     1     -43.665  57.927 -55.386  1.00  0.00    -0.128 NA
HETATM    7  C   UNL     1     -43.417  57.947 -56.701  1.00  0.00     0.226 A 
HETATM    8  N   UNL     1     -42.518  57.008 -57.148  1.00  0.00    -0.035 NA
HETATM    9  C   UNL     1     -42.743  56.446 -53.605  1.00  0.00     0.204 A 
HETATM   10  C   UNL     1     -41.939  55.154 -53.547  1.00  0.00     0.070 A 
HETATM   11  H   UNL     1     -40.937  54.879 -56.652  1.00  0.00     0.184 HD
ENDROOT
BRANCH   7  12
HETATM   12  S   UNL     1     -44.194  59.104 -57.744  1.00  0.00    -0.083 SA
BRANCH  12  13
HETATM   13  C   UNL     1     -43.820  58.362 -59.356  1.00  0.00     0.123 C 
BRANCH  13  14
HETATM   14  C   UNL     1     -45.029  57.685 -59.956  1.00  0.00    -0.027 A 
HETATM   15  C   UNL     1     -45.089  56.304 -60.201  1.00  0.00     0.041 A 
HETATM   16 CL   UNL     1     -43.762  55.254 -59.852  1.00  0.00    -0.084 Cl
HETATM   17  C   UNL     1     -46.241  55.728 -60.748  1.00  0.00     0.024 A 
HETATM   18  C   UNL     1     -47.347  56.519 -61.052  1.00  0.00     0.002 A 
HETATM   19  C   UNL     1     -47.307  57.889 -60.808  1.00  0.00     0.001 A 
HETATM   20  C   UNL     1     -46.160  58.467 -60.261  1.00  0.00     0.009 A 
ENDBRANCH  13  14
ENDBRANCH  12  13
ENDBRANCH   7  12
BRANCH   9  21
HETATM   21  C   UNL     1     -42.134  57.541 -52.729  1.00  0.00    -0.006 A 
HETATM   22  C   UNL     1     -42.850  58.161 -51.691  1.00  0.00     0.042 A 
HETATM   23 CL   UNL     1     -44.479  57.734 -51.302  1.00  0.00    -0.084 Cl
HETATM   24  C   UNL     1     -42.255  59.157 -50.908  1.00  0.00     0.024 A 
HETATM   25  C   UNL     1     -40.939  59.550 -51.143  1.00  0.00     0.002 A 
HETATM   26  C   UNL     1     -40.209  58.944 -52.160  1.00  0.00     0.001 A 
HETATM   27  C   UNL     1     -40.798  57.949 -52.943  1.00  0.00     0.011 A 
ENDBRANCH   9  21
BRANCH  10  28
HETATM   28  C   UNL     1     -41.897  54.466 -52.244  1.00  0.00     0.293 C 
HETATM   29  O   UNL     1     -40.914  54.404 -51.526  1.00  0.00    -0.259 OA
BRANCH  28  30
HETATM   30  O   UNL     1     -43.103  53.893 -52.016  1.00  0.00    -0.323 OA
HETATM   31  C   UNL     1     -43.698  54.261 -50.772  1.00  0.00     0.213 C 
ENDBRANCH  28  30
ENDBRANCH  10  28
TORSDOF 6
ENDMDL
MODEL 5
REMARK VINA RESULT:      -7.6      3.220      5.695
REMARK  6 active torsions:
REMARK  status: ('A' for Active; 'I' for Inactive)
REMARK    1  A    between atoms: C_7  and  S_8 
REMARK    2  A    between atoms: S_8  and  C_9 
REMARK    3  A    between atoms: C_9  and  C_10 
REMARK    4  A    between atoms: C_18  and  C_19 
REMARK    5  A    between atoms: C_26  and  C_27 
REMARK    6  A    between atoms: C_27  and  O_28 
ROOT
HETATM    1  C   UNL     1     -41.639  61.093 -57.701  1.00  0.00     0.070 C 
HETATM    2  C   UNL     1     -42.384  59.855 -57.265  1.00  0.00     0.037 A 
HETATM    3  N   UNL     1     -41.774  59.087 -56.278  1.00  0.00    -0.192 N 
HETATM    4  C   UNL     1     -42.383  58.048 -55.676  1.00  0.00     0.726 A 
HETATM    5  N   UNL     1     -43.602  57.626 -56.136  1.00  0.00    -0.082 N 
HETATM    6  N   UNL     1     -44.087  56.620 -55.383  1.00  0.00    -0.128 NA
HETATM    7  C   UNL     1     -43.094  56.463 -54.501  1.00  0.00     0.226 A 
HETATM    8  N   UNL     1     -42.030  57.320 -54.650  1.00  0.00    -0.035 NA
HETATM    9  C   UNL     1     -44.311  58.231 -57.273  1.00  0.00     0.204 A 
HETATM   10  C   UNL     1     -43.598  59.491 -57.742  1.00  0.00     0.070 A 
HETATM   11  H   UNL     1     -40.895  59.426 -55.896  1.00  0.00     0.184 HD
ENDROOT
BRANCH   7  12
HETATM   12  S   UNL     1     -43.175  55.241 -53.265  1.00  0.00    -0.083 SA
BRANCH  12  13
HETATM   13  C   UNL     1     -41.438  55.216 -52.744  1.00  0.00     0.123 C 
BRANCH  13  14
HETATM   14  C   UNL     1     -40.823  53.846 -52.909  1.00  0.00    -0.027 A 
HETATM   15  C   UNL     1     -40.136  53.188 -51.876  1.00  0.00     0.041 A 
HETATM   16 CL   UNL     1     -39.916  53.906 -50.319  1.00  0.00    -0.084 Cl
HETATM   17  C   UNL     1     -39.597  51.913 -52.080  1.00  0.00     0.024 A 
HETATM   18  C   UNL     1     -39.739  51.278 -53.313  1.00  0.00     0.002 A 
HETATM   19  C   UNL     1     -40.423  51.914 -54.345  1.00  0.00     0.001 A 
HETATM   20  C   UNL     1     -40.964  53.185 -54.144  1.00  0.00     0.009 A 
ENDBRANCH  13  14
ENDBRANCH  12  13
ENDBRANCH   7  12
BRANCH   9  21
HETATM   21  C   UNL     1     -44.462  57.204 -58.395  1.00  0.00    -0.006 A 
HETATM   22  C   UNL     1     -45.675  57.003 -59.077  1.00  0.00     0.042 A 
HETATM   23 CL   UNL     1     -47.102  57.908 -58.717  1.00  0.00    -0.084 Cl
HETATM   24  C   UNL     1     -45.769  56.055 -60.103  1.00  0.00     0.024 A 
HETATM   25  C   UNL     1     -44.661  55.295 -60.468  1.00  0.00     0.002 A 
HETATM   26  C   UNL     1     -43.449  55.482 -59.812  1.00  0.00     0.001 A 
HETATM   27  C   UNL     1     -43.348  56.427 -58.789  1.00  0.00     0.011 A 
ENDBRANCH   9  21
BRANCH  10  28
HETATM   28  C   UNL     1     -44.296  60.300 -58.758  1.00  0.00     0.293 C 
HETATM   29  O   UNL     1     -44.035  60.291 -59.948  1.00  0.00    -0.259 OA
BRANCH  28  30
HETATM   30  O   UNL     1     -45.224  61.068 -58.139  1.00  0.00    -0.323 OA
HETATM   31  C   UNL     1     -45.071  62.469 -58.370  1.00  0.00     0.213 C 
ENDBRANCH  28  30
ENDBRANCH  10  28
TORSDOF 6
ENDMDL
MODEL 6
REMARK VINA RESULT:      -7.6      1.737      2.329
REMARK  6 active torsions:
REMARK  status: ('A' for Active; 'I' for Inactive)
REMARK    1  A    between atoms: C_7  and  S_8 
REMARK    2  A    between atoms: S_8  and  C_9 
REMARK    3  A    between atoms: C_9  and  C_10 
REMARK    4  A    between atoms: C_18  and  C_19 
REMARK    5  A    between atoms: C_26  and  C_27 
REMARK    6  A    between atoms: C_27  and  O_28 
ROOT
HETATM    1  C   UNL     1     -43.708  55.875 -58.717  1.00  0.00     0.070 C 
HETATM    2  C   UNL     1     -43.314  56.112 -57.280  1.00  0.00     0.037 A 
HETATM    3  N   UNL     1     -43.503  55.045 -56.408  1.00  0.00    -0.192 N 
HETATM    4  C   UNL     1     -43.056  55.048 -55.137  1.00  0.00     0.726 A 
HETATM    5  N   UNL     1     -42.512  56.193 -54.620  1.00  0.00    -0.082 N 
HETATM    6  N   UNL     1     -42.067  55.999 -53.364  1.00  0.00    -0.128 NA
HETATM    7  C   UNL     1     -42.402  54.718 -53.172  1.00  0.00     0.226 A 
HETATM    8  N   UNL     1     -43.013  54.101 -54.238  1.00  0.00    -0.035 NA
HETATM    9  C   UNL     1     -42.384  57.456 -55.362  1.00  0.00     0.204 A 
HETATM   10  C   UNL     1     -42.764  57.262 -56.823  1.00  0.00     0.070 A 
HETATM   11  H   UNL     1     -43.856  54.175 -56.799  1.00  0.00     0.184 HD
ENDROOT
BRANCH   7  12
HETATM   12  S   UNL     1     -42.076  53.921 -51.660  1.00  0.00    -0.083 SA
BRANCH  12  13
HETATM   13  C   UNL     1     -40.303  53.597 -51.860  1.00  0.00     0.123 C 
BRANCH  13  14
HETATM   14  C   UNL     1     -40.027  52.140 -52.147  1.00  0.00    -0.027 A 
HETATM   15  C   UNL     1     -39.907  51.629 -53.450  1.00  0.00     0.041 A 
HETATM   16 CL   UNL     1     -40.085  52.629 -54.847  1.00  0.00    -0.084 Cl
HETATM   17  C   UNL     1     -39.638  50.271 -53.658  1.00  0.00     0.024 A 
HETATM   18  C   UNL     1     -39.483  49.410 -52.573  1.00  0.00     0.002 A 
HETATM   19  C   UNL     1     -39.592  49.903 -51.276  1.00  0.00     0.001 A 
HETATM   20  C   UNL     1     -39.859  51.257 -51.064  1.00  0.00     0.009 A 
ENDBRANCH  13  14
ENDBRANCH  12  13
ENDBRANCH   7  12
BRANCH   9  21
HETATM   21  C   UNL     1     -43.225  58.540 -54.688  1.00  0.00    -0.006 A 
HETATM   22  C   UNL     1     -42.670  59.495 -53.819  1.00  0.00     0.042 A 
HETATM   23 CL   UNL     1     -40.984  59.539 -53.442  1.00  0.00    -0.084 Cl
HETATM   24  C   UNL     1     -43.475  60.475 -53.226  1.00  0.00     0.024 A 
HETATM   25  C   UNL     1     -44.842  60.523 -53.489  1.00  0.00     0.002 A 
HETATM   26  C   UNL     1     -45.411  59.592 -54.352  1.00  0.00     0.001 A 
HETATM   27  C   UNL     1     -44.613  58.614 -54.947  1.00  0.00     0.011 A 
ENDBRANCH   9  21
BRANCH  10  28
HETATM   28  C   UNL     1     -42.510  58.401 -57.724  1.00  0.00     0.293 C 
HETATM   29  O   UNL     1     -41.405  58.748 -58.105  1.00  0.00    -0.259 OA
BRANCH  28  30
HETATM   30  O   UNL     1     -43.689  59.003 -58.008  1.00  0.00    -0.323 OA
HETATM   31  C   UNL     1     -43.618  60.427 -58.066  1.00  0.00     0.213 C 
ENDBRANCH  28  30
ENDBRANCH  10  28
TORSDOF 6
ENDMDL
MODEL 7
REMARK VINA RESULT:      -7.6      2.027      4.094
REMARK  6 active torsions:
REMARK  status: ('A' for Active; 'I' for Inactive)
REMARK    1  A    between atoms: C_7  and  S_8 
REMARK    2  A    between atoms: S_8  and  C_9 
REMARK    3  A    between atoms: C_9  and  C_10 
REMARK    4  A    between atoms: C_18  and  C_19 
REMARK    5  A    between atoms: C_26  and  C_27 
REMARK    6  A    between atoms: C_27  and  O_28 
ROOT
HETATM    1  C   UNL     1     -42.381  60.214 -50.755  1.00  0.00     0.070 C 
HETATM    2  C   UNL     1     -42.419  58.737 -51.061  1.00  0.00     0.037 A 
HETATM    3  N   UNL     1     -41.462  57.953 -50.425  1.00  0.00    -0.192 N 
HETATM    4  C   UNL     1     -41.467  56.607 -50.473  1.00  0.00     0.726 A 
HETATM    5  N   UNL     1     -42.360  55.967 -51.290  1.00  0.00    -0.082 N 
HETATM    6  N   UNL     1     -42.263  54.630 -51.168  1.00  0.00    -0.128 NA
HETATM    7  C   UNL     1     -41.268  54.529 -50.280  1.00  0.00     0.226 A 
HETATM    8  N   UNL     1     -40.751  55.721 -49.832  1.00  0.00    -0.035 NA
HETATM    9  C   UNL     1     -43.335  56.656 -52.149  1.00  0.00     0.204 A 
HETATM   10  C   UNL     1     -43.337  58.152 -51.867  1.00  0.00     0.070 A 
HETATM   11  H   UNL     1     -40.832  58.417 -49.776  1.00  0.00     0.184 HD
ENDROOT
BRANCH   7  12
HETATM   12  S   UNL     1     -40.686  52.975 -49.756  1.00  0.00    -0.083 SA
BRANCH  12  13
HETATM   13  C   UNL     1     -39.275  52.781 -50.879  1.00  0.00     0.123 C 
BRANCH  13  14
HETATM   14  C   UNL     1     -39.634  51.962 -52.096  1.00  0.00    -0.027 A 
HETATM   15  C   UNL     1     -39.596  50.558 -52.110  1.00  0.00     0.041 A 
HETATM   16 CL   UNL     1     -39.109  49.641 -50.729  1.00  0.00    -0.084 Cl
HETATM   17  C   UNL     1     -39.953  49.849 -53.262  1.00  0.00     0.024 A 
HETATM   18  C   UNL     1     -40.355  50.528 -54.411  1.00  0.00     0.002 A 
HETATM   19  C   UNL     1     -40.405  51.919 -54.411  1.00  0.00     0.001 A 
HETATM   20  C   UNL     1     -40.052  52.630 -53.262  1.00  0.00     0.009 A 
ENDBRANCH  13  14
ENDBRANCH  12  13
ENDBRANCH   7  12
BRANCH   9  21
HETATM   21  C   UNL     1     -43.040  56.348 -53.616  1.00  0.00    -0.006 A 
HETATM   22  C   UNL     1     -41.978  56.947 -54.315  1.00  0.00     0.042 A 
HETATM   23 CL   UNL     1     -40.900  58.077 -53.575  1.00  0.00    -0.084 Cl
HETATM   24  C   UNL     1     -41.739  56.634 -55.659  1.00  0.00     0.024 A 
HETATM   25  C   UNL     1     -42.550  55.720 -56.327  1.00  0.00     0.002 A 
HETATM   26  C   UNL     1     -43.602  55.109 -55.654  1.00  0.00     0.001 A 
HETATM   27  C   UNL     1     -43.844  55.417 -54.313  1.00  0.00     0.011 A 
ENDBRANCH   9  21
BRANCH  10  28
HETATM   28  C   UNL     1     -44.393  58.942 -52.526  1.00  0.00     0.293 C 
HETATM   29  O   UNL     1     -44.250  59.549 -53.574  1.00  0.00    -0.259 OA
BRANCH  28  30
HETATM   30  O   UNL     1     -45.506  58.909 -51.756  1.00  0.00    -0.323 OA
HETATM   31  C   UNL     1     -46.144  60.176 -51.597  1.00  0.00     0.213 C 
ENDBRANCH  28  30
ENDBRANCH  10  28
TORSDOF 6
ENDMDL
MODEL 8
REMARK VINA RESULT:      -7.4      2.051      2.590
REMARK  6 active torsions:
REMARK  status: ('A' for Active; 'I' for Inactive)
REMARK    1  A    between atoms: C_7  and  S_8 
REMARK    2  A    between atoms: S_8  and  C_9 
REMARK    3  A    between atoms: C_9  and  C_10 
REMARK    4  A    between atoms: C_18  and  C_19 
REMARK    5  A    between atoms: C_26  and  C_27 
REMARK    6  A    between atoms: C_27  and  O_28 
ROOT
HETATM    1  C   UNL     1     -45.477  58.405 -58.037  1.00  0.00     0.070 C 
HETATM    2  C   UNL     1     -44.439  57.992 -57.023  1.00  0.00     0.037 A 
HETATM    3  N   UNL     1     -43.996  56.675 -57.099  1.00  0.00    -0.192 N 
HETATM    4  C   UNL     1     -42.965  56.205 -56.372  1.00  0.00     0.726 A 
HETATM    5  N   UNL     1     -42.404  57.000 -55.409  1.00  0.00    -0.082 N 
HETATM    6  N   UNL     1     -41.354  56.395 -54.823  1.00  0.00    -0.128 NA
HETATM    7  C   UNL     1     -41.354  55.219 -55.461  1.00  0.00     0.226 A 
HETATM    8  N   UNL     1     -42.329  55.064 -56.417  1.00  0.00    -0.035 NA
HETATM    9  C   UNL     1     -42.859  58.363 -55.094  1.00  0.00     0.204 A 
HETATM   10  C   UNL     1     -43.905  58.826 -56.099  1.00  0.00     0.070 A 
HETATM   11  H   UNL     1     -44.370  56.097 -57.847  1.00  0.00     0.184 HD
ENDROOT
BRANCH   7  12
HETATM   12  S   UNL     1     -40.186  53.987 -55.075  1.00  0.00    -0.083 SA
BRANCH  12  13
HETATM   13  C   UNL     1     -40.744  53.548 -53.407  1.00  0.00     0.123 C 
BRANCH  13  14
HETATM   14  C   UNL     1     -40.291  52.162 -53.010  1.00  0.00    -0.027 A 
HETATM   15  C   UNL     1     -39.966  51.813 -51.689  1.00  0.00     0.041 A 
HETATM   16 CL   UNL     1     -40.040  52.956 -50.396  1.00  0.00    -0.084 Cl
HETATM   17  C   UNL     1     -39.564  50.510 -51.377  1.00  0.00     0.024 A 
HETATM   18  C   UNL     1     -39.484  49.540 -52.374  1.00  0.00     0.002 A 
HETATM   19  C   UNL     1     -39.808  49.868 -53.687  1.00  0.00     0.001 A 
HETATM   20  C   UNL     1     -40.212  51.167 -54.003  1.00  0.00     0.009 A 
ENDBRANCH  13  14
ENDBRANCH  12  13
ENDBRANCH   7  12
BRANCH   9  21
HETATM   21  C   UNL     1     -43.380  58.416 -53.658  1.00  0.00    -0.006 A 
HETATM   22  C   UNL     1     -42.627  58.957 -52.602  1.00  0.00     0.042 A 
HETATM   23 CL   UNL     1     -41.050  59.623 -52.832  1.00  0.00    -0.084 Cl
HETATM   24  C   UNL     1     -43.143  58.992 -51.300  1.00  0.00     0.024 A 
HETATM   25  C   UNL     1     -44.415  58.491 -51.030  1.00  0.00     0.002 A 
HETATM   26  C   UNL     1     -45.180  57.958 -52.061  1.00  0.00     0.001 A 
HETATM   27  C   UNL     1     -44.671  57.923 -53.361  1.00  0.00     0.011 A 
ENDBRANCH   9  21
BRANCH  10  28
HETATM   28  C   UNL     1     -44.317  60.239 -56.013  1.00  0.00     0.293 C 
HETATM   29  O   UNL     1     -45.324  60.632 -55.450  1.00  0.00    -0.259 OA
BRANCH  28  30
HETATM   30  O   UNL     1     -43.422  60.995 -56.692  1.00  0.00    -0.323 OA
HETATM   31  C   UNL     1     -43.490  62.389 -56.392  1.00  0.00     0.213 C 
ENDBRANCH  28  30
ENDBRANCH  10  28
TORSDOF 6
ENDMDL
MODEL 9
REMARK VINA RESULT:      -7.3      3.534      7.306
REMARK  6 active torsions:
REMARK  status: ('A' for Active; 'I' for Inactive)
REMARK    1  A    between atoms: C_7  and  S_8 
REMARK    2  A    between atoms: S_8  and  C_9 
REMARK    3  A    between atoms: C_9  and  C_10 
REMARK    4  A    between atoms: C_18  and  C_19 
REMARK    5  A    between atoms: C_26  and  C_27 
REMARK    6  A    between atoms: C_27  and  O_28 
ROOT
HETATM    1  C   UNL     1     -40.715  52.859 -54.274  1.00  0.00     0.070 C 
HETATM    2  C   UNL     1     -41.544  54.094 -54.524  1.00  0.00     0.037 A 
HETATM    3  N   UNL     1     -41.643  54.510 -55.848  1.00  0.00    -0.192 N 
HETATM    4  C   UNL     1     -42.471  55.495 -56.248  1.00  0.00     0.726 A 
HETATM    5  N   UNL     1     -43.149  56.225 -55.309  1.00  0.00    -0.082 N 
HETATM    6  N   UNL     1     -43.970  57.123 -55.886  1.00  0.00    -0.128 NA
HETATM    7  C   UNL     1     -43.714  56.902 -57.181  1.00  0.00     0.226 A 
HETATM    8  N   UNL     1     -42.798  55.912 -57.443  1.00  0.00    -0.035 NA
HETATM    9  C   UNL     1     -43.034  56.016 -53.858  1.00  0.00     0.204 A 
HETATM   10  C   UNL     1     -42.210  54.771 -53.558  1.00  0.00     0.070 A 
HETATM   11  H   UNL     1     -41.185  53.940 -56.554  1.00  0.00     0.184 HD
ENDROOT
BRANCH   7  12
HETATM   12  S   UNL     1     -44.504  57.830 -58.423  1.00  0.00    -0.083 SA
BRANCH  12  13
HETATM   13  C   UNL     1     -44.379  59.486 -57.694  1.00  0.00     0.123 C 
BRANCH  13  14
HETATM   14  C   UNL     1     -43.224  60.269 -58.273  1.00  0.00    -0.027 A 
HETATM   15  C   UNL     1     -42.177  60.778 -57.488  1.00  0.00     0.041 A 
HETATM   16 CL   UNL     1     -42.131  60.568 -55.774  1.00  0.00    -0.084 Cl
HETATM   17  C   UNL     1     -41.125  61.486 -58.080  1.00  0.00     0.024 A 
HETATM   18  C   UNL     1     -41.102  61.691 -59.459  1.00  0.00     0.002 A 
HETATM   19  C   UNL     1     -42.128  61.186 -60.251  1.00  0.00     0.001 A 
HETATM   20  C   UNL     1     -43.179  60.478 -59.665  1.00  0.00     0.009 A 
ENDBRANCH  13  14
ENDBRANCH  12  13
ENDBRANCH   7  12
BRANCH   9  21
HETATM   21  C   UNL     1     -42.449  57.265 -53.200  1.00  0.00    -0.006 A 
HETATM   22  C   UNL     1     -43.129  57.980 -52.199  1.00  0.00     0.042 A 
HETATM   23 CL   UNL     1     -44.684  57.506 -51.614  1.00  0.00    -0.084 Cl
HETATM   24  C   UNL     1     -42.556  59.118 -51.618  1.00  0.00     0.024 A 
HETATM   25  C   UNL     1     -41.297  59.560 -52.020  1.00  0.00     0.002 A 
HETATM   26  C   UNL     1     -40.603  58.863 -53.003  1.00  0.00     0.001 A 
HETATM   27  C   UNL     1     -41.169  57.727 -53.585  1.00  0.00     0.011 A 
ENDBRANCH   9  21
BRANCH  10  28
HETATM   28  C   UNL     1     -42.164  54.339 -52.150  1.00  0.00     0.293 C 
HETATM   29  O   UNL     1     -43.098  53.834 -51.550  1.00  0.00    -0.259 OA
BRANCH  28  30
HETATM   30  O   UNL     1     -40.944  54.637 -51.642  1.00  0.00    -0.323 OA
HETATM   31  C   UNL     1     -40.985  55.381 -50.424  1.00  0.00     0.213 C 
ENDBRANCH  28  30
ENDBRANCH  10  28
TORSDOF 6
ENDMDL
MODEL 10
REMARK VINA RESULT:      -7.3      4.186      7.306
REMARK  6 active torsions:
REMARK  status: ('A' for Active; 'I' for Inactive)
REMARK    1  A    between atoms: C_7  and  S_8 
REMARK    2  A    between atoms: S_8  and  C_9 
REMARK    3  A    between atoms: C_9  and  C_10 
REMARK    4  A    between atoms: C_18  and  C_19 
REMARK    5  A    between atoms: C_26  and  C_27 
REMARK    6  A    between atoms: C_27  and  O_28 
ROOT
HETATM    1  C   UNL     1     -40.385  53.481 -54.768  1.00  0.00     0.070 C 
HETATM    2  C   UNL     1     -41.229  54.730 -54.713  1.00  0.00     0.037 A 
HETATM    3  N   UNL     1     -41.381  55.421 -55.911  1.00  0.00    -0.192 N 
HETATM    4  C   UNL     1     -42.228  56.458 -56.057  1.00  0.00     0.726 A 
HETATM    5  N   UNL     1     -42.872  56.959 -54.958  1.00  0.00    -0.082 N 
HETATM    6  N   UNL     1     -43.719  57.950 -55.295  1.00  0.00    -0.128 NA
HETATM    7  C   UNL     1     -43.513  58.018 -56.615  1.00  0.00     0.226 A 
HETATM    8  N   UNL     1     -42.603  57.120 -57.119  1.00  0.00    -0.035 NA
HETATM    9  C   UNL     1     -42.700  56.442 -53.592  1.00  0.00     0.204 A 
HETATM   10  C   UNL     1     -41.859  55.173 -53.599  1.00  0.00     0.070 A 
HETATM   11  H   UNL     1     -40.948  55.024 -56.740  1.00  0.00     0.184 HD
ENDROOT
BRANCH   7  12
HETATM   12  S   UNL     1     -44.355  59.183 -57.597  1.00  0.00    -0.083 SA
BRANCH  12  13
HETATM   13  C   UNL     1     -43.989  58.518 -59.244  1.00  0.00     0.123 C 
BRANCH  13  14
HETATM   14  C   UNL     1     -45.192  57.839 -59.854  1.00  0.00    -0.027 A 
HETATM   15  C   UNL     1     -46.277  58.549 -60.395  1.00  0.00     0.041 A 
HETATM   16 CL   UNL     1     -46.336  60.276 -60.389  1.00  0.00    -0.084 Cl
HETATM   17  C   UNL     1     -47.361  57.868 -60.960  1.00  0.00     0.024 A 
HETATM   18  C   UNL     1     -47.376  56.475 -60.997  1.00  0.00     0.002 A 
HETATM   19  C   UNL     1     -46.305  55.757 -60.472  1.00  0.00     0.001 A 
HETATM   20  C   UNL     1     -45.221  56.433 -59.909  1.00  0.00     0.009 A 
ENDBRANCH  13  14
ENDBRANCH  12  13
ENDBRANCH   7  12
BRANCH   9  21
HETATM   21  C   UNL     1     -42.096  57.526 -52.700  1.00  0.00    -0.006 A 
HETATM   22  C   UNL     1     -42.806  58.114 -51.638  1.00  0.00     0.042 A 
HETATM   23 CL   UNL     1     -44.422  57.655 -51.237  1.00  0.00    -0.084 Cl
HETATM   24  C   UNL     1     -42.214  59.101 -50.842  1.00  0.00     0.024 A 
HETATM   25  C   UNL     1     -40.907  59.518 -51.086  1.00  0.00     0.002 A 
HETATM   26  C   UNL     1     -40.183  58.946 -52.127  1.00  0.00     0.001 A 
HETATM   27  C   UNL     1     -40.769  57.959 -52.923  1.00  0.00     0.011 A 
ENDBRANCH   9  21
BRANCH  10  28
HETATM   28  C   UNL     1     -41.757  54.447 -52.321  1.00  0.00     0.293 C 
HETATM   29  O   UNL     1     -40.725  54.299 -51.690  1.00  0.00    -0.259 OA
BRANCH  28  30
HETATM   30  O   UNL     1     -42.976  53.948 -52.005  1.00  0.00    -0.323 OA
HETATM   31  C   UNL     1     -43.406  54.255 -50.679  1.00  0.00     0.213 C 
ENDBRANCH  28  30
ENDBRANCH  10  28
TORSDOF 6
ENDMDL
