MODEL 1
REMARK VINA RESULT:      -8.3      0.000      0.000
REMARK  4 active torsions:
REMARK  status: ('A' for Active; 'I' for Inactive)
REMARK    1  A    between atoms: C_5  and  C_6 
REMARK    2  A    between atoms: C_6  and  N_7 
REMARK    3  A    between atoms: N_10  and  C_12 
REMARK    4  A    between atoms: C_12  and  C_13 
ROOT
HETATM    1  N   UNL     1     -41.468  55.443 -54.141  1.00  0.00    -0.406 N 
HETATM    2  C   UNL     1     -42.358  55.439 -55.305  1.00  0.00     0.150 C 
HETATM    3  C   UNL     1     -43.499  56.484 -55.414  1.00  0.00     0.206 C 
HETATM    4  N   UNL     1     -43.021  57.844 -55.913  1.00  0.00    -0.061 N 
HETATM    5  H   UNL     1     -43.883  58.398 -55.974  1.00  0.00     0.280 HD
HETATM    6  C   UNL     1     -42.124  58.581 -54.958  1.00  0.00     0.242 C 
HETATM    7  C   UNL     1     -42.037  57.902 -53.595  1.00  0.00     0.029 C 
HETATM    8  C   UNL     1     -41.033  56.733 -53.620  1.00  0.00     0.123 C 
HETATM    9  C   UNL     1     -44.242  56.716 -54.094  1.00  0.00     0.035 C 
HETATM   10  C   UNL     1     -43.424  57.512 -53.076  1.00  0.00     0.010 C 
ENDROOT
BRANCH   4  11
HETATM   11  C   UNL     1     -42.475  57.878 -57.328  1.00  0.00     0.274 C 
BRANCH  11  12
HETATM   12  C   UNL     1     -43.382  57.255 -58.352  1.00  0.00    -0.032 A 
HETATM   13  C   UNL     1     -44.688  57.750 -58.536  1.00  0.00     0.022 A 
HETATM   14  C   UNL     1     -45.531  57.160 -59.496  1.00  0.00    -0.008 A 
HETATM   15  C   UNL     1     -45.046  56.094 -60.253  1.00  0.00     0.042 A 
HETATM   16  C   UNL     1     -46.863  57.409 -59.927  1.00  0.00     0.030 A 
HETATM   17  N   UNL     1     -46.052  55.720 -61.118  1.00  0.00    -0.365 N 
HETATM   18  C   UNL     1     -43.756  55.583 -60.096  1.00  0.00     0.031 A 
HETATM   19  H   UNL     1     -45.979  54.978 -61.802  1.00  0.00     0.165 HD
HETATM   20  C   UNL     1     -47.155  56.507 -60.925  1.00  0.00     0.089 A 
HETATM   21  C   UNL     1     -42.934  56.181 -59.133  1.00  0.00     0.011 A 
ENDBRANCH  11  12
ENDBRANCH   4  11
BRANCH   1  22
HETATM   22  C   UNL     1     -41.796  54.471 -53.082  1.00  0.00     0.157 C 
BRANCH  22  23
HETATM   23  C   UNL     1     -40.961  53.217 -53.104  1.00  0.00    -0.023 A 
HETATM   24  C   UNL     1     -40.223  52.815 -51.994  1.00  0.00     0.125 A 
HETATM   25  N   UNL     1     -39.462  51.698 -51.950  1.00  0.00    -0.273 NA
HETATM   26  C   UNL     1     -39.459  50.920 -53.054  1.00  0.00     0.116 A 
HETATM   27  C   UNL     1     -40.177  51.214 -54.201  1.00  0.00     0.020 A 
HETATM   28  C   UNL     1     -40.937  52.379 -54.223  1.00  0.00     0.011 A 
ENDBRANCH  22  23
ENDBRANCH   1  22
TORSDOF 4
ENDMDL
MODEL 2
REMARK VINA RESULT:      -7.8      1.323      7.635
REMARK  4 active torsions:
REMARK  status: ('A' for Active; 'I' for Inactive)
REMARK    1  A    between atoms: C_5  and  C_6 
REMARK    2  A    between atoms: C_6  and  N_7 
REMARK    3  A    between atoms: N_10  and  C_12 
REMARK    4  A    between atoms: C_12  and  C_13 
ROOT
HETATM    1  N   UNL     1     -42.156  56.624 -55.717  1.00  0.00    -0.406 N 
HETATM    2  C   UNL     1     -41.551  57.151 -54.492  1.00  0.00     0.150 C 
HETATM    3  C   UNL     1     -42.352  57.143 -53.163  1.00  0.00     0.206 C 
HETATM    4  N   UNL     1     -42.341  55.787 -52.464  1.00  0.00    -0.061 N 
HETATM    5  H   UNL     1     -42.863  55.955 -51.597  1.00  0.00     0.280 HD
HETATM    6  C   UNL     1     -43.086  54.702 -53.190  1.00  0.00     0.242 C 
HETATM    7  C   UNL     1     -43.874  55.232 -54.384  1.00  0.00     0.029 C 
HETATM    8  C   UNL     1     -42.964  55.414 -55.613  1.00  0.00     0.123 C 
HETATM    9  C   UNL     1     -43.817  57.558 -53.333  1.00  0.00     0.035 C 
HETATM   10  C   UNL     1     -44.671  56.486 -54.014  1.00  0.00     0.010 C 
ENDROOT
BRANCH   4  11
HETATM   11  C   UNL     1     -40.987  55.302 -51.977  1.00  0.00     0.274 C 
BRANCH  11  12
HETATM   12  C   UNL     1     -40.606  53.937 -52.478  1.00  0.00    -0.032 A 
HETATM   13  C   UNL     1     -40.371  52.889 -51.567  1.00  0.00     0.022 A 
HETATM   14  C   UNL     1     -40.015  51.613 -52.045  1.00  0.00    -0.008 A 
HETATM   15  C   UNL     1     -39.907  51.417 -53.421  1.00  0.00     0.042 A 
HETATM   16  C   UNL     1     -39.720  50.371 -51.420  1.00  0.00     0.030 A 
HETATM   17  N   UNL     1     -39.568  50.096 -53.617  1.00  0.00    -0.365 N 
HETATM   18  C   UNL     1     -40.137  52.436 -54.349  1.00  0.00     0.031 A 
HETATM   19  H   UNL     1     -39.437  49.661 -54.521  1.00  0.00     0.165 HD
HETATM   20  C   UNL     1     -39.450  49.457 -52.412  1.00  0.00     0.089 A 
HETATM   21  C   UNL     1     -40.487  53.697 -53.854  1.00  0.00     0.011 A 
ENDBRANCH  11  12
ENDBRANCH   4  11
BRANCH   1  22
HETATM   22  C   UNL     1     -42.733  57.628 -56.629  1.00  0.00     0.157 C 
BRANCH  22  23
HETATM   23  C   UNL     1     -43.433  57.052 -57.832  1.00  0.00    -0.023 A 
HETATM   24  C   UNL     1     -44.723  57.445 -58.180  1.00  0.00     0.125 A 
HETATM   25  N   UNL     1     -45.400  56.970 -59.250  1.00  0.00    -0.273 NA
HETATM   26  C   UNL     1     -44.753  56.083 -60.036  1.00  0.00     0.116 A 
HETATM   27  C   UNL     1     -43.462  55.644 -59.794  1.00  0.00     0.020 A 
HETATM   28  C   UNL     1     -42.795  56.137 -58.676  1.00  0.00     0.011 A 
ENDBRANCH  22  23
ENDBRANCH   1  22
TORSDOF 4
ENDMDL
MODEL 3
REMARK VINA RESULT:      -7.8      3.809      8.283
REMARK  4 active torsions:
REMARK  status: ('A' for Active; 'I' for Inactive)
REMARK    1  A    between atoms: C_5  and  C_6 
REMARK    2  A    between atoms: C_6  and  N_7 
REMARK    3  A    between atoms: N_10  and  C_12 
REMARK    4  A    between atoms: C_12  and  C_13 
ROOT
HETATM    1  N   UNL     1     -42.389  58.983 -52.269  1.00  0.00    -0.406 N 
HETATM    2  C   UNL     1     -42.690  57.755 -51.530  1.00  0.00     0.150 C 
HETATM    3  C   UNL     1     -43.033  56.451 -52.296  1.00  0.00     0.206 C 
HETATM    4  N   UNL     1     -41.800  55.717 -52.813  1.00  0.00    -0.061 N 
HETATM    5  H   UNL     1     -42.184  54.869 -53.246  1.00  0.00     0.280 HD
HETATM    6  C   UNL     1     -41.054  56.435 -53.903  1.00  0.00     0.242 C 
HETATM    7  C   UNL     1     -41.801  57.664 -54.410  1.00  0.00     0.029 C 
HETATM    8  C   UNL     1     -41.581  58.871 -53.478  1.00  0.00     0.123 C 
HETATM    9  C   UNL     1     -43.967  56.673 -53.490  1.00  0.00     0.035 C 
HETATM   10  C   UNL     1     -43.276  57.351 -54.676  1.00  0.00     0.010 C 
ENDROOT
BRANCH   4  11
HETATM   11  C   UNL     1     -40.855  55.178 -51.754  1.00  0.00     0.274 C 
BRANCH  11  12
HETATM   12  C   UNL     1     -40.506  53.725 -51.924  1.00  0.00    -0.032 A 
HETATM   13  C   UNL     1     -40.437  53.160 -53.213  1.00  0.00     0.022 A 
HETATM   14  C   UNL     1     -40.109  51.799 -53.363  1.00  0.00    -0.008 A 
HETATM   15  C   UNL     1     -39.853  51.040 -52.222  1.00  0.00     0.042 A 
HETATM   16  C   UNL     1     -39.953  50.939 -54.484  1.00  0.00     0.030 A 
HETATM   17  N   UNL     1     -39.544  49.765 -52.645  1.00  0.00    -0.365 N 
HETATM   18  C   UNL     1     -39.911  51.572 -50.932  1.00  0.00     0.031 A 
HETATM   19  H   UNL     1     -39.298  48.997 -52.033  1.00  0.00     0.165 HD
HETATM   20  C   UNL     1     -39.606  49.695 -54.011  1.00  0.00     0.089 A 
HETATM   21  C   UNL     1     -40.242  52.926 -50.804  1.00  0.00     0.011 A 
ENDBRANCH  11  12
ENDBRANCH   4  11
BRANCH   1  22
HETATM   22  C   UNL     1     -43.505  59.938 -52.405  1.00  0.00     0.157 C 
BRANCH  22  23
HETATM   23  C   UNL     1     -44.143  60.342 -51.102  1.00  0.00    -0.023 A 
HETATM   24  C   UNL     1     -45.417  59.903 -50.749  1.00  0.00     0.125 A 
HETATM   25  N   UNL     1     -46.040  60.226 -49.593  1.00  0.00    -0.273 NA
HETATM   26  C   UNL     1     -45.351  60.997 -48.725  1.00  0.00     0.116 A 
HETATM   27  C   UNL     1     -44.071  61.467 -48.966  1.00  0.00     0.020 A 
HETATM   28  C   UNL     1     -43.461  61.133 -50.172  1.00  0.00     0.011 A 
ENDBRANCH  22  23
ENDBRANCH   1  22
TORSDOF 4
ENDMDL
MODEL 4
REMARK VINA RESULT:      -7.7      3.748      6.577
REMARK  4 active torsions:
REMARK  status: ('A' for Active; 'I' for Inactive)
REMARK    1  A    between atoms: C_5  and  C_6 
REMARK    2  A    between atoms: C_6  and  N_7 
REMARK    3  A    between atoms: N_10  and  C_12 
REMARK    4  A    between atoms: C_12  and  C_13 
ROOT
HETATM    1  N   UNL     1     -41.550  54.103 -53.032  1.00  0.00    -0.406 N 
HETATM    2  C   UNL     1     -41.475  55.299 -52.189  1.00  0.00     0.150 C 
HETATM    3  C   UNL     1     -41.739  56.699 -52.801  1.00  0.00     0.206 C 
HETATM    4  N   UNL     1     -43.223  57.020 -52.947  1.00  0.00    -0.061 N 
HETATM    5  H   UNL     1     -43.231  57.979 -53.314  1.00  0.00     0.280 HD
HETATM    6  C   UNL     1     -43.948  56.183 -53.964  1.00  0.00     0.242 C 
HETATM    7  C   UNL     1     -43.002  55.317 -54.789  1.00  0.00     0.029 C 
HETATM    8  C   UNL     1     -42.616  54.036 -54.025  1.00  0.00     0.123 C 
HETATM    9  C   UNL     1     -41.092  56.895 -54.176  1.00  0.00     0.035 C 
HETATM   10  C   UNL     1     -41.801  56.122 -55.290  1.00  0.00     0.010 C 
ENDROOT
BRANCH   4  11
HETATM   11  C   UNL     1     -44.009  57.129 -51.653  1.00  0.00     0.274 C 
BRANCH  11  12
HETATM   12  C   UNL     1     -44.314  58.540 -51.236  1.00  0.00    -0.032 A 
HETATM   13  C   UNL     1     -43.272  59.477 -51.094  1.00  0.00     0.022 A 
HETATM   14  C   UNL     1     -43.567  60.797 -50.703  1.00  0.00    -0.008 A 
HETATM   15  C   UNL     1     -44.895  61.148 -50.468  1.00  0.00     0.042 A 
HETATM   16  C   UNL     1     -42.779  61.959 -50.477  1.00  0.00     0.030 A 
HETATM   17  N   UNL     1     -44.907  62.482 -50.121  1.00  0.00    -0.365 N 
HETATM   18  C   UNL     1     -45.950  60.243 -50.603  1.00  0.00     0.031 A 
HETATM   19  H   UNL     1     -45.740  63.017 -49.909  1.00  0.00     0.165 HD
HETATM   20  C   UNL     1     -43.631  62.979 -50.120  1.00  0.00     0.089 A 
HETATM   21  C   UNL     1     -45.636  58.935 -50.990  1.00  0.00     0.011 A 
ENDBRANCH  11  12
ENDBRANCH   4  11
BRANCH   1  22
HETATM   22  C   UNL     1     -40.261  53.588 -53.528  1.00  0.00     0.157 C 
BRANCH  22  23
HETATM   23  C   UNL     1     -40.018  52.130 -53.240  1.00  0.00    -0.023 A 
HETATM   24  C   UNL     1     -39.692  51.686 -51.960  1.00  0.00     0.125 A 
HETATM   25  N   UNL     1     -39.469  50.392 -51.638  1.00  0.00    -0.273 NA
HETATM   26  C   UNL     1     -39.610  49.484 -52.628  1.00  0.00     0.116 A 
HETATM   27  C   UNL     1     -39.955  49.816 -53.928  1.00  0.00     0.020 A 
HETATM   28  C   UNL     1     -40.161  51.157 -54.235  1.00  0.00     0.011 A 
ENDBRANCH  22  23
ENDBRANCH   1  22
TORSDOF 4
ENDMDL
MODEL 5
REMARK VINA RESULT:      -7.7      1.985      2.416
REMARK  4 active torsions:
REMARK  status: ('A' for Active; 'I' for Inactive)
REMARK    1  A    between atoms: C_5  and  C_6 
REMARK    2  A    between atoms: C_6  and  N_7 
REMARK    3  A    between atoms: N_10  and  C_12 
REMARK    4  A    between atoms: C_12  and  C_13 
ROOT
HETATM    1  N   UNL     1     -41.359  54.679 -53.430  1.00  0.00    -0.406 N 
HETATM    2  C   UNL     1     -42.791  54.875 -53.195  1.00  0.00     0.150 C 
HETATM    3  C   UNL     1     -43.308  56.224 -52.629  1.00  0.00     0.206 C 
HETATM    4  N   UNL     1     -43.437  57.310 -53.693  1.00  0.00    -0.061 N 
HETATM    5  H   UNL     1     -43.827  58.109 -53.180  1.00  0.00     0.280 HD
HETATM    6  C   UNL     1     -42.131  57.785 -54.265  1.00  0.00     0.242 C 
HETATM    7  C   UNL     1     -40.926  57.223 -53.518  1.00  0.00     0.029 C 
HETATM    8  C   UNL     1     -40.600  55.792 -53.987  1.00  0.00     0.123 C 
HETATM    9  C   UNL     1     -42.434  56.788 -51.504  1.00  0.00     0.035 C 
HETATM   10  C   UNL     1     -41.101  57.350 -52.002  1.00  0.00     0.010 C 
ENDROOT
BRANCH   4  11
HETATM   11  C   UNL     1     -44.462  57.053 -54.783  1.00  0.00     0.274 C 
BRANCH  11  12
HETATM   12  C   UNL     1     -43.896  57.069 -56.175  1.00  0.00    -0.032 A 
HETATM   13  C   UNL     1     -43.999  58.230 -56.968  1.00  0.00     0.022 A 
HETATM   14  C   UNL     1     -43.465  58.236 -58.271  1.00  0.00    -0.008 A 
HETATM   15  C   UNL     1     -42.839  57.085 -58.746  1.00  0.00     0.042 A 
HETATM   16  C   UNL     1     -43.395  59.210 -59.304  1.00  0.00     0.030 A 
HETATM   17  N   UNL     1     -42.397  57.362 -60.023  1.00  0.00    -0.365 N 
HETATM   18  C   UNL     1     -42.719  55.921 -57.984  1.00  0.00     0.031 A 
HETATM   19  H   UNL     1     -41.891  56.714 -60.612  1.00  0.00     0.165 HD
HETATM   20  C   UNL     1     -42.733  58.643 -60.369  1.00  0.00     0.089 A 
HETATM   21  C   UNL     1     -43.258  55.933 -56.693  1.00  0.00     0.011 A 
ENDBRANCH  11  12
ENDBRANCH   4  11
BRANCH   1  22
HETATM   22  C   UNL     1     -40.630  53.953 -52.373  1.00  0.00     0.157 C 
BRANCH  22  23
HETATM   23  C   UNL     1     -40.275  52.531 -52.722  1.00  0.00    -0.023 A 
HETATM   24  C   UNL     1     -39.807  51.641 -51.758  1.00  0.00     0.125 A 
HETATM   25  N   UNL     1     -39.479  50.353 -52.008  1.00  0.00    -0.273 NA
HETATM   26  C   UNL     1     -39.656  49.913 -53.272  1.00  0.00     0.116 A 
HETATM   27  C   UNL     1     -40.139  50.707 -54.299  1.00  0.00     0.020 A 
HETATM   28  C   UNL     1     -40.452  52.034 -54.017  1.00  0.00     0.011 A 
ENDBRANCH  22  23
ENDBRANCH   1  22
TORSDOF 4
ENDMDL
MODEL 6
REMARK VINA RESULT:      -7.6      4.550      8.980
REMARK  4 active torsions:
REMARK  status: ('A' for Active; 'I' for Inactive)
REMARK    1  A    between atoms: C_5  and  C_6 
REMARK    2  A    between atoms: C_6  and  N_7 
REMARK    3  A    between atoms: N_10  and  C_12 
REMARK    4  A    between atoms: C_12  and  C_13 
ROOT
HETATM    1  N   UNL     1     -43.287  59.907 -51.025  1.00  0.00    -0.406 N 
HETATM    2  C   UNL     1     -43.847  58.609 -51.408  1.00  0.00     0.150 C 
HETATM    3  C   UNL     1     -43.182  57.778 -52.536  1.00  0.00     0.206 C 
HETATM    4  N   UNL     1     -41.960  56.996 -52.064  1.00  0.00    -0.061 N 
HETATM    5  H   UNL     1     -41.669  56.472 -52.897  1.00  0.00     0.280 HD
HETATM    6  C   UNL     1     -40.782  57.846 -51.679  1.00  0.00     0.242 C 
HETATM    7  C   UNL     1     -40.983  59.317 -52.031  1.00  0.00     0.029 C 
HETATM    8  C   UNL     1     -41.835  60.032 -50.965  1.00  0.00     0.123 C 
HETATM    9  C   UNL     1     -42.748  58.621 -53.740  1.00  0.00     0.035 C 
HETATM   10  C   UNL     1     -41.514  59.481 -53.458  1.00  0.00     0.010 C 
ENDROOT
BRANCH   4  11
HETATM   11  C   UNL     1     -42.223  55.911 -51.035  1.00  0.00     0.274 C 
BRANCH  11  12
HETATM   12  C   UNL     1     -41.471  54.633 -51.284  1.00  0.00    -0.032 A 
HETATM   13  C   UNL     1     -41.243  54.191 -52.602  1.00  0.00     0.022 A 
HETATM   14  C   UNL     1     -40.537  52.993 -52.825  1.00  0.00    -0.008 A 
HETATM   15  C   UNL     1     -40.074  52.271 -51.727  1.00  0.00     0.042 A 
HETATM   16  C   UNL     1     -40.141  52.283 -53.992  1.00  0.00     0.030 A 
HETATM   17  N   UNL     1     -39.411  51.166 -52.217  1.00  0.00    -0.365 N 
HETATM   18  C   UNL     1     -40.282  52.685 -50.409  1.00  0.00     0.031 A 
HETATM   19  H   UNL     1     -38.955  50.466 -51.648  1.00  0.00     0.165 HD
HETATM   20  C   UNL     1     -39.451  51.165 -53.586  1.00  0.00     0.089 A 
HETATM   21  C   UNL     1     -40.988  53.876 -50.207  1.00  0.00     0.011 A 
ENDBRANCH  11  12
ENDBRANCH   4  11
BRANCH   1  22
HETATM   22  C   UNL     1     -43.946  61.087 -51.613  1.00  0.00     0.157 C 
BRANCH  22  23
HETATM   23  C   UNL     1     -43.678  62.379 -50.886  1.00  0.00    -0.023 A 
HETATM   24  C   UNL     1     -43.034  63.445 -51.510  1.00  0.00     0.125 A 
HETATM   25  N   UNL     1     -42.772  64.630 -50.914  1.00  0.00    -0.273 NA
HETATM   26  C   UNL     1     -43.200  64.780 -49.642  1.00  0.00     0.116 A 
HETATM   27  C   UNL     1     -43.871  63.794 -48.938  1.00  0.00     0.020 A 
HETATM   28  C   UNL     1     -44.112  62.578 -49.571  1.00  0.00     0.011 A 
ENDBRANCH  22  23
ENDBRANCH   1  22
TORSDOF 4
ENDMDL
MODEL 7
REMARK VINA RESULT:      -7.5     15.428     17.395
REMARK  4 active torsions:
REMARK  status: ('A' for Active; 'I' for Inactive)
REMARK    1  A    between atoms: C_5  and  C_6 
REMARK    2  A    between atoms: C_6  and  N_7 
REMARK    3  A    between atoms: N_10  and  C_12 
REMARK    4  A    between atoms: C_12  and  C_13 
ROOT
HETATM    1  N   UNL     1     -35.844  39.927 -55.171  1.00  0.00    -0.406 N 
HETATM    2  C   UNL     1     -36.668  39.079 -56.036  1.00  0.00     0.150 C 
HETATM    3  C   UNL     1     -37.640  39.725 -57.058  1.00  0.00     0.206 C 
HETATM    4  N   UNL     1     -36.948  40.181 -58.339  1.00  0.00    -0.061 N 
HETATM    5  H   UNL     1     -37.717  40.535 -58.919  1.00  0.00     0.280 HD
HETATM    6  C   UNL     1     -36.000  41.335 -58.161  1.00  0.00     0.242 C 
HETATM    7  C   UNL     1     -36.077  41.945 -56.765  1.00  0.00     0.029 C 
HETATM    8  C   UNL     1     -35.252  41.125 -55.755  1.00  0.00     0.123 C 
HETATM    9  C   UNL     1     -38.404  40.928 -56.497  1.00  0.00     0.035 C 
HETATM   10  C   UNL     1     -37.529  42.173 -56.335  1.00  0.00     0.010 C 
ENDROOT
BRANCH   4  11
HETATM   11  C   UNL     1     -36.335  39.083 -59.190  1.00  0.00     0.274 C 
BRANCH  11  12
HETATM   12  C   UNL     1     -37.135  38.737 -60.415  1.00  0.00    -0.032 A 
HETATM   13  C   UNL     1     -38.523  38.513 -60.314  1.00  0.00     0.022 A 
HETATM   14  C   UNL     1     -39.264  38.189 -61.466  1.00  0.00    -0.008 A 
HETATM   15  C   UNL     1     -38.601  38.103 -62.690  1.00  0.00     0.042 A 
HETATM   16  C   UNL     1     -40.637  37.914 -61.712  1.00  0.00     0.030 A 
HETATM   17  N   UNL     1     -39.548  37.794 -63.643  1.00  0.00    -0.365 N 
HETATM   18  C   UNL     1     -37.228  38.321 -62.821  1.00  0.00     0.031 A 
HETATM   19  H   UNL     1     -39.358  37.682 -64.630  1.00  0.00     0.165 HD
HETATM   20  C   UNL     1     -40.781  37.674 -63.059  1.00  0.00     0.089 A 
HETATM   21  C   UNL     1     -36.508  38.639 -61.664  1.00  0.00     0.011 A 
ENDBRANCH  11  12
ENDBRANCH   4  11
BRANCH   1  22
HETATM   22  C   UNL     1     -36.359  40.141 -53.806  1.00  0.00     0.157 C 
BRANCH  22  23
HETATM   23  C   UNL     1     -35.295  40.388 -52.769  1.00  0.00    -0.023 A 
HETATM   24  C   UNL     1     -34.224  39.514 -52.602  1.00  0.00     0.125 A 
HETATM   25  N   UNL     1     -33.236  39.685 -51.695  1.00  0.00    -0.273 NA
HETATM   26  C   UNL     1     -33.293  40.800 -50.935  1.00  0.00     0.116 A 
HETATM   27  C   UNL     1     -34.299  41.746 -51.037  1.00  0.00     0.020 A 
HETATM   28  C   UNL     1     -35.312  41.534 -51.968  1.00  0.00     0.011 A 
ENDBRANCH  22  23
ENDBRANCH   1  22
TORSDOF 4
ENDMDL
MODEL 8
REMARK VINA RESULT:      -7.3     15.762     19.062
REMARK  4 active torsions:
REMARK  status: ('A' for Active; 'I' for Inactive)
REMARK    1  A    between atoms: C_5  and  C_6 
REMARK    2  A    between atoms: C_6  and  N_7 
REMARK    3  A    between atoms: N_10  and  C_12 
REMARK    4  A    between atoms: C_12  and  C_13 
ROOT
HETATM    1  N   UNL     1     -36.478  39.648 -56.068  1.00  0.00    -0.406 N 
HETATM    2  C   UNL     1     -35.817  39.496 -54.770  1.00  0.00     0.150 C 
HETATM    3  C   UNL     1     -34.546  40.323 -54.444  1.00  0.00     0.206 C 
HETATM    4  N   UNL     1     -34.855  41.751 -54.005  1.00  0.00    -0.061 N 
HETATM    5  H   UNL     1     -33.932  42.144 -53.785  1.00  0.00     0.280 HD
HETATM    6  C   UNL     1     -35.429  42.627 -55.082  1.00  0.00     0.242 C 
HETATM    7  C   UNL     1     -35.399  41.962 -56.455  1.00  0.00     0.029 C 
HETATM    8  C   UNL     1     -36.582  40.991 -56.627  1.00  0.00     0.123 C 
HETATM    9  C   UNL     1     -33.557  40.408 -55.612  1.00  0.00     0.035 C 
HETATM   10  C   UNL     1     -34.034  41.328 -56.738  1.00  0.00     0.010 C 
ENDROOT
BRANCH   4  11
HETATM   11  C   UNL     1     -35.622  41.894 -52.703  1.00  0.00     0.274 C 
BRANCH  11  12
HETATM   12  C   UNL     1     -35.146  40.982 -51.606  1.00  0.00    -0.032 A 
HETATM   13  C   UNL     1     -33.815  41.059 -51.150  1.00  0.00     0.022 A 
HETATM   14  C   UNL     1     -33.378  40.202 -50.122  1.00  0.00    -0.008 A 
HETATM   15  C   UNL     1     -34.282  39.294 -49.573  1.00  0.00     0.042 A 
HETATM   16  C   UNL     1     -32.141  40.025 -49.444  1.00  0.00     0.030 A 
HETATM   17  N   UNL     1     -33.612  38.599 -48.589  1.00  0.00    -0.365 N 
HETATM   18  C   UNL     1     -35.608  39.196 -50.003  1.00  0.00     0.031 A 
HETATM   19  H   UNL     1     -34.024  37.881 -48.007  1.00  0.00     0.165 HD
HETATM   20  C   UNL     1     -32.316  39.032 -48.507  1.00  0.00     0.089 A 
HETATM   21  C   UNL     1     -36.023  40.055 -51.027  1.00  0.00     0.011 A 
ENDBRANCH  11  12
ENDBRANCH   4  11
BRANCH   1  22
HETATM   22  C   UNL     1     -36.149  38.625 -57.077  1.00  0.00     0.157 C 
BRANCH  22  23
HETATM   23  C   UNL     1     -36.860  38.795 -58.395  1.00  0.00    -0.023 A 
HETATM   24  C   UNL     1     -36.168  39.129 -59.557  1.00  0.00     0.125 A 
HETATM   25  N   UNL     1     -36.748  39.288 -60.767  1.00  0.00    -0.273 NA
HETATM   26  C   UNL     1     -38.079  39.072 -60.839  1.00  0.00     0.116 A 
HETATM   27  C   UNL     1     -38.856  38.712 -59.751  1.00  0.00     0.020 A 
HETATM   28  C   UNL     1     -38.236  38.572 -58.513  1.00  0.00     0.011 A 
ENDBRANCH  22  23
ENDBRANCH   1  22
TORSDOF 4
ENDMDL
MODEL 9
REMARK VINA RESULT:      -7.2     15.610     17.970
REMARK  4 active torsions:
REMARK  status: ('A' for Active; 'I' for Inactive)
REMARK    1  A    between atoms: C_5  and  C_6 
REMARK    2  A    between atoms: C_6  and  N_7 
REMARK    3  A    between atoms: N_10  and  C_12 
REMARK    4  A    between atoms: C_12  and  C_13 
ROOT
HETATM    1  N   UNL     1     -34.369  39.498 -50.463  1.00  0.00    -0.406 N 
HETATM    2  C   UNL     1     -34.384  39.842 -51.886  1.00  0.00     0.150 C 
HETATM    3  C   UNL     1     -35.485  39.263 -52.814  1.00  0.00     0.206 C 
HETATM    4  N   UNL     1     -36.806  40.021 -52.722  1.00  0.00    -0.061 N 
HETATM    5  H   UNL     1     -37.403  39.556 -53.415  1.00  0.00     0.280 HD
HETATM    6  C   UNL     1     -37.518  39.882 -51.405  1.00  0.00     0.242 C 
HETATM    7  C   UNL     1     -36.867  38.844 -50.496  1.00  0.00     0.029 C 
HETATM    8  C   UNL     1     -35.647  39.434 -49.763  1.00  0.00     0.123 C 
HETATM    9  C   UNL     1     -35.787  37.784 -52.553  1.00  0.00     0.035 C 
HETATM   10  C   UNL     1     -36.564  37.549 -51.255  1.00  0.00     0.010 C 
ENDROOT
BRANCH   4  11
HETATM   11  C   UNL     1     -36.777  41.465 -53.189  1.00  0.00     0.274 C 
BRANCH  11  12
HETATM   12  C   UNL     1     -36.618  41.627 -54.675  1.00  0.00    -0.032 A 
HETATM   13  C   UNL     1     -37.585  41.098 -55.552  1.00  0.00     0.022 A 
HETATM   14  C   UNL     1     -37.428  41.254 -56.943  1.00  0.00    -0.008 A 
HETATM   15  C   UNL     1     -36.312  41.939 -57.420  1.00  0.00     0.042 A 
HETATM   16  C   UNL     1     -38.195  40.859 -58.073  1.00  0.00     0.030 A 
HETATM   17  N   UNL     1     -36.410  41.964 -58.795  1.00  0.00    -0.365 N 
HETATM   18  C   UNL     1     -35.338  42.477 -56.576  1.00  0.00     0.031 A 
HETATM   19  H   UNL     1     -35.744  42.410 -59.413  1.00  0.00     0.165 HD
HETATM   20  C   UNL     1     -37.543  41.310 -59.198  1.00  0.00     0.089 A 
HETATM   21  C   UNL     1     -35.511  42.309 -55.197  1.00  0.00     0.011 A 
ENDBRANCH  11  12
ENDBRANCH   4  11
BRANCH   1  22
HETATM   22  C   UNL     1     -33.442  38.419 -50.074  1.00  0.00     0.157 C 
BRANCH  22  23
HETATM   23  C   UNL     1     -32.591  38.730 -48.871  1.00  0.00    -0.023 A 
HETATM   24  C   UNL     1     -31.796  39.872 -48.818  1.00  0.00     0.125 A 
HETATM   25  N   UNL     1     -31.017  40.208 -47.765  1.00  0.00    -0.273 NA
HETATM   26  C   UNL     1     -31.053  39.387 -46.693  1.00  0.00     0.116 A 
HETATM   27  C   UNL     1     -31.828  38.240 -46.633  1.00  0.00     0.020 A 
HETATM   28  C   UNL     1     -32.606  37.910 -47.738  1.00  0.00     0.011 A 
ENDBRANCH  22  23
ENDBRANCH   1  22
TORSDOF 4
ENDMDL
MODEL 10
REMARK VINA RESULT:      -7.1      1.745      8.525
REMARK  4 active torsions:
REMARK  status: ('A' for Active; 'I' for Inactive)
REMARK    1  A    between atoms: C_5  and  C_6 
REMARK    2  A    between atoms: C_6  and  N_7 
REMARK    3  A    between atoms: N_10  and  C_12 
REMARK    4  A    between atoms: C_12  and  C_13 
ROOT
HETATM    1  N   UNL     1     -45.074  57.412 -58.355  1.00  0.00    -0.406 N 
HETATM    2  C   UNL     1     -43.983  56.440 -58.463  1.00  0.00     0.150 C 
HETATM    3  C   UNL     1     -42.650  56.681 -57.708  1.00  0.00     0.206 C 
HETATM    4  N   UNL     1     -42.716  56.289 -56.235  1.00  0.00    -0.061 N 
HETATM    5  H   UNL     1     -41.763  56.461 -55.894  1.00  0.00     0.280 HD
HETATM    6  C   UNL     1     -43.615  57.153 -55.396  1.00  0.00     0.242 C 
HETATM    7  C   UNL     1     -44.125  58.375 -56.155  1.00  0.00     0.029 C 
HETATM    8  C   UNL     1     -45.325  58.011 -57.050  1.00  0.00     0.123 C 
HETATM    9  C   UNL     1     -42.166  58.134 -57.774  1.00  0.00     0.035 C 
HETATM   10  C   UNL     1     -42.991  59.082 -56.901  1.00  0.00     0.010 C 
ENDROOT
BRANCH   4  11
HETATM   11  C   UNL     1     -42.935  54.815 -55.950  1.00  0.00     0.274 C 
BRANCH  11  12
HETATM   12  C   UNL     1     -42.074  54.267 -54.846  1.00  0.00    -0.032 A 
HETATM   13  C   UNL     1     -42.525  54.301 -53.512  1.00  0.00     0.022 A 
HETATM   14  C   UNL     1     -41.712  53.786 -52.485  1.00  0.00    -0.008 A 
HETATM   15  C   UNL     1     -40.470  53.246 -52.818  1.00  0.00     0.042 A 
HETATM   16  C   UNL     1     -41.859  53.664 -51.076  1.00  0.00     0.030 A 
HETATM   17  N   UNL     1     -39.893  52.804 -51.647  1.00  0.00    -0.365 N 
HETATM   18  C   UNL     1     -39.996  53.196 -54.131  1.00  0.00     0.031 A 
HETATM   19  H   UNL     1     -38.991  52.351 -51.582  1.00  0.00     0.165 HD
HETATM   20  C   UNL     1     -40.725  53.056 -50.589  1.00  0.00     0.089 A 
HETATM   21  C   UNL     1     -40.818  53.716 -55.137  1.00  0.00     0.011 A 
ENDBRANCH  11  12
ENDBRANCH   4  11
BRANCH   1  22
HETATM   22  C   UNL     1     -45.186  58.374 -59.466  1.00  0.00     0.157 C 
BRANCH  22  23
HETATM   23  C   UNL     1     -46.362  58.140 -60.379  1.00  0.00    -0.023 A 
HETATM   24  C   UNL     1     -47.038  59.199 -60.980  1.00  0.00     0.125 A 
HETATM   25  N   UNL     1     -48.093  59.053 -61.813  1.00  0.00    -0.273 NA
HETATM   26  C   UNL     1     -48.478  57.789 -62.092  1.00  0.00     0.116 A 
HETATM   27  C   UNL     1     -47.859  56.666 -61.569  1.00  0.00     0.020 A 
HETATM   28  C   UNL     1     -46.787  56.847 -60.701  1.00  0.00     0.011 A 
ENDBRANCH  22  23
ENDBRANCH   1  22
TORSDOF 4
ENDMDL
