MODEL 1
REMARK VINA RESULT:      -8.2      0.000      0.000
REMARK  2 active torsions:
REMARK  status: ('A' for Active; 'I' for Inactive)
REMARK    1  A    between atoms: C_11  and  N_12 
REMARK       I    between atoms: N_12  and  C_13 
REMARK    2  A    between atoms: C_13  and  C_14 
ROOT
HETATM    1  N   UNL     1     -41.019  55.780 -52.732  1.00  0.00    -0.351 N 
HETATM    2  C   UNL     1     -40.940  54.611 -53.474  1.00  0.00     0.273 C 
HETATM    3  O   UNL     1     -41.194  54.559 -54.672  1.00  0.00    -0.266 OA
HETATM    4  H   UNL     1     -41.002  55.572 -51.731  1.00  0.00     0.163 HD
ENDROOT
BRANCH   1   5
HETATM    5  C   UNL     1     -41.636  56.991 -53.232  1.00  0.00     0.089 C 
HETATM    6  C   UNL     1     -41.074  58.289 -52.638  1.00  0.00     0.063 C 
HETATM    7  C   UNL     1     -41.452  58.553 -51.177  1.00  0.00     0.121 C 
HETATM    8  N   UNL     1     -42.949  58.390 -51.006  1.00  0.00    -0.059 N 
HETATM    9  C   UNL     1     -40.703  57.683 -50.163  1.00  0.00     0.046 C 
HETATM   10  C   UNL     1     -41.144  60.026 -50.834  1.00  0.00     0.046 C 
HETATM   11  C   UNL     1     -43.668  57.213 -51.630  1.00  0.00     0.121 C 
HETATM   12  H   UNL     1     -43.385  59.245 -51.381  1.00  0.00     0.279 HD
HETATM   13  H   UNL     1     -43.168  58.417 -49.999  1.00  0.00     0.279 HD
HETATM   14  C   UNL     1     -43.562  55.985 -50.718  1.00  0.00     0.046 C 
HETATM   15  C   UNL     1     -45.158  57.611 -51.691  1.00  0.00     0.046 C 
HETATM   16  C   UNL     1     -43.159  56.969 -53.062  1.00  0.00     0.063 C 
ENDBRANCH   1   5
BRANCH   2  17
HETATM   17  C   UNL     1     -40.508  53.459 -52.671  1.00  0.00     0.157 A 
HETATM   18  N   UNL     1     -40.322  53.581 -51.337  1.00  0.00    -0.168 NA
HETATM   19  N   UNL     1     -39.926  52.347 -50.959  1.00  0.00    -0.277 N 
HETATM   20  H   UNL     1     -39.719  52.180 -49.981  1.00  0.00     0.189 HD
HETATM   21  C   UNL     1     -39.849  51.442 -51.980  1.00  0.00     0.063 A 
HETATM   22  C   UNL     1     -40.234  52.136 -53.121  1.00  0.00     0.028 A 
HETATM   23  C   UNL     1     -39.483  50.092 -51.995  1.00  0.00     0.032 A 
HETATM   24  C   UNL     1     -40.265  51.455 -54.354  1.00  0.00     0.016 A 
HETATM   25  C   UNL     1     -39.906  50.103 -54.391  1.00  0.00     0.001 A 
HETATM   26  C   UNL     1     -39.519  49.436 -53.230  1.00  0.00     0.002 A 
ENDBRANCH   2  17
TORSDOF 2
ENDMDL
MODEL 2
REMARK VINA RESULT:      -7.9      1.537      3.019
REMARK  2 active torsions:
REMARK  status: ('A' for Active; 'I' for Inactive)
REMARK    1  A    between atoms: C_11  and  N_12 
REMARK       I    between atoms: N_12  and  C_13 
REMARK    2  A    between atoms: C_13  and  C_14 
ROOT
HETATM    1  N   UNL     1     -41.834  54.943 -51.485  1.00  0.00    -0.351 N 
HETATM    2  C   UNL     1     -40.694  54.165 -51.341  1.00  0.00     0.273 C 
HETATM    3  O   UNL     1     -39.998  54.177 -50.333  1.00  0.00    -0.266 OA
HETATM    4  H   UNL     1     -42.129  54.969 -52.464  1.00  0.00     0.163 HD
ENDROOT
BRANCH   1   5
HETATM    5  C   UNL     1     -42.178  56.014 -50.573  1.00  0.00     0.089 C 
HETATM    6  C   UNL     1     -43.598  56.568 -50.742  1.00  0.00     0.063 C 
HETATM    7  C   UNL     1     -43.822  57.407 -52.006  1.00  0.00     0.121 C 
HETATM    8  N   UNL     1     -42.731  58.452 -52.118  1.00  0.00    -0.059 N 
HETATM    9  C   UNL     1     -43.913  56.590 -53.299  1.00  0.00     0.046 C 
HETATM   10  C   UNL     1     -45.145  58.189 -51.863  1.00  0.00     0.046 C 
HETATM   11  C   UNL     1     -41.284  58.079 -51.869  1.00  0.00     0.121 C 
HETATM   12  H   UNL     1     -42.969  59.202 -51.453  1.00  0.00     0.279 HD
HETATM   13  H   UNL     1     -42.803  58.903 -53.042  1.00  0.00     0.279 HD
HETATM   14  C   UNL     1     -40.666  57.485 -53.140  1.00  0.00     0.046 C 
HETATM   15  C   UNL     1     -40.549  59.405 -51.579  1.00  0.00     0.046 C 
HETATM   16  C   UNL     1     -41.169  57.165 -50.637  1.00  0.00     0.063 C 
ENDBRANCH   1   5
BRANCH   2  17
HETATM   17  C   UNL     1     -40.429  53.327 -52.518  1.00  0.00     0.157 A 
HETATM   18  N   UNL     1     -40.513  53.844 -53.765  1.00  0.00    -0.168 NA
HETATM   19  N   UNL     1     -40.222  52.794 -54.562  1.00  0.00    -0.277 N 
HETATM   20  H   UNL     1     -40.220  52.932 -55.567  1.00  0.00     0.189 HD
HETATM   21  C   UNL     1     -39.955  51.633 -53.892  1.00  0.00     0.063 A 
HETATM   22  C   UNL     1     -40.074  51.948 -52.543  1.00  0.00     0.028 A 
HETATM   23  C   UNL     1     -39.622  50.355 -54.351  1.00  0.00     0.032 A 
HETATM   24  C   UNL     1     -39.845  50.940 -51.587  1.00  0.00     0.016 A 
HETATM   25  C   UNL     1     -39.507  49.654 -52.025  1.00  0.00     0.001 A 
HETATM   26  C   UNL     1     -39.400  49.369 -53.384  1.00  0.00     0.002 A 
ENDBRANCH   2  17
TORSDOF 2
ENDMDL
MODEL 3
REMARK VINA RESULT:      -7.8      2.164      3.488
REMARK  2 active torsions:
REMARK  status: ('A' for Active; 'I' for Inactive)
REMARK    1  A    between atoms: C_11  and  N_12 
REMARK       I    between atoms: N_12  and  C_13 
REMARK    2  A    between atoms: C_13  and  C_14 
ROOT
HETATM    1  N   UNL     1     -43.030  55.580 -52.745  1.00  0.00    -0.351 N 
HETATM    2  C   UNL     1     -43.030  55.026 -51.473  1.00  0.00     0.273 C 
HETATM    3  O   UNL     1     -43.885  55.279 -50.632  1.00  0.00    -0.266 OA
HETATM    4  H   UNL     1     -42.126  55.432 -53.199  1.00  0.00     0.163 HD
ENDROOT
BRANCH   1   5
HETATM    5  C   UNL     1     -43.886  56.685 -53.124  1.00  0.00     0.089 C 
HETATM    6  C   UNL     1     -44.314  56.687 -54.597  1.00  0.00     0.063 C 
HETATM    7  C   UNL     1     -43.205  57.042 -55.595  1.00  0.00     0.121 C 
HETATM    8  N   UNL     1     -42.512  58.313 -55.148  1.00  0.00    -0.059 N 
HETATM    9  C   UNL     1     -42.180  55.927 -55.824  1.00  0.00     0.046 C 
HETATM   10  C   UNL     1     -43.844  57.366 -56.963  1.00  0.00     0.046 C 
HETATM   11  C   UNL     1     -42.124  58.505 -53.697  1.00  0.00     0.121 C 
HETATM   12  H   UNL     1     -43.132  59.095 -55.401  1.00  0.00     0.279 HD
HETATM   13  H   UNL     1     -41.677  58.454 -55.736  1.00  0.00     0.279 HD
HETATM   14  C   UNL     1     -40.778  57.826 -53.415  1.00  0.00     0.046 C 
HETATM   15  C   UNL     1     -41.919  60.023 -53.511  1.00  0.00     0.046 C 
HETATM   16  C   UNL     1     -43.261  58.039 -52.771  1.00  0.00     0.063 C 
ENDBRANCH   1   5
BRANCH   2  17
HETATM   17  C   UNL     1     -41.909  54.101 -51.257  1.00  0.00     0.157 A 
HETATM   18  N   UNL     1     -41.389  53.926 -50.021  1.00  0.00    -0.168 NA
HETATM   19  N   UNL     1     -40.395  53.035 -50.220  1.00  0.00    -0.277 N 
HETATM   20  H   UNL     1     -39.842  52.737 -49.424  1.00  0.00     0.189 HD
HETATM   21  C   UNL     1     -40.251  52.631 -51.518  1.00  0.00     0.063 A 
HETATM   22  C   UNL     1     -41.237  53.306 -52.228  1.00  0.00     0.028 A 
HETATM   23  C   UNL     1     -39.353  51.741 -52.115  1.00  0.00     0.032 A 
HETATM   24  C   UNL     1     -41.348  53.085 -53.615  1.00  0.00     0.016 A 
HETATM   25  C   UNL     1     -40.462  52.195 -54.233  1.00  0.00     0.001 A 
HETATM   26  C   UNL     1     -39.480  51.537 -53.494  1.00  0.00     0.002 A 
ENDBRANCH   2  17
TORSDOF 2
ENDMDL
MODEL 4
REMARK VINA RESULT:      -7.6      1.588      2.230
REMARK  2 active torsions:
REMARK  status: ('A' for Active; 'I' for Inactive)
REMARK    1  A    between atoms: C_11  and  N_12 
REMARK       I    between atoms: N_12  and  C_13 
REMARK    2  A    between atoms: C_13  and  C_14 
ROOT
HETATM    1  N   UNL     1     -41.313  56.718 -53.477  1.00  0.00    -0.351 N 
HETATM    2  C   UNL     1     -41.317  55.868 -54.573  1.00  0.00     0.273 C 
HETATM    3  O   UNL     1     -41.703  56.210 -55.685  1.00  0.00    -0.266 OA
HETATM    4  H   UNL     1     -41.184  56.188 -52.613  1.00  0.00     0.163 HD
ENDROOT
BRANCH   1   5
HETATM    5  C   UNL     1     -41.982  58.002 -53.474  1.00  0.00     0.089 C 
HETATM    6  C   UNL     1     -41.336  59.059 -52.569  1.00  0.00     0.063 C 
HETATM    7  C   UNL     1     -41.513  58.823 -51.065  1.00  0.00     0.121 C 
HETATM    8  N   UNL     1     -42.975  58.560 -50.765  1.00  0.00    -0.059 N 
HETATM    9  C   UNL     1     -40.641  57.701 -50.493  1.00  0.00     0.046 C 
HETATM   10  C   UNL     1     -41.151  60.118 -50.305  1.00  0.00     0.046 C 
HETATM   11  C   UNL     1     -43.780  57.621 -51.639  1.00  0.00     0.121 C 
HETATM   12  H   UNL     1     -43.451  59.473 -50.782  1.00  0.00     0.279 HD
HETATM   13  H   UNL     1     -43.058  58.253 -49.784  1.00  0.00     0.279 HD
HETATM   14  C   UNL     1     -43.562  56.170 -51.196  1.00  0.00     0.046 C 
HETATM   15  C   UNL     1     -45.262  57.963 -51.374  1.00  0.00     0.046 C 
HETATM   16  C   UNL     1     -43.469  57.871 -53.125  1.00  0.00     0.063 C 
ENDBRANCH   1   5
BRANCH   2  17
HETATM   17  C   UNL     1     -40.798  54.531 -54.255  1.00  0.00     0.157 A 
HETATM   18  N   UNL     1     -40.408  53.691 -55.241  1.00  0.00    -0.168 NA
HETATM   19  N   UNL     1     -40.014  52.585 -54.575  1.00  0.00    -0.277 N 
HETATM   20  H   UNL     1     -39.671  51.792 -55.107  1.00  0.00     0.189 HD
HETATM   21  C   UNL     1     -40.132  52.672 -53.216  1.00  0.00     0.063 A 
HETATM   22  C   UNL     1     -40.637  53.942 -52.968  1.00  0.00     0.028 A 
HETATM   23  C   UNL     1     -39.837  51.756 -52.201  1.00  0.00     0.032 A 
HETATM   24  C   UNL     1     -40.861  54.337 -51.635  1.00  0.00     0.016 A 
HETATM   25  C   UNL     1     -40.571  53.437 -50.603  1.00  0.00     0.001 A 
HETATM   26  C   UNL     1     -40.070  52.168 -50.884  1.00  0.00     0.002 A 
ENDBRANCH   2  17
TORSDOF 2
ENDMDL
MODEL 5
REMARK VINA RESULT:      -7.5      1.694      2.580
REMARK  2 active torsions:
REMARK  status: ('A' for Active; 'I' for Inactive)
REMARK    1  A    between atoms: C_11  and  N_12 
REMARK       I    between atoms: N_12  and  C_13 
REMARK    2  A    between atoms: C_13  and  C_14 
ROOT
HETATM    1  N   UNL     1     -42.678  56.709 -52.153  1.00  0.00    -0.351 N 
HETATM    2  C   UNL     1     -42.782  55.431 -52.683  1.00  0.00     0.273 C 
HETATM    3  O   UNL     1     -43.592  55.129 -53.552  1.00  0.00    -0.266 OA
HETATM    4  H   UNL     1     -42.123  56.697 -51.295  1.00  0.00     0.163 HD
ENDROOT
BRANCH   1   5
HETATM    5  C   UNL     1     -43.664  57.743 -52.391  1.00  0.00     0.089 C 
HETATM    6  C   UNL     1     -43.461  58.535 -53.689  1.00  0.00     0.063 C 
HETATM    7  C   UNL     1     -42.270  59.499 -53.682  1.00  0.00     0.121 C 
HETATM    8  N   UNL     1     -42.323  60.357 -52.433  1.00  0.00    -0.059 N 
HETATM    9  C   UNL     1     -40.904  58.818 -53.803  1.00  0.00     0.046 C 
HETATM   10  C   UNL     1     -42.404  60.474 -54.871  1.00  0.00     0.046 C 
HETATM   11  C   UNL     1     -42.623  59.732 -51.087  1.00  0.00     0.121 C 
HETATM   12  H   UNL     1     -43.039  61.079 -52.599  1.00  0.00     0.279 HD
HETATM   13  H   UNL     1     -41.442  60.888 -52.364  1.00  0.00     0.279 HD
HETATM   14  C   UNL     1     -41.343  59.151 -50.476  1.00  0.00     0.046 C 
HETATM   15  C   UNL     1     -43.081  60.891 -50.176  1.00  0.00     0.046 C 
HETATM   16  C   UNL     1     -43.770  58.714 -51.211  1.00  0.00     0.063 C 
ENDBRANCH   1   5
BRANCH   2  17
HETATM   17  C   UNL     1     -41.811  54.496 -52.100  1.00  0.00     0.157 A 
HETATM   18  N   UNL     1     -41.449  54.601 -50.800  1.00  0.00    -0.168 NA
HETATM   19  N   UNL     1     -40.555  53.602 -50.640  1.00  0.00    -0.277 N 
HETATM   20  H   UNL     1     -40.130  53.471 -49.729  1.00  0.00     0.189 HD
HETATM   21  C   UNL     1     -40.325  52.864 -51.767  1.00  0.00     0.063 A 
HETATM   22  C   UNL     1     -41.141  53.418 -52.746  1.00  0.00     0.028 A 
HETATM   23  C   UNL     1     -39.484  51.772 -52.002  1.00  0.00     0.032 A 
HETATM   24  C   UNL     1     -41.131  52.856 -54.038  1.00  0.00     0.016 A 
HETATM   25  C   UNL     1     -40.299  51.760 -54.294  1.00  0.00     0.001 A 
HETATM   26  C   UNL     1     -39.489  51.230 -53.292  1.00  0.00     0.002 A 
ENDBRANCH   2  17
TORSDOF 2
ENDMDL
MODEL 6
REMARK VINA RESULT:      -7.4      3.744      5.227
REMARK  2 active torsions:
REMARK  status: ('A' for Active; 'I' for Inactive)
REMARK    1  A    between atoms: C_11  and  N_12 
REMARK       I    between atoms: N_12  and  C_13 
REMARK    2  A    between atoms: C_13  and  C_14 
ROOT
HETATM    1  N   UNL     1     -42.244  58.169 -55.074  1.00  0.00    -0.351 N 
HETATM    2  C   UNL     1     -41.339  58.249 -54.025  1.00  0.00     0.273 C 
HETATM    3  O   UNL     1     -40.679  59.253 -53.784  1.00  0.00    -0.266 OA
HETATM    4  H   UNL     1     -42.507  57.197 -55.247  1.00  0.00     0.163 HD
ENDROOT
BRANCH   1   5
HETATM    5  C   UNL     1     -42.322  59.164 -56.124  1.00  0.00     0.089 C 
HETATM    6  C   UNL     1     -43.664  59.903 -56.207  1.00  0.00     0.063 C 
HETATM    7  C   UNL     1     -44.833  59.069 -56.739  1.00  0.00     0.121 C 
HETATM    8  N   UNL     1     -44.421  58.386 -58.028  1.00  0.00    -0.059 N 
HETATM    9  C   UNL     1     -45.383  58.042 -55.744  1.00  0.00     0.046 C 
HETATM   10  C   UNL     1     -45.996  60.013 -57.114  1.00  0.00     0.046 C 
HETATM   11  C   UNL     1     -43.073  57.704 -58.136  1.00  0.00     0.121 C 
HETATM   12  H   UNL     1     -44.459  59.101 -58.768  1.00  0.00     0.279 HD
HETATM   13  H   UNL     1     -45.155  57.712 -58.291  1.00  0.00     0.279 HD
HETATM   14  C   UNL     1     -43.151  56.285 -57.561  1.00  0.00     0.046 C 
HETATM   15  C   UNL     1     -42.786  57.571 -59.647  1.00  0.00     0.046 C 
HETATM   16  C   UNL     1     -41.978  58.574 -57.496  1.00  0.00     0.063 C 
ENDBRANCH   1   5
BRANCH   2  17
HETATM   17  C   UNL     1     -41.274  57.010 -53.238  1.00  0.00     0.157 A 
HETATM   18  N   UNL     1     -41.552  57.020 -51.914  1.00  0.00    -0.168 NA
HETATM   19  N   UNL     1     -41.378  55.733 -51.546  1.00  0.00    -0.277 N 
HETATM   20  H   UNL     1     -41.531  55.479 -50.576  1.00  0.00     0.189 HD
HETATM   21  C   UNL     1     -41.004  54.900 -52.563  1.00  0.00     0.063 A 
HETATM   22  C   UNL     1     -40.934  55.704 -53.694  1.00  0.00     0.028 A 
HETATM   23  C   UNL     1     -40.730  53.529 -52.583  1.00  0.00     0.032 A 
HETATM   24  C   UNL     1     -40.576  55.119 -54.924  1.00  0.00     0.016 A 
HETATM   25  C   UNL     1     -40.300  53.747 -54.968  1.00  0.00     0.001 A 
HETATM   26  C   UNL     1     -40.374  52.968 -53.814  1.00  0.00     0.002 A 
ENDBRANCH   2  17
TORSDOF 2
ENDMDL
MODEL 7
REMARK VINA RESULT:      -7.3      4.028      6.845
REMARK  2 active torsions:
REMARK  status: ('A' for Active; 'I' for Inactive)
REMARK    1  A    between atoms: C_11  and  N_12 
REMARK       I    between atoms: N_12  and  C_13 
REMARK    2  A    between atoms: C_13  and  C_14 
ROOT
HETATM    1  N   UNL     1     -42.925  55.841 -55.016  1.00  0.00    -0.351 N 
HETATM    2  C   UNL     1     -43.815  56.870 -55.291  1.00  0.00     0.273 C 
HETATM    3  O   UNL     1     -44.902  56.982 -54.737  1.00  0.00    -0.266 OA
HETATM    4  H   UNL     1     -42.201  55.792 -55.736  1.00  0.00     0.163 HD
ENDROOT
BRANCH   1   5
HETATM    5  C   UNL     1     -43.287  54.674 -54.238  1.00  0.00     0.089 C 
HETATM    6  C   UNL     1     -43.213  54.871 -52.718  1.00  0.00     0.063 C 
HETATM    7  C   UNL     1     -41.796  54.969 -52.144  1.00  0.00     0.121 C 
HETATM    8  N   UNL     1     -40.960  53.815 -52.661  1.00  0.00    -0.059 N 
HETATM    9  C   UNL     1     -41.092  56.301 -52.419  1.00  0.00     0.046 C 
HETATM   10  C   UNL     1     -41.860  54.791 -50.611  1.00  0.00     0.046 C 
HETATM   11  C   UNL     1     -41.011  53.428 -54.124  1.00  0.00     0.121 C 
HETATM   12  H   UNL     1     -41.234  52.984 -52.118  1.00  0.00     0.279 HD
HETATM   13  H   UNL     1     -39.978  53.977 -52.394  1.00  0.00     0.279 HD
HETATM   14  C   UNL     1     -40.058  54.313 -54.937  1.00  0.00     0.046 C 
HETATM   15  C   UNL     1     -40.471  51.984 -54.199  1.00  0.00     0.046 C 
HETATM   16  C   UNL     1     -42.462  53.445 -54.635  1.00  0.00     0.063 C 
ENDBRANCH   1   5
BRANCH   2  17
HETATM   17  C   UNL     1     -43.303  57.806 -56.301  1.00  0.00     0.157 A 
HETATM   18  N   UNL     1     -43.115  59.111 -55.998  1.00  0.00    -0.168 NA
HETATM   19  N   UNL     1     -42.660  59.641 -57.152  1.00  0.00    -0.277 N 
HETATM   20  H   UNL     1     -42.441  60.631 -57.181  1.00  0.00     0.189 HD
HETATM   21  C   UNL     1     -42.545  58.745 -58.178  1.00  0.00     0.063 A 
HETATM   22  C   UNL     1     -42.952  57.525 -57.652  1.00  0.00     0.028 A 
HETATM   23  C   UNL     1     -42.122  58.903 -59.502  1.00  0.00     0.032 A 
HETATM   24  C   UNL     1     -42.935  56.386 -58.481  1.00  0.00     0.016 A 
HETATM   25  C   UNL     1     -42.512  56.521 -59.809  1.00  0.00     0.001 A 
HETATM   26  C   UNL     1     -42.114  57.760 -60.309  1.00  0.00     0.002 A 
ENDBRANCH   2  17
TORSDOF 2
ENDMDL
MODEL 8
REMARK VINA RESULT:      -7.2      2.160      3.420
REMARK  2 active torsions:
REMARK  status: ('A' for Active; 'I' for Inactive)
REMARK    1  A    between atoms: C_11  and  N_12 
REMARK       I    between atoms: N_12  and  C_13 
REMARK    2  A    between atoms: C_13  and  C_14 
ROOT
HETATM    1  N   UNL     1     -43.174  56.625 -52.437  1.00  0.00    -0.351 N 
HETATM    2  C   UNL     1     -43.130  55.292 -52.052  1.00  0.00     0.273 C 
HETATM    3  O   UNL     1     -43.556  54.892 -50.975  1.00  0.00    -0.266 OA
HETATM    4  H   UNL     1     -42.568  56.785 -53.245  1.00  0.00     0.163 HD
ENDROOT
BRANCH   1   5
HETATM    5  C   UNL     1     -43.498  57.699 -51.522  1.00  0.00     0.089 C 
HETATM    6  C   UNL     1     -44.168  58.915 -52.174  1.00  0.00     0.063 C 
HETATM    7  C   UNL     1     -43.247  59.773 -53.049  1.00  0.00     0.121 C 
HETATM    8  N   UNL     1     -41.981  60.098 -52.281  1.00  0.00    -0.059 N 
HETATM    9  C   UNL     1     -42.902  59.150 -54.405  1.00  0.00     0.046 C 
HETATM   10  C   UNL     1     -43.934  61.127 -53.327  1.00  0.00     0.046 C 
HETATM   11  C   UNL     1     -41.264  59.022 -51.494  1.00  0.00     0.121 C 
HETATM   12  H   UNL     1     -42.221  60.849 -51.618  1.00  0.00     0.279 HD
HETATM   13  H   UNL     1     -41.311  60.540 -52.928  1.00  0.00     0.279 HD
HETATM   14  C   UNL     1     -40.341  58.218 -52.418  1.00  0.00     0.046 C 
HETATM   15  C   UNL     1     -40.365  59.765 -50.483  1.00  0.00     0.046 C 
HETATM   16  C   UNL     1     -42.275  58.157 -50.721  1.00  0.00     0.063 C 
ENDBRANCH   1   5
BRANCH   2  17
HETATM   17  C   UNL     1     -42.533  54.426 -53.078  1.00  0.00     0.157 A 
HETATM   18  N   UNL     1     -42.986  54.456 -54.353  1.00  0.00    -0.168 NA
HETATM   19  N   UNL     1     -42.221  53.539 -54.981  1.00  0.00    -0.277 N 
HETATM   20  H   UNL     1     -42.373  53.373 -55.970  1.00  0.00     0.189 HD
HETATM   21  C   UNL     1     -41.303  52.923 -54.177  1.00  0.00     0.063 A 
HETATM   22  C   UNL     1     -41.474  53.489 -52.919  1.00  0.00     0.028 A 
HETATM   23  C   UNL     1     -40.351  51.936 -54.447  1.00  0.00     0.032 A 
HETATM   24  C   UNL     1     -40.649  53.057 -51.861  1.00  0.00     0.016 A 
HETATM   25  C   UNL     1     -39.687  52.072 -52.111  1.00  0.00     0.001 A 
HETATM   26  C   UNL     1     -39.544  51.520 -53.383  1.00  0.00     0.002 A 
ENDBRANCH   2  17
TORSDOF 2
ENDMDL
MODEL 9
REMARK VINA RESULT:      -7.1      5.301      7.068
REMARK  2 active torsions:
REMARK  status: ('A' for Active; 'I' for Inactive)
REMARK    1  A    between atoms: C_11  and  N_12 
REMARK       I    between atoms: N_12  and  C_13 
REMARK    2  A    between atoms: C_13  and  C_14 
ROOT
HETATM    1  N   UNL     1     -43.953  56.830 -57.154  1.00  0.00    -0.351 N 
HETATM    2  C   UNL     1     -43.823  56.704 -55.778  1.00  0.00     0.273 C 
HETATM    3  O   UNL     1     -44.550  57.285 -54.981  1.00  0.00    -0.266 OA
HETATM    4  H   UNL     1     -43.123  56.466 -57.627  1.00  0.00     0.163 HD
ENDROOT
BRANCH   1   5
HETATM    5  C   UNL     1     -44.788  57.835 -57.778  1.00  0.00     0.089 C 
HETATM    6  C   UNL     1     -45.942  57.276 -58.620  1.00  0.00     0.063 C 
HETATM    7  C   UNL     1     -45.525  56.623 -59.942  1.00  0.00     0.121 C 
HETATM    8  N   UNL     1     -44.602  57.559 -60.698  1.00  0.00    -0.059 N 
HETATM    9  C   UNL     1     -44.877  55.244 -59.790  1.00  0.00     0.046 C 
HETATM   10  C   UNL     1     -46.773  56.448 -60.834  1.00  0.00     0.046 C 
HETATM   11  C   UNL     1     -43.479  58.274 -59.977  1.00  0.00     0.121 C 
HETATM   12  H   UNL     1     -45.198  58.283 -61.124  1.00  0.00     0.279 HD
HETATM   13  H   UNL     1     -44.210  57.051 -61.504  1.00  0.00     0.279 HD
HETATM   14  C   UNL     1     -42.253  57.360 -59.872  1.00  0.00     0.046 C 
HETATM   15  C   UNL     1     -43.087  59.464 -60.880  1.00  0.00     0.046 C 
HETATM   16  C   UNL     1     -43.968  58.815 -58.623  1.00  0.00     0.063 C 
ENDBRANCH   1   5
BRANCH   2  17
HETATM   17  C   UNL     1     -42.737  55.794 -55.393  1.00  0.00     0.157 A 
HETATM   18  N   UNL     1     -41.747  55.495 -56.266  1.00  0.00    -0.168 NA
HETATM   19  N   UNL     1     -40.963  54.643 -55.573  1.00  0.00    -0.277 N 
HETATM   20  H   UNL     1     -40.135  54.268 -56.024  1.00  0.00     0.189 HD
HETATM   21  C   UNL     1     -41.396  54.380 -54.304  1.00  0.00     0.063 A 
HETATM   22  C   UNL     1     -42.557  55.128 -54.147  1.00  0.00     0.028 A 
HETATM   23  C   UNL     1     -40.871  53.565 -53.297  1.00  0.00     0.032 A 
HETATM   24  C   UNL     1     -43.242  55.072 -52.917  1.00  0.00     0.016 A 
HETATM   25  C   UNL     1     -42.732  54.264 -51.894  1.00  0.00     0.001 A 
HETATM   26  C   UNL     1     -41.568  53.522 -52.084  1.00  0.00     0.002 A 
ENDBRANCH   2  17
TORSDOF 2
ENDMDL
MODEL 10
REMARK VINA RESULT:      -7.0      2.030      3.297
REMARK  2 active torsions:
REMARK  status: ('A' for Active; 'I' for Inactive)
REMARK    1  A    between atoms: C_11  and  N_12 
REMARK       I    between atoms: N_12  and  C_13 
REMARK    2  A    between atoms: C_13  and  C_14 
ROOT
HETATM    1  N   UNL     1     -42.579  56.517 -53.010  1.00  0.00    -0.351 N 
HETATM    2  C   UNL     1     -42.982  55.414 -53.749  1.00  0.00     0.273 C 
HETATM    3  O   UNL     1     -44.108  55.298 -54.218  1.00  0.00    -0.266 OA
HETATM    4  H   UNL     1     -41.704  56.319 -52.519  1.00  0.00     0.163 HD
ENDROOT
BRANCH   1   5
HETATM    5  C   UNL     1     -43.504  57.515 -52.515  1.00  0.00     0.089 C 
HETATM    6  C   UNL     1     -43.979  58.525 -53.568  1.00  0.00     0.063 C 
HETATM    7  C   UNL     1     -42.925  59.544 -54.013  1.00  0.00     0.121 C 
HETATM    8  N   UNL     1     -42.285  60.174 -52.793  1.00  0.00    -0.059 N 
HETATM    9  C   UNL     1     -41.850  58.976 -54.944  1.00  0.00     0.046 C 
HETATM   10  C   UNL     1     -43.624  60.695 -54.768  1.00  0.00     0.046 C 
HETATM   11  C   UNL     1     -41.861  59.316 -51.620  1.00  0.00     0.121 C 
HETATM   12  H   UNL     1     -42.954  60.870 -52.433  1.00  0.00     0.279 HD
HETATM   13  H   UNL     1     -41.479  60.738 -53.100  1.00  0.00     0.279 HD
HETATM   14  C   UNL     1     -40.473  58.718 -51.877  1.00  0.00     0.046 C 
HETATM   15  C   UNL     1     -41.730  60.276 -50.418  1.00  0.00     0.046 C 
HETATM   16  C   UNL     1     -42.941  58.266 -51.304  1.00  0.00     0.063 C 
ENDBRANCH   1   5
BRANCH   2  17
HETATM   17  C   UNL     1     -41.912  54.421 -53.914  1.00  0.00     0.157 A 
HETATM   18  N   UNL     1     -41.413  54.144 -55.141  1.00  0.00    -0.168 NA
HETATM   19  N   UNL     1     -40.481  53.199 -54.897  1.00  0.00    -0.277 N 
HETATM   20  H   UNL     1     -39.956  52.821 -55.677  1.00  0.00     0.189 HD
HETATM   21  C   UNL     1     -40.357  52.857 -53.580  1.00  0.00     0.063 A 
HETATM   22  C   UNL     1     -41.277  53.647 -52.902  1.00  0.00     0.028 A 
HETATM   23  C   UNL     1     -39.523  51.935 -52.938  1.00  0.00     0.032 A 
HETATM   24  C   UNL     1     -41.378  53.526 -51.502  1.00  0.00     0.016 A 
HETATM   25  C   UNL     1     -40.551  52.612 -50.839  1.00  0.00     0.001 A 
HETATM   26  C   UNL     1     -39.641  51.830 -51.548  1.00  0.00     0.002 A 
ENDBRANCH   2  17
TORSDOF 2
ENDMDL
