MODEL 1
REMARK VINA RESULT:      -8.1      0.000      0.000
REMARK  8 active torsions:
REMARK  status: ('A' for Active; 'I' for Inactive)
REMARK    1  A    between atoms: C_2  and  S_3 
REMARK    2  A    between atoms: S_3  and  C_4 
REMARK    3  A    between atoms: C_7  and  C_8 
REMARK    4  A    between atoms: C_8  and  C_9 
REMARK       I    between atoms: C_9  and  N_10 
REMARK    5  A    between atoms: N_10  and  C_11 
REMARK    6  A    between atoms: N_17  and  C_19 
REMARK    7  A    between atoms: C_19  and  C_20 
REMARK    8  A    between atoms: C_27  and  C_28 
REMARK       I    between atoms: C_28  and  N_29 
ROOT
HETATM    1  C   UNL     1     -42.355  58.509 -51.208  1.00  0.00     0.093 A 
HETATM    2  S   UNL     1     -40.830  57.976 -50.670  1.00  0.00    -0.074 SA
HETATM    3  C   UNL     1     -41.292  56.354 -50.706  1.00  0.00     0.018 A 
HETATM    4  C   UNL     1     -42.609  56.189 -51.083  1.00  0.00    -0.023 A 
HETATM    5  C   UNL     1     -43.214  54.815 -51.215  1.00  0.00     0.068 C 
HETATM    6  C   UNL     1     -42.316  53.718 -50.606  1.00  0.00     0.240 C 
HETATM    7  N   UNL     1     -40.837  53.930 -50.917  1.00  0.00    -0.063 N 
HETATM    8  H   UNL     1     -40.324  53.198 -50.413  1.00  0.00     0.280 HD
HETATM    9  C   UNL     1     -40.352  55.255 -50.355  1.00  0.00     0.282 C 
HETATM   10  C   UNL     1     -43.256  57.458 -51.347  1.00  0.00     0.073 A 
ENDROOT
BRANCH   1  11
HETATM   11  N   UNL     1     -42.569  59.845 -51.519  1.00  0.00    -0.320 N 
HETATM   12  C   UNL     1     -42.824  60.379 -52.777  1.00  0.00     0.226 C 
HETATM   13  O   UNL     1     -42.779  59.784 -53.850  1.00  0.00    -0.273 OA
HETATM   14  H   UNL     1     -42.535  60.499 -50.742  1.00  0.00     0.169 HD
BRANCH  12  15
HETATM   15  C   UNL     1     -43.182  61.856 -52.723  1.00  0.00     0.141 C 
BRANCH  15  16
HETATM   16  C   UNL     1     -43.943  62.243 -51.478  1.00  0.00    -0.049 A 
HETATM   17  C   UNL     1     -45.235  61.750 -51.252  1.00  0.00     0.009 A 
HETATM   18  C   UNL     1     -45.924  62.072 -50.079  1.00  0.00     0.019 A 
HETATM   19  C   UNL     1     -45.329  62.877 -49.105  1.00  0.00     0.001 A 
HETATM   20  C   UNL     1     -44.045  63.381 -49.333  1.00  0.00     0.019 A 
HETATM   21  C   UNL     1     -43.354  63.060 -50.505  1.00  0.00     0.009 A 
BRANCH  19  22
HETATM   22  S   UNL     1     -46.253  63.272 -47.632  1.00  0.00    -0.126 SA
BRANCH  22  23
HETATM   23  C   UNL     1     -45.120  62.680 -46.310  1.00  0.00     0.044 C 
HETATM   24  C   UNL     1     -45.119  61.156 -46.229  1.00  0.00     0.021 C 
HETATM   25  C   UNL     1     -45.580  63.284 -44.984  1.00  0.00     0.021 C 
ENDBRANCH  22  23
ENDBRANCH  19  22
ENDBRANCH  15  16
ENDBRANCH  12  15
ENDBRANCH   1  11
BRANCH  10  26
HETATM   26  C   UNL     1     -44.651  57.590 -51.767  1.00  0.00     0.252 C 
HETATM   27  N   UNL     1     -44.900  57.429 -53.102  1.00  0.00    -0.366 N 
HETATM   28  H   UNL     1     -44.165  57.609 -53.777  1.00  0.00     0.159 HD
HETATM   29  H   UNL     1     -45.836  57.691 -53.395  1.00  0.00     0.159 HD
HETATM   30  O   UNL     1     -45.549  57.883 -50.988  1.00  0.00    -0.268 OA
ENDBRANCH  10  26
BRANCH   7  31
HETATM   31  C   UNL     1     -40.468  53.749 -52.373  1.00  0.00     0.273 C 
BRANCH  31  32
HETATM   32  C   UNL     1     -40.163  52.316 -52.715  1.00  0.00    -0.033 A 
HETATM   33  C   UNL     1     -40.369  51.828 -54.013  1.00  0.00     0.009 A 
HETATM   34  C   UNL     1     -40.106  50.490 -54.314  1.00  0.00     0.001 A 
HETATM   35  C   UNL     1     -39.634  49.630 -53.325  1.00  0.00     0.000 A 
HETATM   36  C   UNL     1     -39.421  50.105 -52.033  1.00  0.00     0.001 A 
HETATM   37  C   UNL     1     -39.685  51.440 -51.727  1.00  0.00     0.009 A 
ENDBRANCH  31  32
ENDBRANCH   7  31
TORSDOF 8
ENDMDL
MODEL 2
REMARK VINA RESULT:      -8.0      5.963      9.575
REMARK  8 active torsions:
REMARK  status: ('A' for Active; 'I' for Inactive)
REMARK    1  A    between atoms: C_2  and  S_3 
REMARK    2  A    between atoms: S_3  and  C_4 
REMARK    3  A    between atoms: C_7  and  C_8 
REMARK    4  A    between atoms: C_8  and  C_9 
REMARK       I    between atoms: C_9  and  N_10 
REMARK    5  A    between atoms: N_10  and  C_11 
REMARK    6  A    between atoms: N_17  and  C_19 
REMARK    7  A    between atoms: C_19  and  C_20 
REMARK    8  A    between atoms: C_27  and  C_28 
REMARK       I    between atoms: C_28  and  N_29 
ROOT
HETATM    1  C   UNL     1     -42.807  57.535 -55.390  1.00  0.00     0.093 A 
HETATM    2  S   UNL     1     -43.301  58.860 -56.338  1.00  0.00    -0.074 SA
HETATM    3  C   UNL     1     -43.528  57.902 -57.708  1.00  0.00     0.018 A 
HETATM    4  C   UNL     1     -43.198  56.581 -57.487  1.00  0.00    -0.023 A 
HETATM    5  C   UNL     1     -43.362  55.546 -58.571  1.00  0.00     0.068 C 
HETATM    6  C   UNL     1     -43.626  56.181 -59.952  1.00  0.00     0.240 C 
HETATM    7  N   UNL     1     -44.588  57.365 -59.880  1.00  0.00    -0.063 N 
HETATM    8  H   UNL     1     -44.640  57.757 -60.826  1.00  0.00     0.280 HD
HETATM    9  C   UNL     1     -44.025  58.462 -58.994  1.00  0.00     0.282 C 
HETATM   10  C   UNL     1     -42.736  56.360 -56.132  1.00  0.00     0.073 A 
ENDROOT
BRANCH   1  11
HETATM   11  N   UNL     1     -42.588  57.682 -54.027  1.00  0.00    -0.320 N 
HETATM   12  C   UNL     1     -43.552  57.700 -53.025  1.00  0.00     0.226 C 
HETATM   13  O   UNL     1     -44.770  57.718 -53.178  1.00  0.00    -0.273 OA
HETATM   14  H   UNL     1     -41.621  57.787 -53.735  1.00  0.00     0.169 HD
BRANCH  12  15
HETATM   15  C   UNL     1     -42.944  57.702 -51.630  1.00  0.00     0.141 C 
BRANCH  15  16
HETATM   16  C   UNL     1     -42.355  56.371 -51.232  1.00  0.00    -0.049 A 
HETATM   17  C   UNL     1     -43.038  55.180 -51.510  1.00  0.00     0.009 A 
HETATM   18  C   UNL     1     -42.474  53.944 -51.181  1.00  0.00     0.019 A 
HETATM   19  C   UNL     1     -41.213  53.876 -50.584  1.00  0.00     0.001 A 
HETATM   20  C   UNL     1     -40.535  55.063 -50.293  1.00  0.00     0.019 A 
HETATM   21  C   UNL     1     -41.096  56.300 -50.622  1.00  0.00     0.009 A 
BRANCH  19  22
HETATM   22  S   UNL     1     -40.542  52.277 -50.169  1.00  0.00    -0.126 SA
BRANCH  22  23
HETATM   23  C   UNL     1     -39.562  51.880 -51.674  1.00  0.00     0.044 C 
HETATM   24  C   UNL     1     -40.227  52.445 -52.927  1.00  0.00     0.021 C 
HETATM   25  C   UNL     1     -39.438  50.361 -51.775  1.00  0.00     0.021 C 
ENDBRANCH  22  23
ENDBRANCH  19  22
ENDBRANCH  15  16
ENDBRANCH  12  15
ENDBRANCH   1  11
BRANCH  10  26
HETATM   26  C   UNL     1     -42.320  55.057 -55.613  1.00  0.00     0.252 C 
HETATM   27  N   UNL     1     -41.006  54.724 -55.796  1.00  0.00    -0.366 N 
HETATM   28  H   UNL     1     -40.482  55.139 -56.558  1.00  0.00     0.159 HD
HETATM   29  H   UNL     1     -40.779  53.757 -55.585  1.00  0.00     0.159 HD
HETATM   30  O   UNL     1     -43.104  54.274 -55.092  1.00  0.00    -0.268 OA
ENDBRANCH  10  26
BRANCH   7  31
HETATM   31  C   UNL     1     -46.010  56.999 -59.516  1.00  0.00     0.273 C 
BRANCH  31  32
HETATM   32  C   UNL     1     -46.996  57.408 -60.576  1.00  0.00    -0.033 A 
HETATM   33  C   UNL     1     -47.353  58.754 -60.745  1.00  0.00     0.009 A 
HETATM   34  C   UNL     1     -48.288  59.120 -61.715  1.00  0.00     0.001 A 
HETATM   35  C   UNL     1     -48.871  58.150 -62.526  1.00  0.00     0.000 A 
HETATM   36  C   UNL     1     -48.521  56.810 -62.372  1.00  0.00     0.001 A 
HETATM   37  C   UNL     1     -47.590  56.439 -61.402  1.00  0.00     0.009 A 
ENDBRANCH  31  32
ENDBRANCH   7  31
TORSDOF 8
ENDMDL
MODEL 3
REMARK VINA RESULT:      -8.0      4.152      6.581
REMARK  8 active torsions:
REMARK  status: ('A' for Active; 'I' for Inactive)
REMARK    1  A    between atoms: C_2  and  S_3 
REMARK    2  A    between atoms: S_3  and  C_4 
REMARK    3  A    between atoms: C_7  and  C_8 
REMARK    4  A    between atoms: C_8  and  C_9 
REMARK       I    between atoms: C_9  and  N_10 
REMARK    5  A    between atoms: N_10  and  C_11 
REMARK    6  A    between atoms: N_17  and  C_19 
REMARK    7  A    between atoms: C_19  and  C_20 
REMARK    8  A    between atoms: C_27  and  C_28 
REMARK       I    between atoms: C_28  and  N_29 
ROOT
HETATM    1  C   UNL     1     -42.726  57.706 -52.845  1.00  0.00     0.093 A 
HETATM    2  S   UNL     1     -41.927  57.721 -51.341  1.00  0.00    -0.074 SA
HETATM    3  C   UNL     1     -42.021  56.044 -51.181  1.00  0.00     0.018 A 
HETATM    4  C   UNL     1     -42.688  55.451 -52.233  1.00  0.00    -0.023 A 
HETATM    5  C   UNL     1     -42.852  53.954 -52.306  1.00  0.00     0.068 C 
HETATM    6  C   UNL     1     -42.478  53.259 -50.980  1.00  0.00     0.240 C 
HETATM    7  N   UNL     1     -41.231  53.856 -50.335  1.00  0.00    -0.063 N 
HETATM    8  H   UNL     1     -41.110  53.379 -49.435  1.00  0.00     0.280 HD
HETATM    9  C   UNL     1     -41.441  55.326 -50.014  1.00  0.00     0.282 C 
HETATM   10  C   UNL     1     -43.140  56.427 -53.204  1.00  0.00     0.073 A 
ENDROOT
BRANCH   1  11
HETATM   11  N   UNL     1     -42.844  58.868 -53.595  1.00  0.00    -0.320 N 
HETATM   12  C   UNL     1     -41.807  59.652 -54.088  1.00  0.00     0.226 C 
HETATM   13  O   UNL     1     -40.611  59.527 -53.841  1.00  0.00    -0.273 OA
HETATM   14  H   UNL     1     -43.789  59.175 -53.804  1.00  0.00     0.169 HD
BRANCH  12  15
HETATM   15  C   UNL     1     -42.297  60.754 -55.015  1.00  0.00     0.141 C 
BRANCH  15  16
HETATM   16  C   UNL     1     -42.837  60.236 -56.326  1.00  0.00    -0.049 A 
HETATM   17  C   UNL     1     -41.970  59.942 -57.386  1.00  0.00     0.009 A 
HETATM   18  C   UNL     1     -42.464  59.422 -58.586  1.00  0.00     0.019 A 
HETATM   19  C   UNL     1     -43.829  59.172 -58.742  1.00  0.00     0.001 A 
HETATM   20  C   UNL     1     -44.699  59.476 -57.691  1.00  0.00     0.019 A 
HETATM   21  C   UNL     1     -44.207  59.996 -56.490  1.00  0.00     0.009 A 
BRANCH  19  22
HETATM   22  S   UNL     1     -44.413  58.522 -60.296  1.00  0.00    -0.126 SA
BRANCH  22  23
HETATM   23  C   UNL     1     -45.113  56.899 -59.784  1.00  0.00     0.044 C 
HETATM   24  C   UNL     1     -44.280  55.745 -60.335  1.00  0.00     0.021 C 
HETATM   25  C   UNL     1     -46.548  56.815 -60.300  1.00  0.00     0.021 C 
ENDBRANCH  22  23
ENDBRANCH  19  22
ENDBRANCH  15  16
ENDBRANCH  12  15
ENDBRANCH   1  11
BRANCH  10  26
HETATM   26  C   UNL     1     -43.874  56.087 -54.423  1.00  0.00     0.252 C 
HETATM   27  N   UNL     1     -45.210  56.375 -54.425  1.00  0.00    -0.366 N 
HETATM   28  H   UNL     1     -45.716  56.432 -53.549  1.00  0.00     0.159 HD
HETATM   29  H   UNL     1     -45.729  55.980 -55.204  1.00  0.00     0.159 HD
HETATM   30  O   UNL     1     -43.346  55.525 -55.374  1.00  0.00    -0.268 OA
ENDBRANCH  10  26
BRANCH   7  31
HETATM   31  C   UNL     1     -39.947  53.607 -51.097  1.00  0.00     0.273 C 
BRANCH  31  32
HETATM   32  C   UNL     1     -39.857  52.201 -51.625  1.00  0.00    -0.033 A 
HETATM   33  C   UNL     1     -39.818  51.106 -50.750  1.00  0.00     0.009 A 
HETATM   34  C   UNL     1     -39.709  49.807 -51.249  1.00  0.00     0.001 A 
HETATM   35  C   UNL     1     -39.642  49.589 -52.623  1.00  0.00     0.000 A 
HETATM   36  C   UNL     1     -39.686  50.668 -53.503  1.00  0.00     0.001 A 
HETATM   37  C   UNL     1     -39.791  51.968 -53.009  1.00  0.00     0.009 A 
ENDBRANCH  31  32
ENDBRANCH   7  31
TORSDOF 8
ENDMDL
MODEL 4
REMARK VINA RESULT:      -7.9      1.970      2.632
REMARK  8 active torsions:
REMARK  status: ('A' for Active; 'I' for Inactive)
REMARK    1  A    between atoms: C_2  and  S_3 
REMARK    2  A    between atoms: S_3  and  C_4 
REMARK    3  A    between atoms: C_7  and  C_8 
REMARK    4  A    between atoms: C_8  and  C_9 
REMARK       I    between atoms: C_9  and  N_10 
REMARK    5  A    between atoms: N_10  and  C_11 
REMARK    6  A    between atoms: N_17  and  C_19 
REMARK    7  A    between atoms: C_19  and  C_20 
REMARK    8  A    between atoms: C_27  and  C_28 
REMARK       I    between atoms: C_28  and  N_29 
ROOT
HETATM    1  C   UNL     1     -42.712  58.400 -52.452  1.00  0.00     0.093 A 
HETATM    2  S   UNL     1     -42.972  57.011 -51.502  1.00  0.00    -0.074 SA
HETATM    3  C   UNL     1     -42.819  55.976 -52.826  1.00  0.00     0.018 A 
HETATM    4  C   UNL     1     -42.611  56.658 -54.007  1.00  0.00    -0.023 A 
HETATM    5  C   UNL     1     -42.410  55.922 -55.307  1.00  0.00     0.068 C 
HETATM    6  C   UNL     1     -42.764  54.424 -55.192  1.00  0.00     0.240 C 
HETATM    7  N   UNL     1     -42.277  53.805 -53.884  1.00  0.00    -0.063 N 
HETATM    8  H   UNL     1     -42.621  52.838 -53.873  1.00  0.00     0.280 HD
HETATM    9  C   UNL     1     -42.912  54.497 -52.691  1.00  0.00     0.282 C 
HETATM   10  C   UNL     1     -42.582  58.093 -53.803  1.00  0.00     0.073 A 
ENDROOT
BRANCH   1  11
HETATM   11  N   UNL     1     -42.585  59.649 -51.859  1.00  0.00    -0.320 N 
HETATM   12  C   UNL     1     -43.576  60.616 -51.730  1.00  0.00     0.226 C 
HETATM   13  O   UNL     1     -44.698  60.588 -52.226  1.00  0.00    -0.273 OA
HETATM   14  H   UNL     1     -41.670  59.878 -51.482  1.00  0.00     0.169 HD
BRANCH  12  15
HETATM   15  C   UNL     1     -43.135  61.793 -50.873  1.00  0.00     0.141 C 
BRANCH  15  16
HETATM   16  C   UNL     1     -44.077  62.089 -49.732  1.00  0.00    -0.049 A 
HETATM   17  C   UNL     1     -44.744  63.319 -49.661  1.00  0.00     0.009 A 
HETATM   18  C   UNL     1     -45.650  63.578 -48.628  1.00  0.00     0.019 A 
HETATM   19  C   UNL     1     -45.917  62.608 -47.659  1.00  0.00     0.001 A 
HETATM   20  C   UNL     1     -45.244  61.385 -47.719  1.00  0.00     0.019 A 
HETATM   21  C   UNL     1     -44.338  61.123 -48.752  1.00  0.00     0.009 A 
BRANCH  19  22
HETATM   22  S   UNL     1     -47.070  62.991 -46.354  1.00  0.00    -0.126 SA
BRANCH  22  23
HETATM   23  C   UNL     1     -46.158  64.285 -45.417  1.00  0.00     0.044 C 
HETATM   24  C   UNL     1     -44.796  63.773 -44.957  1.00  0.00     0.021 C 
HETATM   25  C   UNL     1     -47.009  64.690 -44.214  1.00  0.00     0.021 C 
ENDBRANCH  22  23
ENDBRANCH  19  22
ENDBRANCH  15  16
ENDBRANCH  12  15
ENDBRANCH   1  11
BRANCH  10  26
HETATM   26  C   UNL     1     -42.375  59.066 -54.876  1.00  0.00     0.252 C 
HETATM   27  N   UNL     1     -43.324  59.092 -55.860  1.00  0.00    -0.366 N 
HETATM   28  H   UNL     1     -43.879  58.265 -56.048  1.00  0.00     0.159 HD
HETATM   29  H   UNL     1     -43.078  59.648 -56.673  1.00  0.00     0.159 HD
HETATM   30  O   UNL     1     -41.386  59.784 -54.932  1.00  0.00    -0.268 OA
ENDBRANCH  10  26
BRANCH   7  31
HETATM   31  C   UNL     1     -40.773  53.698 -53.759  1.00  0.00     0.273 C 
BRANCH  31  32
HETATM   32  C   UNL     1     -40.323  52.302 -53.424  1.00  0.00    -0.033 A 
HETATM   33  C   UNL     1     -40.397  51.276 -54.377  1.00  0.00     0.009 A 
HETATM   34  C   UNL     1     -40.000  49.978 -54.049  1.00  0.00     0.001 A 
HETATM   35  C   UNL     1     -39.522  49.695 -52.771  1.00  0.00     0.000 A 
HETATM   36  C   UNL     1     -39.438  50.707 -51.818  1.00  0.00     0.001 A 
HETATM   37  C   UNL     1     -39.837  52.004 -52.141  1.00  0.00     0.009 A 
ENDBRANCH  31  32
ENDBRANCH   7  31
TORSDOF 8
ENDMDL
MODEL 5
REMARK VINA RESULT:      -7.6      6.460     10.964
REMARK  8 active torsions:
REMARK  status: ('A' for Active; 'I' for Inactive)
REMARK    1  A    between atoms: C_2  and  S_3 
REMARK    2  A    between atoms: S_3  and  C_4 
REMARK    3  A    between atoms: C_7  and  C_8 
REMARK    4  A    between atoms: C_8  and  C_9 
REMARK       I    between atoms: C_9  and  N_10 
REMARK    5  A    between atoms: N_10  and  C_11 
REMARK    6  A    between atoms: N_17  and  C_19 
REMARK    7  A    between atoms: C_19  and  C_20 
REMARK    8  A    between atoms: C_27  and  C_28 
REMARK       I    between atoms: C_28  and  N_29 
ROOT
HETATM    1  C   UNL     1     -43.390  56.958 -58.593  1.00  0.00     0.093 A 
HETATM    2  S   UNL     1     -42.181  57.173 -59.772  1.00  0.00    -0.074 SA
HETATM    3  C   UNL     1     -42.649  58.765 -60.080  1.00  0.00     0.018 A 
HETATM    4  C   UNL     1     -43.745  59.146 -59.333  1.00  0.00    -0.023 A 
HETATM    5  C   UNL     1     -44.305  60.542 -59.429  1.00  0.00     0.068 C 
HETATM    6  C   UNL     1     -43.724  61.325 -60.624  1.00  0.00     0.240 C 
HETATM    7  N   UNL     1     -42.226  61.093 -60.806  1.00  0.00    -0.063 N 
HETATM    8  H   UNL     1     -41.954  61.594 -61.659  1.00  0.00     0.280 HD
HETATM    9  C   UNL     1     -41.936  59.625 -61.062  1.00  0.00     0.282 C 
HETATM   10  C   UNL     1     -44.213  58.074 -58.477  1.00  0.00     0.073 A 
ENDROOT
BRANCH   1  11
HETATM   11  N   UNL     1     -43.435  55.799 -57.828  1.00  0.00    -0.320 N 
HETATM   12  C   UNL     1     -42.868  55.604 -56.574  1.00  0.00     0.226 C 
HETATM   13  O   UNL     1     -42.123  56.376 -55.978  1.00  0.00    -0.273 OA
HETATM   14  H   UNL     1     -43.936  55.013 -58.232  1.00  0.00     0.169 HD
BRANCH  12  15
HETATM   15  C   UNL     1     -43.263  54.272 -55.956  1.00  0.00     0.141 C 
BRANCH  15  16
HETATM   16  C   UNL     1     -42.429  53.899 -54.755  1.00  0.00    -0.049 A 
HETATM   17  C   UNL     1     -41.211  53.226 -54.916  1.00  0.00     0.009 A 
HETATM   18  C   UNL     1     -40.416  52.918 -53.807  1.00  0.00     0.019 A 
HETATM   19  C   UNL     1     -40.816  53.292 -52.522  1.00  0.00     0.001 A 
HETATM   20  C   UNL     1     -42.036  53.952 -52.356  1.00  0.00     0.019 A 
HETATM   21  C   UNL     1     -42.833  54.262 -53.463  1.00  0.00     0.009 A 
BRANCH  19  22
HETATM   22  S   UNL     1     -39.775  52.865 -51.139  1.00  0.00    -0.126 SA
BRANCH  22  23
HETATM   23  C   UNL     1     -40.303  51.137 -50.793  1.00  0.00     0.044 C 
HETATM   24  C   UNL     1     -40.473  50.905 -49.294  1.00  0.00     0.021 C 
HETATM   25  C   UNL     1     -39.244  50.193 -51.362  1.00  0.00     0.021 C 
ENDBRANCH  22  23
ENDBRANCH  19  22
ENDBRANCH  15  16
ENDBRANCH  12  15
ENDBRANCH   1  11
BRANCH  10  26
HETATM   26  C   UNL     1     -45.357  58.192 -57.573  1.00  0.00     0.252 C 
HETATM   27  N   UNL     1     -46.539  57.671 -58.022  1.00  0.00    -0.366 N 
HETATM   28  H   UNL     1     -46.708  57.587 -59.017  1.00  0.00     0.159 HD
HETATM   29  H   UNL     1     -47.350  57.912 -57.460  1.00  0.00     0.159 HD
HETATM   30  O   UNL     1     -45.288  58.769 -56.496  1.00  0.00    -0.268 OA
ENDBRANCH  10  26
BRANCH   7  31
HETATM   31  C   UNL     1     -41.361  61.671 -59.707  1.00  0.00     0.273 C 
BRANCH  31  32
HETATM   32  C   UNL     1     -40.293  62.588 -60.239  1.00  0.00    -0.033 A 
HETATM   33  C   UNL     1     -40.098  62.737 -61.619  1.00  0.00     0.009 A 
HETATM   34  C   UNL     1     -39.088  63.570 -62.103  1.00  0.00     0.001 A 
HETATM   35  C   UNL     1     -38.269  64.264 -61.215  1.00  0.00     0.000 A 
HETATM   36  C   UNL     1     -38.457  64.129 -59.842  1.00  0.00     0.001 A 
HETATM   37  C   UNL     1     -39.462  63.294 -59.354  1.00  0.00     0.009 A 
ENDBRANCH  31  32
ENDBRANCH   7  31
TORSDOF 8
ENDMDL
MODEL 6
REMARK VINA RESULT:      -7.5      3.743      5.664
REMARK  8 active torsions:
REMARK  status: ('A' for Active; 'I' for Inactive)
REMARK    1  A    between atoms: C_2  and  S_3 
REMARK    2  A    between atoms: S_3  and  C_4 
REMARK    3  A    between atoms: C_7  and  C_8 
REMARK    4  A    between atoms: C_8  and  C_9 
REMARK       I    between atoms: C_9  and  N_10 
REMARK    5  A    between atoms: N_10  and  C_11 
REMARK    6  A    between atoms: N_17  and  C_19 
REMARK    7  A    between atoms: C_19  and  C_20 
REMARK    8  A    between atoms: C_27  and  C_28 
REMARK       I    between atoms: C_28  and  N_29 
ROOT
HETATM    1  C   UNL     1     -43.014  58.207 -52.526  1.00  0.00     0.093 A 
HETATM    2  S   UNL     1     -42.245  57.905 -51.037  1.00  0.00    -0.074 SA
HETATM    3  C   UNL     1     -42.345  56.231 -51.231  1.00  0.00     0.018 A 
HETATM    4  C   UNL     1     -42.993  55.874 -52.395  1.00  0.00    -0.023 A 
HETATM    5  C   UNL     1     -43.159  54.426 -52.780  1.00  0.00     0.068 C 
HETATM    6  C   UNL     1     -42.812  53.468 -51.622  1.00  0.00     0.240 C 
HETATM    7  N   UNL     1     -41.576  53.911 -50.844  1.00  0.00    -0.063 N 
HETATM    8  H   UNL     1     -41.474  53.257 -50.060  1.00  0.00     0.280 HD
HETATM    9  C   UNL     1     -41.789  55.283 -50.229  1.00  0.00     0.282 C 
HETATM   10  C   UNL     1     -43.425  57.033 -53.150  1.00  0.00     0.073 A 
ENDROOT
BRANCH   1  11
HETATM   11  N   UNL     1     -43.115  59.500 -53.021  1.00  0.00    -0.320 N 
HETATM   12  C   UNL     1     -42.193  60.161 -53.824  1.00  0.00     0.226 C 
HETATM   13  O   UNL     1     -41.071  59.766 -54.131  1.00  0.00    -0.273 OA
HETATM   14  H   UNL     1     -43.954  60.015 -52.767  1.00  0.00     0.169 HD
BRANCH  12  15
HETATM   15  C   UNL     1     -42.708  61.503 -54.323  1.00  0.00     0.141 C 
BRANCH  15  16
HETATM   16  C   UNL     1     -43.701  61.380 -55.452  1.00  0.00    -0.049 A 
HETATM   17  C   UNL     1     -44.998  61.893 -55.317  1.00  0.00     0.009 A 
HETATM   18  C   UNL     1     -45.906  61.819 -56.378  1.00  0.00     0.019 A 
HETATM   19  C   UNL     1     -45.530  61.246 -57.594  1.00  0.00     0.001 A 
HETATM   20  C   UNL     1     -44.242  60.721 -57.728  1.00  0.00     0.019 A 
HETATM   21  C   UNL     1     -43.331  60.795 -56.670  1.00  0.00     0.009 A 
BRANCH  19  22
HETATM   22  S   UNL     1     -46.728  61.161 -58.912  1.00  0.00    -0.126 SA
BRANCH  22  23
HETATM   23  C   UNL     1     -46.729  59.363 -59.303  1.00  0.00     0.044 C 
HETATM   24  C   UNL     1     -47.575  59.071 -60.539  1.00  0.00     0.021 C 
HETATM   25  C   UNL     1     -47.279  58.614 -58.091  1.00  0.00     0.021 C 
ENDBRANCH  22  23
ENDBRANCH  19  22
ENDBRANCH  15  16
ENDBRANCH  12  15
ENDBRANCH   1  11
BRANCH  10  26
HETATM   26  C   UNL     1     -44.135  56.958 -54.427  1.00  0.00     0.252 C 
HETATM   27  N   UNL     1     -45.246  56.161 -54.455  1.00  0.00    -0.366 N 
HETATM   28  H   UNL     1     -45.334  55.394 -53.799  1.00  0.00     0.159 HD
HETATM   29  H   UNL     1     -45.623  55.989 -55.382  1.00  0.00     0.159 HD
HETATM   30  O   UNL     1     -43.738  57.526 -55.436  1.00  0.00    -0.268 OA
ENDBRANCH  10  26
BRANCH   7  31
HETATM   31  C   UNL     1     -40.279  53.818 -51.617  1.00  0.00     0.273 C 
BRANCH  31  32
HETATM   32  C   UNL     1     -40.041  52.441 -52.176  1.00  0.00    -0.033 A 
HETATM   33  C   UNL     1     -40.142  52.199 -53.554  1.00  0.00     0.009 A 
HETATM   34  C   UNL     1     -39.944  50.913 -54.060  1.00  0.00     0.001 A 
HETATM   35  C   UNL     1     -39.641  49.861 -53.198  1.00  0.00     0.000 A 
HETATM   36  C   UNL     1     -39.533  50.091 -51.829  1.00  0.00     0.001 A 
HETATM   37  C   UNL     1     -39.733  51.373 -51.318  1.00  0.00     0.009 A 
ENDBRANCH  31  32
ENDBRANCH   7  31
TORSDOF 8
ENDMDL
MODEL 7
REMARK VINA RESULT:      -7.3      2.341      3.000
REMARK  8 active torsions:
REMARK  status: ('A' for Active; 'I' for Inactive)
REMARK    1  A    between atoms: C_2  and  S_3 
REMARK    2  A    between atoms: S_3  and  C_4 
REMARK    3  A    between atoms: C_7  and  C_8 
REMARK    4  A    between atoms: C_8  and  C_9 
REMARK       I    between atoms: C_9  and  N_10 
REMARK    5  A    between atoms: N_10  and  C_11 
REMARK    6  A    between atoms: N_17  and  C_19 
REMARK    7  A    between atoms: C_19  and  C_20 
REMARK    8  A    between atoms: C_27  and  C_28 
REMARK       I    between atoms: C_28  and  N_29 
ROOT
HETATM    1  C   UNL     1     -43.768  58.718 -53.784  1.00  0.00     0.093 A 
HETATM    2  S   UNL     1     -44.224  57.794 -55.140  1.00  0.00    -0.074 SA
HETATM    3  C   UNL     1     -42.854  56.814 -55.036  1.00  0.00     0.018 A 
HETATM    4  C   UNL     1     -42.014  57.191 -54.008  1.00  0.00    -0.023 A 
HETATM    5  C   UNL     1     -40.750  56.424 -53.717  1.00  0.00     0.068 C 
HETATM    6  C   UNL     1     -40.393  55.433 -54.844  1.00  0.00     0.240 C 
HETATM    7  N   UNL     1     -41.615  54.702 -55.392  1.00  0.00    -0.063 N 
HETATM    8  H   UNL     1     -41.286  54.128 -56.176  1.00  0.00     0.280 HD
HETATM    9  C   UNL     1     -42.615  55.685 -55.975  1.00  0.00     0.282 C 
HETATM   10  C   UNL     1     -42.527  58.337 -53.285  1.00  0.00     0.073 A 
ENDROOT
BRANCH   1  11
HETATM   11  N   UNL     1     -44.627  59.674 -53.258  1.00  0.00    -0.320 N 
HETATM   12  C   UNL     1     -44.497  61.055 -53.350  1.00  0.00     0.226 C 
HETATM   13  O   UNL     1     -43.537  61.673 -53.802  1.00  0.00    -0.273 OA
HETATM   14  H   UNL     1     -45.435  59.323 -52.751  1.00  0.00     0.169 HD
BRANCH  12  15
HETATM   15  C   UNL     1     -45.711  61.794 -52.809  1.00  0.00     0.141 C 
BRANCH  15  16
HETATM   16  C   UNL     1     -45.675  61.991 -51.313  1.00  0.00    -0.049 A 
HETATM   17  C   UNL     1     -46.768  62.556 -50.643  1.00  0.00     0.009 A 
HETATM   18  C   UNL     1     -46.753  62.699 -49.253  1.00  0.00     0.019 A 
HETATM   19  C   UNL     1     -45.655  62.265 -48.507  1.00  0.00     0.001 A 
HETATM   20  C   UNL     1     -44.558  61.713 -49.173  1.00  0.00     0.019 A 
HETATM   21  C   UNL     1     -44.570  61.568 -50.563  1.00  0.00     0.009 A 
BRANCH  19  22
HETATM   22  S   UNL     1     -45.677  62.482 -46.737  1.00  0.00    -0.126 SA
BRANCH  22  23
HETATM   23  C   UNL     1     -45.114  60.832 -46.151  1.00  0.00     0.044 C 
HETATM   24  C   UNL     1     -46.287  59.863 -46.030  1.00  0.00     0.021 C 
HETATM   25  C   UNL     1     -44.433  61.015 -44.796  1.00  0.00     0.021 C 
ENDBRANCH  22  23
ENDBRANCH  19  22
ENDBRANCH  15  16
ENDBRANCH  12  15
ENDBRANCH   1  11
BRANCH  10  26
HETATM   26  C   UNL     1     -41.848  58.953 -52.145  1.00  0.00     0.252 C 
HETATM   27  N   UNL     1     -40.570  59.386 -52.363  1.00  0.00    -0.366 N 
HETATM   28  H   UNL     1     -40.012  58.963 -53.096  1.00  0.00     0.159 HD
HETATM   29  H   UNL     1     -40.062  59.652 -51.526  1.00  0.00     0.159 HD
HETATM   30  O   UNL     1     -42.363  59.032 -51.037  1.00  0.00    -0.268 OA
ENDBRANCH  10  26
BRANCH   7  31
HETATM   31  C   UNL     1     -42.255  53.731 -54.423  1.00  0.00     0.273 C 
BRANCH  31  32
HETATM   32  C   UNL     1     -41.238  52.915 -53.673  1.00  0.00    -0.033 A 
HETATM   33  C   UNL     1     -40.526  51.890 -54.312  1.00  0.00     0.009 A 
HETATM   34  C   UNL     1     -39.602  51.122 -53.601  1.00  0.00     0.001 A 
HETATM   35  C   UNL     1     -39.378  51.372 -52.249  1.00  0.00     0.000 A 
HETATM   36  C   UNL     1     -40.074  52.392 -51.604  1.00  0.00     0.001 A 
HETATM   37  C   UNL     1     -41.001  53.159 -52.310  1.00  0.00     0.009 A 
ENDBRANCH  31  32
ENDBRANCH   7  31
TORSDOF 8
ENDMDL
MODEL 8
REMARK VINA RESULT:      -7.3      2.727     10.394
REMARK  8 active torsions:
REMARK  status: ('A' for Active; 'I' for Inactive)
REMARK    1  A    between atoms: C_2  and  S_3 
REMARK    2  A    between atoms: S_3  and  C_4 
REMARK    3  A    between atoms: C_7  and  C_8 
REMARK    4  A    between atoms: C_8  and  C_9 
REMARK       I    between atoms: C_9  and  N_10 
REMARK    5  A    between atoms: N_10  and  C_11 
REMARK    6  A    between atoms: N_17  and  C_19 
REMARK    7  A    between atoms: C_19  and  C_20 
REMARK    8  A    between atoms: C_27  and  C_28 
REMARK       I    between atoms: C_28  and  N_29 
ROOT
HETATM    1  C   UNL     1     -44.032  62.108 -50.407  1.00  0.00     0.093 A 
HETATM    2  S   UNL     1     -43.535  63.525 -49.605  1.00  0.00    -0.074 SA
HETATM    3  C   UNL     1     -44.705  63.353 -48.401  1.00  0.00     0.018 A 
HETATM    4  C   UNL     1     -45.512  62.253 -48.605  1.00  0.00    -0.023 A 
HETATM    5  C   UNL     1     -46.600  61.894 -47.625  1.00  0.00     0.068 C 
HETATM    6  C   UNL     1     -46.872  63.025 -46.611  1.00  0.00     0.240 C 
HETATM    7  N   UNL     1     -45.590  63.689 -46.114  1.00  0.00    -0.063 N 
HETATM    8  H   UNL     1     -45.878  64.465 -45.509  1.00  0.00     0.280 HD
HETATM    9  C   UNL     1     -44.822  64.310 -47.268  1.00  0.00     0.282 C 
HETATM   10  C   UNL     1     -45.146  61.530 -49.806  1.00  0.00     0.073 A 
ENDROOT
BRANCH   1  11
HETATM   11  N   UNL     1     -43.309  61.614 -51.485  1.00  0.00    -0.320 N 
HETATM   12  C   UNL     1     -42.419  60.547 -51.474  1.00  0.00     0.226 C 
HETATM   13  O   UNL     1     -42.018  59.935 -50.488  1.00  0.00    -0.273 OA
HETATM   14  H   UNL     1     -43.449  62.085 -52.374  1.00  0.00     0.169 HD
BRANCH  12  15
HETATM   15  C   UNL     1     -41.941  60.170 -52.869  1.00  0.00     0.141 C 
BRANCH  15  16
HETATM   16  C   UNL     1     -42.001  58.688 -53.142  1.00  0.00    -0.049 A 
HETATM   17  C   UNL     1     -43.226  58.008 -53.115  1.00  0.00     0.009 A 
HETATM   18  C   UNL     1     -43.289  56.644 -53.410  1.00  0.00     0.019 A 
HETATM   19  C   UNL     1     -42.135  55.938 -53.755  1.00  0.00     0.001 A 
HETATM   20  C   UNL     1     -40.909  56.609 -53.771  1.00  0.00     0.019 A 
HETATM   21  C   UNL     1     -40.843  57.975 -53.477  1.00  0.00     0.009 A 
BRANCH  19  22
HETATM   22  S   UNL     1     -42.264  54.196 -54.110  1.00  0.00    -0.126 SA
BRANCH  22  23
HETATM   23  C   UNL     1     -40.667  53.560 -53.454  1.00  0.00     0.044 C 
HETATM   24  C   UNL     1     -40.299  52.228 -54.101  1.00  0.00     0.021 C 
HETATM   25  C   UNL     1     -40.805  53.397 -51.941  1.00  0.00     0.021 C 
ENDBRANCH  22  23
ENDBRANCH  19  22
ENDBRANCH  15  16
ENDBRANCH  12  15
ENDBRANCH   1  11
BRANCH  10  26
HETATM   26  C   UNL     1     -45.826  60.321 -50.271  1.00  0.00     0.252 C 
HETATM   27  N   UNL     1     -45.364  59.136 -49.771  1.00  0.00    -0.366 N 
HETATM   28  H   UNL     1     -44.407  59.065 -49.445  1.00  0.00     0.159 HD
HETATM   29  H   UNL     1     -45.731  58.309 -50.229  1.00  0.00     0.159 HD
HETATM   30  O   UNL     1     -46.725  60.350 -51.102  1.00  0.00    -0.268 OA
ENDBRANCH  10  26
BRANCH   7  31
HETATM   31  C   UNL     1     -44.719  62.806 -45.248  1.00  0.00     0.273 C 
BRANCH  31  32
HETATM   32  C   UNL     1     -44.568  63.342 -43.851  1.00  0.00    -0.033 A 
HETATM   33  C   UNL     1     -45.491  64.260 -43.330  1.00  0.00     0.009 A 
HETATM   34  C   UNL     1     -45.329  64.771 -42.041  1.00  0.00     0.001 A 
HETATM   35  C   UNL     1     -44.248  64.368 -41.260  1.00  0.00     0.000 A 
HETATM   36  C   UNL     1     -43.327  63.453 -41.764  1.00  0.00     0.001 A 
HETATM   37  C   UNL     1     -43.484  62.942 -43.052  1.00  0.00     0.009 A 
ENDBRANCH  31  32
ENDBRANCH   7  31
TORSDOF 8
ENDMDL
MODEL 9
REMARK VINA RESULT:      -7.3      6.198      9.246
REMARK  8 active torsions:
REMARK  status: ('A' for Active; 'I' for Inactive)
REMARK    1  A    between atoms: C_2  and  S_3 
REMARK    2  A    between atoms: S_3  and  C_4 
REMARK    3  A    between atoms: C_7  and  C_8 
REMARK    4  A    between atoms: C_8  and  C_9 
REMARK       I    between atoms: C_9  and  N_10 
REMARK    5  A    between atoms: N_10  and  C_11 
REMARK    6  A    between atoms: N_17  and  C_19 
REMARK    7  A    between atoms: C_19  and  C_20 
REMARK    8  A    between atoms: C_27  and  C_28 
REMARK       I    between atoms: C_28  and  N_29 
ROOT
HETATM    1  C   UNL     1     -43.304  57.813 -55.968  1.00  0.00     0.093 A 
HETATM    2  S   UNL     1     -43.876  58.983 -57.065  1.00  0.00    -0.074 SA
HETATM    3  C   UNL     1     -43.938  57.879 -58.339  1.00  0.00     0.018 A 
HETATM    4  C   UNL     1     -43.491  56.626 -57.972  1.00  0.00    -0.023 A 
HETATM    5  C   UNL     1     -43.497  55.480 -58.951  1.00  0.00     0.068 C 
HETATM    6  C   UNL     1     -43.751  55.948 -60.399  1.00  0.00     0.240 C 
HETATM    7  N   UNL     1     -44.826  57.029 -60.487  1.00  0.00    -0.063 N 
HETATM    8  H   UNL     1     -44.867  57.320 -61.470  1.00  0.00     0.280 HD
HETATM    9  C   UNL     1     -44.420  58.259 -59.694  1.00  0.00     0.282 C 
HETATM   10  C   UNL     1     -43.081  56.585 -56.583  1.00  0.00     0.073 A 
ENDROOT
BRANCH   1  11
HETATM   11  N   UNL     1     -43.172  58.113 -54.618  1.00  0.00    -0.320 N 
HETATM   12  C   UNL     1     -42.318  59.051 -54.052  1.00  0.00     0.226 C 
HETATM   13  O   UNL     1     -41.442  59.690 -54.628  1.00  0.00    -0.273 OA
HETATM   14  H   UNL     1     -43.764  57.587 -53.981  1.00  0.00     0.169 HD
BRANCH  12  15
HETATM   15  C   UNL     1     -42.562  59.239 -52.562  1.00  0.00     0.141 C 
BRANCH  15  16
HETATM   16  C   UNL     1     -42.242  58.012 -51.744  1.00  0.00    -0.049 A 
HETATM   17  C   UNL     1     -43.232  57.059 -51.471  1.00  0.00     0.009 A 
HETATM   18  C   UNL     1     -42.927  55.901 -50.751  1.00  0.00     0.019 A 
HETATM   19  C   UNL     1     -41.625  55.666 -50.304  1.00  0.00     0.001 A 
HETATM   20  C   UNL     1     -40.636  56.620 -50.563  1.00  0.00     0.019 A 
HETATM   21  C   UNL     1     -40.939  57.779 -51.284  1.00  0.00     0.009 A 
BRANCH  19  22
HETATM   22  S   UNL     1     -41.287  54.181 -49.377  1.00  0.00    -0.126 SA
BRANCH  22  23
HETATM   23  C   UNL     1     -40.287  53.210 -50.577  1.00  0.00     0.044 C 
HETATM   24  C   UNL     1     -40.802  53.400 -52.001  1.00  0.00     0.021 C 
HETATM   25  C   UNL     1     -40.361  51.738 -50.176  1.00  0.00     0.021 C 
ENDBRANCH  22  23
ENDBRANCH  19  22
ENDBRANCH  15  16
ENDBRANCH  12  15
ENDBRANCH   1  11
BRANCH  10  26
HETATM   26  C   UNL     1     -42.566  55.388 -55.918  1.00  0.00     0.252 C 
HETATM   27  N   UNL     1     -41.207  55.289 -55.815  1.00  0.00    -0.366 N 
HETATM   28  H   UNL     1     -40.614  55.775 -56.479  1.00  0.00     0.159 HD
HETATM   29  H   UNL     1     -40.868  54.383 -55.508  1.00  0.00     0.159 HD
HETATM   30  O   UNL     1     -43.298  54.490 -55.521  1.00  0.00    -0.268 OA
ENDBRANCH  10  26
BRANCH   7  31
HETATM   31  C   UNL     1     -46.223  56.556 -60.148  1.00  0.00     0.273 C 
BRANCH  31  32
HETATM   32  C   UNL     1     -47.280  57.273 -60.943  1.00  0.00    -0.033 A 
HETATM   33  C   UNL     1     -47.506  58.646 -60.763  1.00  0.00     0.009 A 
HETATM   34  C   UNL     1     -48.506  59.297 -61.487  1.00  0.00     0.001 A 
HETATM   35  C   UNL     1     -49.285  58.587 -62.399  1.00  0.00     0.000 A 
HETATM   36  C   UNL     1     -49.065  57.225 -62.590  1.00  0.00     0.001 A 
HETATM   37  C   UNL     1     -48.070  56.570 -61.866  1.00  0.00     0.009 A 
ENDBRANCH  31  32
ENDBRANCH   7  31
TORSDOF 8
ENDMDL
MODEL 10
REMARK VINA RESULT:      -7.2     18.165     21.200
REMARK  8 active torsions:
REMARK  status: ('A' for Active; 'I' for Inactive)
REMARK    1  A    between atoms: C_2  and  S_3 
REMARK    2  A    between atoms: S_3  and  C_4 
REMARK    3  A    between atoms: C_7  and  C_8 
REMARK    4  A    between atoms: C_8  and  C_9 
REMARK       I    between atoms: C_9  and  N_10 
REMARK    5  A    between atoms: N_10  and  C_11 
REMARK    6  A    between atoms: N_17  and  C_19 
REMARK    7  A    between atoms: C_19  and  C_20 
REMARK    8  A    between atoms: C_27  and  C_28 
REMARK       I    between atoms: C_28  and  N_29 
ROOT
HETATM    1  C   UNL     1     -36.598  40.379 -57.397  1.00  0.00     0.093 A 
HETATM    2  S   UNL     1     -37.662  40.896 -58.621  1.00  0.00    -0.074 SA
HETATM    3  C   UNL     1     -36.994  39.846 -59.760  1.00  0.00     0.018 A 
HETATM    4  C   UNL     1     -35.936  39.121 -59.252  1.00  0.00    -0.023 A 
HETATM    5  C   UNL     1     -35.220  38.097 -60.093  1.00  0.00     0.068 C 
HETATM    6  C   UNL     1     -35.598  38.196 -61.585  1.00  0.00     0.240 C 
HETATM    7  N   UNL     1     -37.089  38.444 -61.798  1.00  0.00    -0.063 N 
HETATM    8  H   UNL     1     -37.225  38.566 -62.807  1.00  0.00     0.280 HD
HETATM    9  C   UNL     1     -37.515  39.750 -61.151  1.00  0.00     0.282 C 
HETATM   10  C   UNL     1     -35.671  39.454 -57.867  1.00  0.00     0.073 A 
ENDROOT
BRANCH   1  11
HETATM   11  N   UNL     1     -36.752  40.824 -56.090  1.00  0.00    -0.320 N 
HETATM   12  C   UNL     1     -36.039  41.840 -55.465  1.00  0.00     0.226 C 
HETATM   13  O   UNL     1     -35.065  42.437 -55.915  1.00  0.00    -0.273 OA
HETATM   14  H   UNL     1     -37.461  40.353 -55.535  1.00  0.00     0.169 HD
BRANCH  12  15
HETATM   15  C   UNL     1     -36.589  42.178 -54.088  1.00  0.00     0.141 C 
BRANCH  15  16
HETATM   16  C   UNL     1     -35.921  41.413 -52.972  1.00  0.00    -0.049 A 
HETATM   17  C   UNL     1     -35.091  42.071 -52.056  1.00  0.00     0.009 A 
HETATM   18  C   UNL     1     -34.506  41.371 -50.996  1.00  0.00     0.019 A 
HETATM   19  C   UNL     1     -34.753  40.007 -50.824  1.00  0.00     0.001 A 
HETATM   20  C   UNL     1     -35.571  39.345 -51.744  1.00  0.00     0.019 A 
HETATM   21  C   UNL     1     -36.158  40.042 -52.804  1.00  0.00     0.009 A 
BRANCH  19  22
HETATM   22  S   UNL     1     -33.974  39.155 -49.466  1.00  0.00    -0.126 SA
BRANCH  22  23
HETATM   23  C   UNL     1     -32.345  40.006 -49.376  1.00  0.00     0.044 C 
HETATM   24  C   UNL     1     -31.523  39.751 -50.636  1.00  0.00     0.021 C 
HETATM   25  C   UNL     1     -31.606  39.489 -48.143  1.00  0.00     0.021 C 
ENDBRANCH  22  23
ENDBRANCH  19  22
ENDBRANCH  15  16
ENDBRANCH  12  15
ENDBRANCH   1  11
BRANCH  10  26
HETATM   26  C   UNL     1     -34.609  38.841 -57.069  1.00  0.00     0.252 C 
HETATM   27  N   UNL     1     -34.952  37.722 -56.362  1.00  0.00    -0.366 N 
HETATM   28  H   UNL     1     -35.917  37.572 -56.092  1.00  0.00     0.159 HD
HETATM   29  H   UNL     1     -34.257  37.413 -55.690  1.00  0.00     0.159 HD
HETATM   30  O   UNL     1     -33.486  39.322 -56.985  1.00  0.00    -0.268 OA
ENDBRANCH  10  26
BRANCH   7  31
HETATM   31  C   UNL     1     -37.982  37.287 -61.408  1.00  0.00     0.273 C 
BRANCH  31  32
HETATM   32  C   UNL     1     -39.432  37.554 -61.707  1.00  0.00    -0.033 A 
HETATM   33  C   UNL     1     -39.880  37.687 -63.029  1.00  0.00     0.009 A 
HETATM   34  C   UNL     1     -41.223  37.960 -63.296  1.00  0.00     0.001 A 
HETATM   35  C   UNL     1     -42.130  38.100 -62.247  1.00  0.00     0.000 A 
HETATM   36  C   UNL     1     -41.698  37.965 -60.930  1.00  0.00     0.001 A 
HETATM   37  C   UNL     1     -40.357  37.695 -60.659  1.00  0.00     0.009 A 
ENDBRANCH  31  32
ENDBRANCH   7  31
TORSDOF 8
ENDMDL
