MODEL 1
REMARK VINA RESULT:      -7.1      0.000      0.000
REMARK  8 active torsions:
REMARK  status: ('A' for Active; 'I' for Inactive)
REMARK    1  A    between atoms: C_2  and  C_3 
REMARK    2  A    between atoms: C_3  and  C_4 
REMARK       I    between atoms: C_4  and  N_5 
REMARK    3  A    between atoms: N_8  and  C_9 
REMARK    4  A    between atoms: C_12  and  N_13 
REMARK    5  A    between atoms: N_13  and  C_14 
REMARK    6  A    between atoms: C_14  and  N_15 
REMARK       I    between atoms: N_15  and  C_16 
REMARK    7  A    between atoms: C_16  and  C_17 
REMARK    8  A    between atoms: C_18  and  O_19 
ROOT
HETATM    1  C   UNL     1     -43.598  56.433 -52.399  1.00  0.00     0.030 A 
HETATM    2  C   UNL     1     -44.145  57.236 -51.389  1.00  0.00     0.031 A 
HETATM    3  C   UNL     1     -44.910  58.374 -51.676  1.00  0.00     0.032 A 
HETATM    4  C   UNL     1     -45.152  58.749 -52.995  1.00  0.00     0.034 A 
HETATM    5  C   UNL     1     -44.691  57.928 -54.019  1.00  0.00     0.032 A 
HETATM    6  C   UNL     1     -43.907  56.802 -53.720  1.00  0.00     0.031 A 
ENDROOT
BRANCH   4   7
HETATM    7  N   UNL     1     -45.895  59.906 -53.315  1.00  0.00    -0.333 N 
HETATM    8  H   UNL     1     -46.880  59.876 -53.083  1.00  0.00     0.168 HD
BRANCH   7   9
HETATM    9  C   UNL     1     -45.517  60.901 -54.221  1.00  0.00     0.179 C 
HETATM   10  S   UNL     1     -45.870  60.876 -55.859  1.00  0.00    -0.040 SA
BRANCH   9  11
HETATM   11  N   UNL     1     -44.831  61.928 -53.550  1.00  0.00    -0.299 N 
HETATM   12  C   UNL     1     -43.482  62.166 -53.280  1.00  0.00     0.260 C 
HETATM   13  O   UNL     1     -43.084  63.314 -53.104  1.00  0.00    -0.267 OA
HETATM   14  H   UNL     1     -45.365  62.776 -53.421  1.00  0.00     0.171 HD
BRANCH  12  15
HETATM   15  C   UNL     1     -42.571  61.016 -53.102  1.00  0.00     0.067 A 
HETATM   16  C   UNL     1     -42.039  60.337 -54.208  1.00  0.00     0.084 A 
HETATM   17  C   UNL     1     -41.202  59.236 -53.992  1.00  0.00     0.039 A 
HETATM   18  C   UNL     1     -40.869  58.847 -52.691  1.00  0.00     0.026 A 
HETATM   19  C   UNL     1     -41.370  59.556 -51.601  1.00  0.00     0.035 A 
HETATM   20 CL   UNL     1     -40.958  59.073 -50.003  1.00  0.00    -0.084 Cl
HETATM   21  C   UNL     1     -42.214  60.645 -51.797  1.00  0.00     0.043 A 
BRANCH  16  22
HETATM   22  O   UNL     1     -42.442  60.718 -55.459  1.00  0.00    -0.355 OA
HETATM   23  C   UNL     1     -42.191  59.752 -56.477  1.00  0.00     0.210 C 
ENDBRANCH  16  22
ENDBRANCH  12  15
ENDBRANCH   9  11
ENDBRANCH   7   9
ENDBRANCH   4   7
BRANCH   1  24
HETATM   24  N   UNL     1     -42.721  55.376 -52.131  1.00  0.00    -0.378 N 
HETATM   25  C   UNL     1     -42.173  54.630 -53.283  1.00  0.00     0.143 C 
HETATM   26  C   UNL     1     -40.896  53.863 -52.874  1.00  0.00     0.145 C 
HETATM   27  N   UNL     1     -41.060  53.051 -51.661  1.00  0.00    -0.349 N 
HETATM   28  C   UNL     1     -40.207  52.006 -51.313  1.00  0.00     0.219 C 
HETATM   29  C   UNL     1     -41.745  53.723 -50.554  1.00  0.00     0.145 C 
HETATM   30  O   UNL     1     -40.220  51.504 -50.188  1.00  0.00    -0.273 OA
HETATM   31  C   UNL     1     -43.002  54.497 -50.975  1.00  0.00     0.143 C 
BRANCH  28  32
HETATM   32  C   UNL     1     -39.259  51.502 -52.389  1.00  0.00     0.103 C 
BRANCH  32  33
HETATM   33  C   UNL     1     -39.668  50.123 -52.913  1.00  0.00     0.005 C 
HETATM   34  C   UNL     1     -40.070  50.175 -54.377  1.00  0.00     0.005 C 
ENDBRANCH  32  33
ENDBRANCH  28  32
ENDBRANCH   1  24
TORSDOF 8
ENDMDL
MODEL 2
REMARK VINA RESULT:      -7.0      3.831      5.107
REMARK  8 active torsions:
REMARK  status: ('A' for Active; 'I' for Inactive)
REMARK    1  A    between atoms: C_2  and  C_3 
REMARK    2  A    between atoms: C_3  and  C_4 
REMARK       I    between atoms: C_4  and  N_5 
REMARK    3  A    between atoms: N_8  and  C_9 
REMARK    4  A    between atoms: C_12  and  N_13 
REMARK    5  A    between atoms: N_13  and  C_14 
REMARK    6  A    between atoms: C_14  and  N_15 
REMARK       I    between atoms: N_15  and  C_16 
REMARK    7  A    between atoms: C_16  and  C_17 
REMARK    8  A    between atoms: C_18  and  O_19 
ROOT
HETATM    1  C   UNL     1     -43.072  56.290 -54.601  1.00  0.00     0.030 A 
HETATM    2  C   UNL     1     -42.687  56.809 -55.845  1.00  0.00     0.031 A 
HETATM    3  C   UNL     1     -43.516  57.662 -56.583  1.00  0.00     0.032 A 
HETATM    4  C   UNL     1     -44.769  58.025 -56.099  1.00  0.00     0.034 A 
HETATM    5  C   UNL     1     -45.147  57.592 -54.831  1.00  0.00     0.032 A 
HETATM    6  C   UNL     1     -44.317  56.718 -54.109  1.00  0.00     0.031 A 
ENDROOT
BRANCH   4   7
HETATM    7  N   UNL     1     -45.639  58.860 -56.833  1.00  0.00    -0.333 N 
HETATM    8  H   UNL     1     -46.526  58.450 -57.097  1.00  0.00     0.168 HD
BRANCH   7   9
HETATM    9  C   UNL     1     -45.275  60.015 -57.531  1.00  0.00     0.179 C 
HETATM   10  S   UNL     1     -44.331  61.248 -56.898  1.00  0.00    -0.040 SA
BRANCH   9  11
HETATM   11  N   UNL     1     -45.788  59.971 -58.839  1.00  0.00    -0.299 N 
HETATM   12  C   UNL     1     -45.836  58.977 -59.818  1.00  0.00     0.260 C 
HETATM   13  O   UNL     1     -46.715  59.002 -60.675  1.00  0.00    -0.267 OA
HETATM   14  H   UNL     1     -46.445  60.705 -59.058  1.00  0.00     0.171 HD
BRANCH  12  15
HETATM   15  C   UNL     1     -44.756  57.968 -59.873  1.00  0.00     0.067 A 
HETATM   16  C   UNL     1     -43.428  58.343 -60.120  1.00  0.00     0.084 A 
HETATM   17  C   UNL     1     -42.443  57.351 -60.190  1.00  0.00     0.039 A 
HETATM   18  C   UNL     1     -42.776  56.010 -59.975  1.00  0.00     0.026 A 
HETATM   19  C   UNL     1     -44.093  55.656 -59.689  1.00  0.00     0.035 A 
HETATM   20 CL   UNL     1     -44.497  54.004 -59.427  1.00  0.00    -0.084 Cl
HETATM   21  C   UNL     1     -45.087  56.627 -59.628  1.00  0.00     0.043 A 
BRANCH  16  22
HETATM   22  O   UNL     1     -43.162  59.660 -60.382  1.00  0.00    -0.355 OA
HETATM   23  C   UNL     1     -42.030  60.180 -59.691  1.00  0.00     0.210 C 
ENDBRANCH  16  22
ENDBRANCH  12  15
ENDBRANCH   9  11
ENDBRANCH   7   9
ENDBRANCH   4   7
BRANCH   1  24
HETATM   24  N   UNL     1     -42.317  55.331 -53.916  1.00  0.00    -0.378 N 
HETATM   25  C   UNL     1     -41.707  54.243 -54.709  1.00  0.00     0.143 C 
HETATM   26  C   UNL     1     -40.548  53.587 -53.927  1.00  0.00     0.145 C 
HETATM   27  N   UNL     1     -40.908  53.197 -52.557  1.00  0.00    -0.349 N 
HETATM   28  C   UNL     1     -40.184  52.276 -51.803  1.00  0.00     0.219 C 
HETATM   29  C   UNL     1     -41.654  54.208 -51.802  1.00  0.00     0.145 C 
HETATM   30  O   UNL     1     -40.360  52.148 -50.590  1.00  0.00    -0.273 OA
HETATM   31  C   UNL     1     -42.791  54.866 -52.595  1.00  0.00     0.143 C 
BRANCH  28  32
HETATM   32  C   UNL     1     -39.167  51.425 -52.545  1.00  0.00     0.103 C 
BRANCH  32  33
HETATM   33  C   UNL     1     -39.760  50.088 -52.996  1.00  0.00     0.005 C 
HETATM   34  C   UNL     1     -39.797  49.972 -54.510  1.00  0.00     0.005 C 
ENDBRANCH  32  33
ENDBRANCH  28  32
ENDBRANCH   1  24
TORSDOF 8
ENDMDL
MODEL 3
REMARK VINA RESULT:      -6.9      3.459      8.576
REMARK  8 active torsions:
REMARK  status: ('A' for Active; 'I' for Inactive)
REMARK    1  A    between atoms: C_2  and  C_3 
REMARK    2  A    between atoms: C_3  and  C_4 
REMARK       I    between atoms: C_4  and  N_5 
REMARK    3  A    between atoms: N_8  and  C_9 
REMARK    4  A    between atoms: C_12  and  N_13 
REMARK    5  A    between atoms: N_13  and  C_14 
REMARK    6  A    between atoms: C_14  and  N_15 
REMARK       I    between atoms: N_15  and  C_16 
REMARK    7  A    between atoms: C_16  and  C_17 
REMARK    8  A    between atoms: C_18  and  O_19 
ROOT
HETATM    1  C   UNL     1     -42.187  57.891 -54.647  1.00  0.00     0.030 A 
HETATM    2  C   UNL     1     -41.316  58.199 -53.592  1.00  0.00     0.031 A 
HETATM    3  C   UNL     1     -41.498  57.682 -52.304  1.00  0.00     0.032 A 
HETATM    4  C   UNL     1     -42.567  56.835 -52.025  1.00  0.00     0.034 A 
HETATM    5  C   UNL     1     -43.401  56.447 -53.069  1.00  0.00     0.032 A 
HETATM    6  C   UNL     1     -43.223  56.989 -54.352  1.00  0.00     0.031 A 
ENDROOT
BRANCH   4   7
HETATM    7  N   UNL     1     -42.792  56.321 -50.730  1.00  0.00    -0.333 N 
HETATM    8  H   UNL     1     -42.662  56.974 -49.967  1.00  0.00     0.168 HD
BRANCH   7   9
HETATM    9  C   UNL     1     -42.808  54.970 -50.373  1.00  0.00     0.179 C 
HETATM   10  S   UNL     1     -44.106  53.939 -50.618  1.00  0.00    -0.040 SA
BRANCH   9  11
HETATM   11  N   UNL     1     -41.571  54.605 -49.813  1.00  0.00    -0.299 N 
HETATM   12  C   UNL     1     -40.340  54.237 -50.359  1.00  0.00     0.260 C 
HETATM   13  O   UNL     1     -39.307  54.414 -49.719  1.00  0.00    -0.267 OA
HETATM   14  H   UNL     1     -41.457  54.860 -48.842  1.00  0.00     0.171 HD
BRANCH  12  15
HETATM   15  C   UNL     1     -40.311  53.536 -51.660  1.00  0.00     0.067 A 
HETATM   16  C   UNL     1     -40.106  52.150 -51.731  1.00  0.00     0.084 A 
HETATM   17  C   UNL     1     -40.059  51.533 -52.986  1.00  0.00     0.039 A 
HETATM   18  C   UNL     1     -40.256  52.283 -54.149  1.00  0.00     0.026 A 
HETATM   19  C   UNL     1     -40.500  53.652 -54.063  1.00  0.00     0.035 A 
HETATM   20 CL   UNL     1     -40.740  54.570 -55.497  1.00  0.00    -0.084 Cl
HETATM   21  C   UNL     1     -40.538  54.285 -52.825  1.00  0.00     0.043 A 
BRANCH  16  22
HETATM   22  O   UNL     1     -39.860  51.470 -50.569  1.00  0.00    -0.355 OA
HETATM   23  C   UNL     1     -39.806  50.054 -50.717  1.00  0.00     0.210 C 
ENDBRANCH  16  22
ENDBRANCH  12  15
ENDBRANCH   9  11
ENDBRANCH   7   9
ENDBRANCH   4   7
BRANCH   1  24
HETATM   24  N   UNL     1     -42.100  58.505 -55.902  1.00  0.00    -0.378 N 
HETATM   25  C   UNL     1     -42.412  59.947 -55.984  1.00  0.00     0.143 C 
HETATM   26  C   UNL     1     -41.812  60.560 -57.268  1.00  0.00     0.145 C 
HETATM   27  N   UNL     1     -42.139  59.808 -58.487  1.00  0.00    -0.349 N 
HETATM   28  C   UNL     1     -42.044  60.343 -59.770  1.00  0.00     0.219 C 
HETATM   29  C   UNL     1     -41.986  58.355 -58.379  1.00  0.00     0.145 C 
HETATM   30  O   UNL     1     -42.089  59.632 -60.776  1.00  0.00    -0.273 OA
HETATM   31  C   UNL     1     -42.569  57.760 -57.090  1.00  0.00     0.143 C 
BRANCH  28  32
HETATM   32  C   UNL     1     -41.888  61.851 -59.879  1.00  0.00     0.103 C 
BRANCH  32  33
HETATM   33  C   UNL     1     -40.461  62.253 -60.259  1.00  0.00     0.005 C 
HETATM   34  C   UNL     1     -39.827  63.140 -59.200  1.00  0.00     0.005 C 
ENDBRANCH  32  33
ENDBRANCH  28  32
ENDBRANCH   1  24
TORSDOF 8
ENDMDL
MODEL 4
REMARK VINA RESULT:      -6.7      4.215      9.183
REMARK  8 active torsions:
REMARK  status: ('A' for Active; 'I' for Inactive)
REMARK    1  A    between atoms: C_2  and  C_3 
REMARK    2  A    between atoms: C_3  and  C_4 
REMARK       I    between atoms: C_4  and  N_5 
REMARK    3  A    between atoms: N_8  and  C_9 
REMARK    4  A    between atoms: C_12  and  N_13 
REMARK    5  A    between atoms: N_13  and  C_14 
REMARK    6  A    between atoms: C_14  and  N_15 
REMARK       I    between atoms: N_15  and  C_16 
REMARK    7  A    between atoms: C_16  and  C_17 
REMARK    8  A    between atoms: C_18  and  O_19 
ROOT
HETATM    1  C   UNL     1     -43.678  57.604 -56.997  1.00  0.00     0.030 A 
HETATM    2  C   UNL     1     -43.175  56.299 -57.093  1.00  0.00     0.031 A 
HETATM    3  C   UNL     1     -43.298  55.376 -56.047  1.00  0.00     0.032 A 
HETATM    4  C   UNL     1     -43.934  55.732 -54.861  1.00  0.00     0.034 A 
HETATM    5  C   UNL     1     -44.516  56.992 -54.766  1.00  0.00     0.032 A 
HETATM    6  C   UNL     1     -44.366  57.918 -55.812  1.00  0.00     0.031 A 
ENDROOT
BRANCH   4   7
HETATM    7  N   UNL     1     -44.050  54.832 -53.779  1.00  0.00    -0.333 N 
HETATM    8  H   UNL     1     -44.966  54.423 -53.641  1.00  0.00     0.168 HD
BRANCH   7   9
HETATM    9  C   UNL     1     -43.174  54.734 -52.694  1.00  0.00     0.179 C 
HETATM   10  S   UNL     1     -43.558  54.023 -51.226  1.00  0.00    -0.040 SA
BRANCH   9  11
HETATM   11  N   UNL     1     -41.926  55.287 -53.031  1.00  0.00    -0.299 N 
HETATM   12  C   UNL     1     -40.725  54.742 -53.487  1.00  0.00     0.260 C 
HETATM   13  O   UNL     1     -39.948  55.429 -54.144  1.00  0.00    -0.267 OA
HETATM   14  H   UNL     1     -41.938  56.283 -53.194  1.00  0.00     0.171 HD
BRANCH  12  15
HETATM   15  C   UNL     1     -40.356  53.369 -53.078  1.00  0.00     0.067 A 
HETATM   16  C   UNL     1     -40.053  53.070 -51.742  1.00  0.00     0.084 A 
HETATM   17  C   UNL     1     -39.683  51.763 -51.404  1.00  0.00     0.039 A 
HETATM   18  C   UNL     1     -39.657  50.763 -52.381  1.00  0.00     0.026 A 
HETATM   19  C   UNL     1     -40.001  51.065 -53.697  1.00  0.00     0.035 A 
HETATM   20 CL   UNL     1     -39.966  49.830 -54.894  1.00  0.00    -0.084 Cl
HETATM   21  C   UNL     1     -40.360  52.360 -54.053  1.00  0.00     0.043 A 
BRANCH  16  22
HETATM   22  O   UNL     1     -40.035  54.095 -50.835  1.00  0.00    -0.355 OA
HETATM   23  C   UNL     1     -40.170  53.682 -49.478  1.00  0.00     0.210 C 
ENDBRANCH  16  22
ENDBRANCH  12  15
ENDBRANCH   9  11
ENDBRANCH   7   9
ENDBRANCH   4   7
BRANCH   1  24
HETATM   24  N   UNL     1     -43.443  58.578 -57.975  1.00  0.00    -0.378 N 
HETATM   25  C   UNL     1     -42.049  58.778 -58.423  1.00  0.00     0.143 C 
HETATM   26  C   UNL     1     -42.018  59.490 -59.793  1.00  0.00     0.145 C 
HETATM   27  N   UNL     1     -42.842  60.706 -59.844  1.00  0.00    -0.349 N 
HETATM   28  C   UNL     1     -42.687  61.700 -60.807  1.00  0.00     0.219 C 
HETATM   29  C   UNL     1     -44.179  60.572 -59.260  1.00  0.00     0.145 C 
HETATM   30  O   UNL     1     -43.534  62.579 -60.975  1.00  0.00    -0.273 OA
HETATM   31  C   UNL     1     -44.200  59.846 -57.908  1.00  0.00     0.143 C 
BRANCH  28  32
HETATM   32  C   UNL     1     -41.418  61.660 -61.643  1.00  0.00     0.103 C 
BRANCH  32  33
HETATM   33  C   UNL     1     -40.531  62.882 -61.395  1.00  0.00     0.005 C 
HETATM   34  C   UNL     1     -39.939  62.871 -59.996  1.00  0.00     0.005 C 
ENDBRANCH  32  33
ENDBRANCH  28  32
ENDBRANCH   1  24
TORSDOF 8
ENDMDL
MODEL 5
REMARK VINA RESULT:      -6.7      3.413      8.150
REMARK  8 active torsions:
REMARK  status: ('A' for Active; 'I' for Inactive)
REMARK    1  A    between atoms: C_2  and  C_3 
REMARK    2  A    between atoms: C_3  and  C_4 
REMARK       I    between atoms: C_4  and  N_5 
REMARK    3  A    between atoms: N_8  and  C_9 
REMARK    4  A    between atoms: C_12  and  N_13 
REMARK    5  A    between atoms: N_13  and  C_14 
REMARK    6  A    between atoms: C_14  and  N_15 
REMARK       I    between atoms: N_15  and  C_16 
REMARK    7  A    between atoms: C_16  and  C_17 
REMARK    8  A    between atoms: C_18  and  O_19 
ROOT
HETATM    1  C   UNL     1     -42.536  58.645 -53.951  1.00  0.00     0.030 A 
HETATM    2  C   UNL     1     -43.497  58.581 -52.932  1.00  0.00     0.031 A 
HETATM    3  C   UNL     1     -43.215  58.023 -51.679  1.00  0.00     0.032 A 
HETATM    4  C   UNL     1     -41.953  57.505 -51.402  1.00  0.00     0.034 A 
HETATM    5  C   UNL     1     -40.955  57.627 -52.364  1.00  0.00     0.032 A 
HETATM    6  C   UNL     1     -41.255  58.168 -53.625  1.00  0.00     0.031 A 
ENDROOT
BRANCH   4   7
HETATM    7  N   UNL     1     -41.648  56.911 -50.158  1.00  0.00    -0.333 N 
HETATM    8  H   UNL     1     -41.108  57.480 -49.519  1.00  0.00     0.168 HD
BRANCH   7   9
HETATM    9  C   UNL     1     -41.686  55.544 -49.868  1.00  0.00     0.179 C 
HETATM   10  S   UNL     1     -40.459  54.704 -49.096  1.00  0.00    -0.040 SA
BRANCH   9  11
HETATM   11  N   UNL     1     -42.910  54.996 -50.291  1.00  0.00    -0.299 N 
HETATM   12  C   UNL     1     -43.265  54.109 -51.308  1.00  0.00     0.260 C 
HETATM   13  O   UNL     1     -44.279  53.425 -51.201  1.00  0.00    -0.267 OA
HETATM   14  H   UNL     1     -43.657  55.065 -49.615  1.00  0.00     0.171 HD
BRANCH  12  15
HETATM   15  C   UNL     1     -42.467  54.085 -52.553  1.00  0.00     0.067 A 
HETATM   16  C   UNL     1     -41.285  53.337 -52.640  1.00  0.00     0.084 A 
HETATM   17  C   UNL     1     -40.547  53.366 -53.830  1.00  0.00     0.039 A 
HETATM   18  C   UNL     1     -41.008  54.099 -54.928  1.00  0.00     0.026 A 
HETATM   19  C   UNL     1     -42.206  54.805 -54.841  1.00  0.00     0.035 A 
HETATM   20 CL   UNL     1     -42.767  55.707 -56.195  1.00  0.00    -0.084 Cl
HETATM   21  C   UNL     1     -42.946  54.798 -53.663  1.00  0.00     0.043 A 
BRANCH  16  22
HETATM   22  O   UNL     1     -40.845  52.684 -51.521  1.00  0.00    -0.355 OA
HETATM   23  C   UNL     1     -39.664  51.911 -51.716  1.00  0.00     0.210 C 
ENDBRANCH  16  22
ENDBRANCH  12  15
ENDBRANCH   9  11
ENDBRANCH   7   9
ENDBRANCH   4   7
BRANCH   1  24
HETATM   24  N   UNL     1     -42.839  59.072 -55.249  1.00  0.00    -0.378 N 
HETATM   25  C   UNL     1     -42.080  60.220 -55.788  1.00  0.00     0.143 C 
HETATM   26  C   UNL     1     -42.166  60.250 -57.330  1.00  0.00     0.145 C 
HETATM   27  N   UNL     1     -43.538  60.147 -57.845  1.00  0.00    -0.349 N 
HETATM   28  C   UNL     1     -43.906  60.521 -59.136  1.00  0.00     0.219 C 
HETATM   29  C   UNL     1     -44.361  59.113 -57.211  1.00  0.00     0.145 C 
HETATM   30  O   UNL     1     -44.995  60.204 -59.618  1.00  0.00    -0.273 OA
HETATM   31  C   UNL     1     -44.253  59.081 -55.681  1.00  0.00     0.143 C 
BRANCH  28  32
HETATM   32  C   UNL     1     -42.905  61.348 -59.926  1.00  0.00     0.103 C 
BRANCH  32  33
HETATM   33  C   UNL     1     -42.489  60.654 -61.225  1.00  0.00     0.005 C 
HETATM   34  C   UNL     1     -41.879  59.288 -60.961  1.00  0.00     0.005 C 
ENDBRANCH  32  33
ENDBRANCH  28  32
ENDBRANCH   1  24
TORSDOF 8
ENDMDL
MODEL 6
REMARK VINA RESULT:      -6.4      3.851      8.332
REMARK  8 active torsions:
REMARK  status: ('A' for Active; 'I' for Inactive)
REMARK    1  A    between atoms: C_2  and  C_3 
REMARK    2  A    between atoms: C_3  and  C_4 
REMARK       I    between atoms: C_4  and  N_5 
REMARK    3  A    between atoms: N_8  and  C_9 
REMARK    4  A    between atoms: C_12  and  N_13 
REMARK    5  A    between atoms: N_13  and  C_14 
REMARK    6  A    between atoms: C_14  and  N_15 
REMARK       I    between atoms: N_15  and  C_16 
REMARK    7  A    between atoms: C_16  and  C_17 
REMARK    8  A    between atoms: C_18  and  O_19 
ROOT
HETATM    1  C   UNL     1     -42.706  57.973 -55.299  1.00  0.00     0.030 A 
HETATM    2  C   UNL     1     -42.180  58.440 -54.087  1.00  0.00     0.031 A 
HETATM    3  C   UNL     1     -42.585  57.921 -52.851  1.00  0.00     0.032 A 
HETATM    4  C   UNL     1     -43.540  56.910 -52.786  1.00  0.00     0.034 A 
HETATM    5  C   UNL     1     -44.021  56.369 -53.974  1.00  0.00     0.032 A 
HETATM    6  C   UNL     1     -43.625  56.913 -55.208  1.00  0.00     0.031 A 
ENDROOT
BRANCH   4   7
HETATM    7  N   UNL     1     -43.988  56.387 -51.554  1.00  0.00    -0.333 N 
HETATM    8  H   UNL     1     -44.502  57.029 -50.963  1.00  0.00     0.168 HD
BRANCH   7   9
HETATM    9  C   UNL     1     -43.501  55.240 -50.922  1.00  0.00     0.179 C 
HETATM   10  S   UNL     1     -44.251  53.741 -50.964  1.00  0.00    -0.040 SA
BRANCH   9  11
HETATM   11  N   UNL     1     -42.283  55.524 -50.281  1.00  0.00    -0.299 N 
HETATM   12  C   UNL     1     -40.950  55.231 -50.576  1.00  0.00     0.260 C 
HETATM   13  O   UNL     1     -40.054  55.954 -50.150  1.00  0.00    -0.267 OA
HETATM   14  H   UNL     1     -42.331  56.263 -49.595  1.00  0.00     0.171 HD
BRANCH  12  15
HETATM   15  C   UNL     1     -40.632  53.988 -51.310  1.00  0.00     0.067 A 
HETATM   16  C   UNL     1     -40.504  53.986 -52.707  1.00  0.00     0.084 A 
HETATM   17  C   UNL     1     -40.229  52.780 -53.363  1.00  0.00     0.039 A 
HETATM   18  C   UNL     1     -40.044  51.604 -52.629  1.00  0.00     0.026 A 
HETATM   19  C   UNL     1     -40.133  51.629 -51.239  1.00  0.00     0.035 A 
HETATM   20 CL   UNL     1     -39.906  50.178 -50.342  1.00  0.00    -0.084 Cl
HETATM   21  C   UNL     1     -40.418  52.815 -50.571  1.00  0.00     0.043 A 
BRANCH  16  22
HETATM   22  O   UNL     1     -40.752  55.149 -53.384  1.00  0.00    -0.355 OA
HETATM   23  C   UNL     1     -40.390  55.116 -54.762  1.00  0.00     0.210 C 
ENDBRANCH  16  22
ENDBRANCH  12  15
ENDBRANCH   9  11
ENDBRANCH   7   9
ENDBRANCH   4   7
BRANCH   1  24
HETATM   24  N   UNL     1     -42.416  58.572 -56.530  1.00  0.00    -0.378 N 
HETATM   25  C   UNL     1     -42.496  60.045 -56.612  1.00  0.00     0.143 C 
HETATM   26  C   UNL     1     -41.698  60.564 -57.828  1.00  0.00     0.145 C 
HETATM   27  N   UNL     1     -42.027  59.878 -59.085  1.00  0.00    -0.349 N 
HETATM   28  C   UNL     1     -41.737  60.398 -60.344  1.00  0.00     0.219 C 
HETATM   29  C   UNL     1     -42.107  58.417 -58.990  1.00  0.00     0.145 C 
HETATM   30  O   UNL     1     -41.801  59.707 -61.363  1.00  0.00    -0.273 OA
HETATM   31  C   UNL     1     -42.886  57.913 -57.768  1.00  0.00     0.143 C 
BRANCH  28  32
HETATM   32  C   UNL     1     -41.344  61.865 -60.412  1.00  0.00     0.103 C 
BRANCH  32  33
HETATM   33  C   UNL     1     -40.934  62.283 -61.825  1.00  0.00     0.005 C 
HETATM   34  C   UNL     1     -39.616  63.038 -61.827  1.00  0.00     0.005 C 
ENDBRANCH  32  33
ENDBRANCH  28  32
ENDBRANCH   1  24
TORSDOF 8
ENDMDL
MODEL 7
REMARK VINA RESULT:      -6.4      3.830      8.314
REMARK  8 active torsions:
REMARK  status: ('A' for Active; 'I' for Inactive)
REMARK    1  A    between atoms: C_2  and  C_3 
REMARK    2  A    between atoms: C_3  and  C_4 
REMARK       I    between atoms: C_4  and  N_5 
REMARK    3  A    between atoms: N_8  and  C_9 
REMARK    4  A    between atoms: C_12  and  N_13 
REMARK    5  A    between atoms: N_13  and  C_14 
REMARK    6  A    between atoms: C_14  and  N_15 
REMARK       I    between atoms: N_15  and  C_16 
REMARK    7  A    between atoms: C_16  and  C_17 
REMARK    8  A    between atoms: C_18  and  O_19 
ROOT
HETATM    1  C   UNL     1     -43.854  58.365 -55.559  1.00  0.00     0.030 A 
HETATM    2  C   UNL     1     -44.363  59.234 -54.584  1.00  0.00     0.031 A 
HETATM    3  C   UNL     1     -44.671  58.801 -53.289  1.00  0.00     0.032 A 
HETATM    4  C   UNL     1     -44.482  57.471 -52.924  1.00  0.00     0.034 A 
HETATM    5  C   UNL     1     -43.904  56.602 -53.844  1.00  0.00     0.032 A 
HETATM    6  C   UNL     1     -43.619  57.042 -55.147  1.00  0.00     0.031 A 
ENDROOT
BRANCH   4   7
HETATM    7  N   UNL     1     -44.811  56.998 -51.635  1.00  0.00    -0.333 N 
HETATM    8  H   UNL     1     -45.543  57.504 -51.153  1.00  0.00     0.168 HD
BRANCH   7   9
HETATM    9  C   UNL     1     -44.013  56.177 -50.833  1.00  0.00     0.179 C 
HETATM   10  S   UNL     1     -44.441  54.635 -50.333  1.00  0.00    -0.040 SA
BRANCH   9  11
HETATM   11  N   UNL     1     -42.799  56.822 -50.539  1.00  0.00    -0.299 N 
HETATM   12  C   UNL     1     -41.477  56.604 -50.928  1.00  0.00     0.260 C 
HETATM   13  O   UNL     1     -40.677  57.535 -50.933  1.00  0.00    -0.267 OA
HETATM   14  H   UNL     1     -42.899  57.751 -50.155  1.00  0.00     0.171 HD
BRANCH  12  15
HETATM   15  C   UNL     1     -41.032  55.226 -51.225  1.00  0.00     0.067 A 
HETATM   16  C   UNL     1     -40.805  54.301 -50.196  1.00  0.00     0.084 A 
HETATM   17  C   UNL     1     -40.358  53.015 -50.522  1.00  0.00     0.039 A 
HETATM   18  C   UNL     1     -40.183  52.648 -51.860  1.00  0.00     0.026 A 
HETATM   19  C   UNL     1     -40.452  53.563 -52.875  1.00  0.00     0.035 A 
HETATM   20 CL   UNL     1     -40.233  53.106 -54.519  1.00  0.00    -0.084 Cl
HETATM   21  C   UNL     1     -40.885  54.849 -52.569  1.00  0.00     0.043 A 
BRANCH  16  22
HETATM   22  O   UNL     1     -40.934  54.727 -48.901  1.00  0.00    -0.355 OA
HETATM   23  C   UNL     1     -40.241  53.926 -47.948  1.00  0.00     0.210 C 
ENDBRANCH  16  22
ENDBRANCH  12  15
ENDBRANCH   9  11
ENDBRANCH   7   9
ENDBRANCH   4   7
BRANCH   1  24
HETATM   24  N   UNL     1     -43.671  58.749 -56.892  1.00  0.00    -0.378 N 
HETATM   25  C   UNL     1     -42.489  59.577 -57.211  1.00  0.00     0.143 C 
HETATM   26  C   UNL     1     -42.164  59.499 -58.718  1.00  0.00     0.145 C 
HETATM   27  N   UNL     1     -43.323  59.754 -59.585  1.00  0.00    -0.349 N 
HETATM   28  C   UNL     1     -43.216  60.107 -60.929  1.00  0.00     0.219 C 
HETATM   29  C   UNL     1     -44.553  59.061 -59.193  1.00  0.00     0.145 C 
HETATM   30  O   UNL     1     -44.188  60.079 -61.687  1.00  0.00    -0.273 OA
HETATM   31  C   UNL     1     -44.856  59.129 -57.690  1.00  0.00     0.143 C 
BRANCH  28  32
HETATM   32  C   UNL     1     -41.845  60.539 -61.422  1.00  0.00     0.103 C 
BRANCH  32  33
HETATM   33  C   UNL     1     -41.781  62.043 -61.693  1.00  0.00     0.005 C 
HETATM   34  C   UNL     1     -40.376  62.589 -61.505  1.00  0.00     0.005 C 
ENDBRANCH  32  33
ENDBRANCH  28  32
ENDBRANCH   1  24
TORSDOF 8
ENDMDL
MODEL 8
REMARK VINA RESULT:      -6.4      2.657      3.755
REMARK  8 active torsions:
REMARK  status: ('A' for Active; 'I' for Inactive)
REMARK    1  A    between atoms: C_2  and  C_3 
REMARK    2  A    between atoms: C_3  and  C_4 
REMARK       I    between atoms: C_4  and  N_5 
REMARK    3  A    between atoms: N_8  and  C_9 
REMARK    4  A    between atoms: C_12  and  N_13 
REMARK    5  A    between atoms: N_13  and  C_14 
REMARK    6  A    between atoms: C_14  and  N_15 
REMARK       I    between atoms: N_15  and  C_16 
REMARK    7  A    between atoms: C_16  and  C_17 
REMARK    8  A    between atoms: C_18  and  O_19 
ROOT
HETATM    1  C   UNL     1     -43.407  56.631 -53.222  1.00  0.00     0.030 A 
HETATM    2  C   UNL     1     -43.307  57.927 -52.697  1.00  0.00     0.031 A 
HETATM    3  C   UNL     1     -44.048  58.998 -53.213  1.00  0.00     0.032 A 
HETATM    4  C   UNL     1     -44.918  58.805 -54.282  1.00  0.00     0.034 A 
HETATM    5  C   UNL     1     -45.100  57.516 -54.772  1.00  0.00     0.032 A 
HETATM    6  C   UNL     1     -44.336  56.454 -54.261  1.00  0.00     0.031 A 
ENDROOT
BRANCH   4   7
HETATM    7  N   UNL     1     -45.657  59.870 -54.842  1.00  0.00    -0.333 N 
HETATM    8  H   UNL     1     -46.573  60.031 -54.441  1.00  0.00     0.168 HD
BRANCH   7   9
HETATM    9  C   UNL     1     -45.429  60.464 -56.086  1.00  0.00     0.179 C 
HETATM   10  S   UNL     1     -46.630  60.827 -57.199  1.00  0.00    -0.040 SA
BRANCH   9  11
HETATM   11  N   UNL     1     -44.059  60.735 -56.247  1.00  0.00    -0.299 N 
HETATM   12  C   UNL     1     -43.132  60.437 -57.247  1.00  0.00     0.260 C 
HETATM   13  O   UNL     1     -42.145  61.151 -57.402  1.00  0.00    -0.267 OA
HETATM   14  H   UNL     1     -43.703  61.468 -55.652  1.00  0.00     0.171 HD
BRANCH  12  15
HETATM   15  C   UNL     1     -43.299  59.198 -58.037  1.00  0.00     0.067 A 
HETATM   16  C   UNL     1     -43.697  59.245 -59.381  1.00  0.00     0.084 A 
HETATM   17  C   UNL     1     -43.869  58.046 -60.082  1.00  0.00     0.039 A 
HETATM   18  C   UNL     1     -43.605  56.822 -59.461  1.00  0.00     0.026 A 
HETATM   19  C   UNL     1     -43.169  56.791 -58.137  1.00  0.00     0.035 A 
HETATM   20 CL   UNL     1     -42.848  55.281 -57.378  1.00  0.00    -0.084 Cl
HETATM   21  C   UNL     1     -43.005  57.972 -57.421  1.00  0.00     0.043 A 
BRANCH  16  22
HETATM   22  O   UNL     1     -44.001  60.464 -59.926  1.00  0.00    -0.355 OA
HETATM   23  C   UNL     1     -45.106  60.447 -60.825  1.00  0.00     0.210 C 
ENDBRANCH  16  22
ENDBRANCH  12  15
ENDBRANCH   9  11
ENDBRANCH   7   9
ENDBRANCH   4   7
BRANCH   1  24
HETATM   24  N   UNL     1     -42.576  55.583 -52.810  1.00  0.00    -0.378 N 
HETATM   25  C   UNL     1     -42.038  54.684 -53.851  1.00  0.00     0.143 C 
HETATM   26  C   UNL     1     -40.799  53.927 -53.326  1.00  0.00     0.145 C 
HETATM   27  N   UNL     1     -41.014  53.274 -52.027  1.00  0.00    -0.349 N 
HETATM   28  C   UNL     1     -40.208  52.249 -51.538  1.00  0.00     0.219 C 
HETATM   29  C   UNL     1     -41.691  54.101 -51.024  1.00  0.00     0.145 C 
HETATM   30  O   UNL     1     -40.258  51.888 -50.361  1.00  0.00    -0.273 OA
HETATM   31  C   UNL     1     -42.909  54.863 -51.562  1.00  0.00     0.143 C 
BRANCH  28  32
HETATM   32  C   UNL     1     -39.262  51.584 -52.525  1.00  0.00     0.103 C 
BRANCH  32  33
HETATM   33  C   UNL     1     -39.748  50.192 -52.934  1.00  0.00     0.005 C 
HETATM   34  C   UNL     1     -39.800  50.036 -54.444  1.00  0.00     0.005 C 
ENDBRANCH  32  33
ENDBRANCH  28  32
ENDBRANCH   1  24
TORSDOF 8
ENDMDL
MODEL 9
REMARK VINA RESULT:      -6.4      3.778      8.255
REMARK  8 active torsions:
REMARK  status: ('A' for Active; 'I' for Inactive)
REMARK    1  A    between atoms: C_2  and  C_3 
REMARK    2  A    between atoms: C_3  and  C_4 
REMARK       I    between atoms: C_4  and  N_5 
REMARK    3  A    between atoms: N_8  and  C_9 
REMARK    4  A    between atoms: C_12  and  N_13 
REMARK    5  A    between atoms: N_13  and  C_14 
REMARK    6  A    between atoms: C_14  and  N_15 
REMARK       I    between atoms: N_15  and  C_16 
REMARK    7  A    between atoms: C_16  and  C_17 
REMARK    8  A    between atoms: C_18  and  O_19 
ROOT
HETATM    1  C   UNL     1     -43.119  58.086 -56.553  1.00  0.00     0.030 A 
HETATM    2  C   UNL     1     -42.439  56.868 -56.692  1.00  0.00     0.031 A 
HETATM    3  C   UNL     1     -42.697  55.773 -55.859  1.00  0.00     0.032 A 
HETATM    4  C   UNL     1     -43.651  55.861 -54.850  1.00  0.00     0.034 A 
HETATM    5  C   UNL     1     -44.400  57.028 -54.738  1.00  0.00     0.032 A 
HETATM    6  C   UNL     1     -44.117  58.128 -55.564  1.00  0.00     0.031 A 
ENDROOT
BRANCH   4   7
HETATM    7  N   UNL     1     -43.913  54.783 -53.976  1.00  0.00    -0.333 N 
HETATM    8  H   UNL     1     -44.849  54.398 -54.020  1.00  0.00     0.168 HD
BRANCH   7   9
HETATM    9  C   UNL     1     -43.172  54.446 -52.840  1.00  0.00     0.179 C 
HETATM   10  S   UNL     1     -41.690  53.663 -52.872  1.00  0.00    -0.040 SA
BRANCH   9  11
HETATM   11  N   UNL     1     -43.836  54.888 -51.683  1.00  0.00    -0.299 N 
HETATM   12  C   UNL     1     -43.935  56.126 -51.046  1.00  0.00     0.260 C 
HETATM   13  O   UNL     1     -44.911  56.380 -50.346  1.00  0.00    -0.267 OA
HETATM   14  H   UNL     1     -44.562  54.269 -51.353  1.00  0.00     0.171 HD
BRANCH  12  15
HETATM   15  C   UNL     1     -42.805  57.074 -51.137  1.00  0.00     0.067 A 
HETATM   16  C   UNL     1     -41.604  56.837 -50.452  1.00  0.00     0.084 A 
HETATM   17  C   UNL     1     -40.571  57.777 -50.545  1.00  0.00     0.039 A 
HETATM   18  C   UNL     1     -40.721  58.914 -51.345  1.00  0.00     0.026 A 
HETATM   19  C   UNL     1     -41.903  59.116 -52.054  1.00  0.00     0.035 A 
HETATM   20 CL   UNL     1     -42.083  60.517 -53.035  1.00  0.00    -0.084 Cl
HETATM   21  C   UNL     1     -42.946  58.200 -51.963  1.00  0.00     0.043 A 
BRANCH  16  22
HETATM   22  O   UNL     1     -41.528  55.741 -49.635  1.00  0.00    -0.355 OA
HETATM   23  C   UNL     1     -40.330  54.984 -49.779  1.00  0.00     0.210 C 
ENDBRANCH  16  22
ENDBRANCH  12  15
ENDBRANCH   9  11
ENDBRANCH   7   9
ENDBRANCH   4   7
BRANCH   1  24
HETATM   24  N   UNL     1     -42.779  59.230 -57.284  1.00  0.00    -0.378 N 
HETATM   25  C   UNL     1     -41.844  59.067 -58.417  1.00  0.00     0.143 C 
HETATM   26  C   UNL     1     -41.955  60.263 -59.387  1.00  0.00     0.145 C 
HETATM   27  N   UNL     1     -41.865  61.571 -58.722  1.00  0.00    -0.349 N 
HETATM   28  C   UNL     1     -41.565  62.755 -59.391  1.00  0.00     0.219 C 
HETATM   29  C   UNL     1     -42.668  61.701 -57.503  1.00  0.00     0.145 C 
HETATM   30  O   UNL     1     -41.731  63.858 -58.867  1.00  0.00    -0.273 OA
HETATM   31  C   UNL     1     -42.564  60.499 -56.556  1.00  0.00     0.143 C 
BRANCH  28  32
HETATM   32  C   UNL     1     -41.012  62.630 -60.802  1.00  0.00     0.103 C 
BRANCH  32  33
HETATM   33  C   UNL     1     -39.579  63.156 -60.904  1.00  0.00     0.005 C 
HETATM   34  C   UNL     1     -39.099  63.202 -62.345  1.00  0.00     0.005 C 
ENDBRANCH  32  33
ENDBRANCH  28  32
ENDBRANCH   1  24
TORSDOF 8
ENDMDL
MODEL 10
REMARK VINA RESULT:      -6.3      4.584      6.190
REMARK  8 active torsions:
REMARK  status: ('A' for Active; 'I' for Inactive)
REMARK    1  A    between atoms: C_2  and  C_3 
REMARK    2  A    between atoms: C_3  and  C_4 
REMARK       I    between atoms: C_4  and  N_5 
REMARK    3  A    between atoms: N_8  and  C_9 
REMARK    4  A    between atoms: C_12  and  N_13 
REMARK    5  A    between atoms: N_13  and  C_14 
REMARK    6  A    between atoms: C_14  and  N_15 
REMARK       I    between atoms: N_15  and  C_16 
REMARK    7  A    between atoms: C_16  and  C_17 
REMARK    8  A    between atoms: C_18  and  O_19 
ROOT
HETATM    1  C   UNL     1     -42.692  56.737 -56.578  1.00  0.00     0.030 A 
HETATM    2  C   UNL     1     -42.454  58.093 -56.843  1.00  0.00     0.031 A 
HETATM    3  C   UNL     1     -42.510  58.618 -58.140  1.00  0.00     0.032 A 
HETATM    4  C   UNL     1     -42.808  57.797 -59.224  1.00  0.00     0.034 A 
HETATM    5  C   UNL     1     -43.129  56.465 -58.984  1.00  0.00     0.032 A 
HETATM    6  C   UNL     1     -43.047  55.943 -57.683  1.00  0.00     0.031 A 
ENDROOT
BRANCH   4   7
HETATM    7  N   UNL     1     -42.845  58.292 -60.545  1.00  0.00    -0.333 N 
HETATM    8  H   UNL     1     -42.427  57.698 -61.251  1.00  0.00     0.168 HD
BRANCH   7   9
HETATM    9  C   UNL     1     -43.050  59.624 -60.919  1.00  0.00     0.179 C 
HETATM   10  S   UNL     1     -41.919  60.847 -60.731  1.00  0.00    -0.040 SA
BRANCH   9  11
HETATM   11  N   UNL     1     -44.321  59.771 -61.499  1.00  0.00    -0.299 N 
HETATM   12  C   UNL     1     -45.599  59.976 -60.975  1.00  0.00     0.260 C 
HETATM   13  O   UNL     1     -46.460  60.528 -61.653  1.00  0.00    -0.267 OA
HETATM   14  H   UNL     1     -44.311  59.996 -62.483  1.00  0.00     0.171 HD
BRANCH  12  15
HETATM   15  C   UNL     1     -45.926  59.423 -59.643  1.00  0.00     0.067 A 
HETATM   16  C   UNL     1     -46.394  58.109 -59.501  1.00  0.00     0.084 A 
HETATM   17  C   UNL     1     -46.718  57.637 -58.223  1.00  0.00     0.039 A 
HETATM   18  C   UNL     1     -46.537  58.453 -57.102  1.00  0.00     0.026 A 
HETATM   19  C   UNL     1     -46.031  59.743 -57.254  1.00  0.00     0.035 A 
HETATM   20 CL   UNL     1     -45.811  60.743 -55.871  1.00  0.00    -0.084 Cl
HETATM   21  C   UNL     1     -45.716  60.233 -58.516  1.00  0.00     0.043 A 
BRANCH  16  22
HETATM   22  O   UNL     1     -46.611  57.371 -60.632  1.00  0.00    -0.355 OA
HETATM   23  C   UNL     1     -46.484  55.963 -60.450  1.00  0.00     0.210 C 
ENDBRANCH  16  22
ENDBRANCH  12  15
ENDBRANCH   9  11
ENDBRANCH   7   9
ENDBRANCH   4   7
BRANCH   1  24
HETATM   24  N   UNL     1     -42.506  56.170 -55.312  1.00  0.00    -0.378 N 
HETATM   25  C   UNL     1     -41.269  55.395 -55.083  1.00  0.00     0.143 C 
HETATM   26  C   UNL     1     -40.981  55.268 -53.571  1.00  0.00     0.145 C 
HETATM   27  N   UNL     1     -42.134  54.798 -52.790  1.00  0.00    -0.349 N 
HETATM   28  C   UNL     1     -42.028  54.255 -51.511  1.00  0.00     0.219 C 
HETATM   29  C   UNL     1     -43.407  55.448 -53.114  1.00  0.00     0.145 C 
HETATM   30  O   UNL     1     -43.013  54.095 -50.790  1.00  0.00    -0.273 OA
HETATM   31  C   UNL     1     -43.673  55.585 -54.619  1.00  0.00     0.143 C 
BRANCH  28  32
HETATM   32  C   UNL     1     -40.636  53.858 -51.044  1.00  0.00     0.103 C 
BRANCH  32  33
HETATM   33  C   UNL     1     -40.139  54.752 -49.906  1.00  0.00     0.005 C 
HETATM   34  C   UNL     1     -40.277  54.071 -48.556  1.00  0.00     0.005 C 
ENDBRANCH  32  33
ENDBRANCH  28  32
ENDBRANCH   1  24
TORSDOF 8
ENDMDL
