MODEL 1
REMARK VINA RESULT:      -8.7      0.000      0.000
REMARK  6 active torsions:
REMARK  status: ('A' for Active; 'I' for Inactive)
REMARK    1  A    between atoms: O_2  and  C_3 
REMARK    2  A    between atoms: C_5  and  C_6 
REMARK    3  A    between atoms: C_12  and  C_13 
REMARK       I    between atoms: C_13  and  N_14 
REMARK    4  A    between atoms: N_14  and  C_15 
REMARK    5  A    between atoms: C_15  and  C_16 
REMARK    6  A    between atoms: C_23  and  C_24 
ROOT
HETATM    1  C   UNL     1     -43.421  55.168 -53.795  1.00  0.00     0.118 C 
HETATM    2  N   UNL     1     -43.617  55.453 -55.218  1.00  0.00    -0.365 N 
HETATM    3  C   UNL     1     -43.167  56.595 -55.799  1.00  0.00     0.138 A 
HETATM    4  N   UNL     1     -42.594  57.590 -55.044  1.00  0.00    -0.240 N 
HETATM    5  N   UNL     1     -42.319  58.709 -55.731  1.00  0.00    -0.181 NA
HETATM    6  C   UNL     1     -42.647  58.382 -56.984  1.00  0.00     0.160 A 
HETATM    7  C   UNL     1     -43.169  57.068 -57.100  1.00  0.00     0.096 A 
HETATM    8  C   UNL     1     -42.430  57.544 -53.604  1.00  0.00     0.221 C 
HETATM    9  C   UNL     1     -43.364  56.485 -52.997  1.00  0.00     0.066 C 
HETATM   10  H   UNL     1     -44.284  54.838 -55.683  1.00  0.00     0.161 HD
ENDROOT
BRANCH   7  11
HETATM   11  C   UNL     1     -43.606  56.444 -58.334  1.00  0.00     0.257 C 
HETATM   12  N   UNL     1     -44.934  56.625 -58.646  1.00  0.00    -0.352 N 
HETATM   13  H   UNL     1     -45.542  56.959 -57.913  1.00  0.00     0.163 HD
HETATM   14  O   UNL     1     -42.843  55.778 -59.027  1.00  0.00    -0.267 OA
BRANCH  12  15
HETATM   15  C   UNL     1     -45.530  55.972 -59.788  1.00  0.00     0.161 C 
BRANCH  15  16
HETATM   16  C   UNL     1     -46.474  56.887 -60.526  1.00  0.00    -0.041 A 
HETATM   17  C   UNL     1     -47.436  56.368 -61.405  1.00  0.00     0.009 A 
HETATM   18  C   UNL     1     -48.348  57.212 -62.041  1.00  0.00     0.001 A 
HETATM   19  C   UNL     1     -48.318  58.582 -61.796  1.00  0.00     0.000 A 
HETATM   20  C   UNL     1     -47.375  59.111 -60.916  1.00  0.00     0.001 A 
HETATM   21  C   UNL     1     -46.459  58.269 -60.282  1.00  0.00     0.009 A 
ENDBRANCH  15  16
ENDBRANCH  12  15
ENDBRANCH   7  11
BRANCH   1  22
HETATM   22  C   UNL     1     -42.268  54.210 -53.548  1.00  0.00    -0.033 A 
HETATM   23  C   UNL     1     -41.877  53.919 -52.228  1.00  0.00     0.046 A 
HETATM   24  C   UNL     1     -40.817  53.048 -51.948  1.00  0.00     0.068 A 
HETATM   25  C   UNL     1     -40.141  52.435 -53.000  1.00  0.00     0.037 A 
HETATM   26  C   UNL     1     -40.525  52.691 -54.316  1.00  0.00     0.003 A 
HETATM   27  C   UNL     1     -41.579  53.565 -54.587  1.00  0.00     0.009 A 
BRANCH  24  28
HETATM   28  O   UNL     1     -40.550  52.884 -50.617  1.00  0.00    -0.356 OA
HETATM   29  C   UNL     1     -39.898  53.962 -49.957  1.00  0.00     0.210 C 
ENDBRANCH  24  28
ENDBRANCH   1  22
BRANCH   8  30
HETATM   30  C   UNL     1     -40.970  57.370 -53.250  1.00  0.00     0.409 C 
HETATM   31  F   UNL     1     -40.309  56.516 -54.054  1.00  0.00    -0.169 F 
HETATM   32  F   UNL     1     -40.299  58.545 -53.274  1.00  0.00    -0.169 F 
HETATM   33  F   UNL     1     -40.853  56.897 -51.981  1.00  0.00    -0.169 F 
ENDBRANCH   8  30
TORSDOF 6
ENDMDL
MODEL 2
REMARK VINA RESULT:      -8.6      1.999      2.794
REMARK  6 active torsions:
REMARK  status: ('A' for Active; 'I' for Inactive)
REMARK    1  A    between atoms: O_2  and  C_3 
REMARK    2  A    between atoms: C_5  and  C_6 
REMARK    3  A    between atoms: C_12  and  C_13 
REMARK       I    between atoms: C_13  and  N_14 
REMARK    4  A    between atoms: N_14  and  C_15 
REMARK    5  A    between atoms: C_15  and  C_16 
REMARK    6  A    between atoms: C_23  and  C_24 
ROOT
HETATM    1  C   UNL     1     -43.481  54.635 -52.875  1.00  0.00     0.118 C 
HETATM    2  N   UNL     1     -44.016  55.597 -53.840  1.00  0.00    -0.365 N 
HETATM    3  C   UNL     1     -43.865  56.939 -53.690  1.00  0.00     0.138 A 
HETATM    4  N   UNL     1     -43.285  57.458 -52.557  1.00  0.00    -0.240 N 
HETATM    5  N   UNL     1     -43.322  58.797 -52.489  1.00  0.00    -0.181 NA
HETATM    6  C   UNL     1     -43.864  59.145 -53.659  1.00  0.00     0.160 A 
HETATM    7  C   UNL     1     -44.212  58.031 -54.465  1.00  0.00     0.096 A 
HETATM    8  C   UNL     1     -42.810  56.671 -51.436  1.00  0.00     0.221 C 
HETATM    9  C   UNL     1     -43.435  55.267 -51.471  1.00  0.00     0.066 C 
HETATM   10  H   UNL     1     -44.676  55.201 -54.509  1.00  0.00     0.161 HD
ENDROOT
BRANCH   7  11
HETATM   11  C   UNL     1     -44.815  58.104 -55.783  1.00  0.00     0.257 C 
HETATM   12  N   UNL     1     -43.933  58.273 -56.824  1.00  0.00    -0.352 N 
HETATM   13  H   UNL     1     -42.992  58.563 -56.595  1.00  0.00     0.163 HD
HETATM   14  O   UNL     1     -46.031  58.049 -55.941  1.00  0.00    -0.267 OA
BRANCH  12  15
HETATM   15  C   UNL     1     -44.399  58.469 -58.177  1.00  0.00     0.161 C 
BRANCH  15  16
HETATM   16  C   UNL     1     -44.662  57.158 -58.874  1.00  0.00    -0.041 A 
HETATM   17  C   UNL     1     -45.827  56.971 -59.633  1.00  0.00     0.009 A 
HETATM   18  C   UNL     1     -46.040  55.779 -60.327  1.00  0.00     0.001 A 
HETATM   19  C   UNL     1     -45.087  54.766 -60.281  1.00  0.00     0.000 A 
HETATM   20  C   UNL     1     -43.919  54.942 -59.540  1.00  0.00     0.001 A 
HETATM   21  C   UNL     1     -43.706  56.133 -58.841  1.00  0.00     0.009 A 
ENDBRANCH  15  16
ENDBRANCH  12  15
ENDBRANCH   7  11
BRANCH   1  22
HETATM   22  C   UNL     1     -42.180  54.005 -53.344  1.00  0.00    -0.033 A 
HETATM   23  C   UNL     1     -41.464  53.160 -52.476  1.00  0.00     0.046 A 
HETATM   24  C   UNL     1     -40.259  52.561 -52.859  1.00  0.00     0.068 A 
HETATM   25  C   UNL     1     -39.759  52.787 -54.139  1.00  0.00     0.037 A 
HETATM   26  C   UNL     1     -40.463  53.602 -55.025  1.00  0.00     0.003 A 
HETATM   27  C   UNL     1     -41.662  54.201 -54.634  1.00  0.00     0.009 A 
BRANCH  24  28
HETATM   28  O   UNL     1     -39.677  51.783 -51.895  1.00  0.00    -0.356 OA
HETATM   29  C   UNL     1     -40.234  51.858 -50.589  1.00  0.00     0.210 C 
ENDBRANCH  24  28
ENDBRANCH   1  22
BRANCH   8  30
HETATM   30  C   UNL     1     -41.297  56.683 -51.393  1.00  0.00     0.409 C 
HETATM   31  F   UNL     1     -40.759  55.612 -50.781  1.00  0.00    -0.169 F 
HETATM   32  F   UNL     1     -40.757  56.752 -52.632  1.00  0.00    -0.169 F 
HETATM   33  F   UNL     1     -40.860  57.786 -50.731  1.00  0.00    -0.169 F 
ENDBRANCH   8  30
TORSDOF 6
ENDMDL
MODEL 3
REMARK VINA RESULT:      -8.6      1.719      2.530
REMARK  6 active torsions:
REMARK  status: ('A' for Active; 'I' for Inactive)
REMARK    1  A    between atoms: O_2  and  C_3 
REMARK    2  A    between atoms: C_5  and  C_6 
REMARK    3  A    between atoms: C_12  and  C_13 
REMARK       I    between atoms: C_13  and  N_14 
REMARK    4  A    between atoms: N_14  and  C_15 
REMARK    5  A    between atoms: C_15  and  C_16 
REMARK    6  A    between atoms: C_23  and  C_24 
ROOT
HETATM    1  C   UNL     1     -43.271  54.747 -52.359  1.00  0.00     0.118 C 
HETATM    2  N   UNL     1     -43.224  55.069 -53.787  1.00  0.00    -0.365 N 
HETATM    3  C   UNL     1     -42.815  56.280 -54.246  1.00  0.00     0.138 A 
HETATM    4  N   UNL     1     -42.524  57.301 -53.373  1.00  0.00    -0.240 N 
HETATM    5  N   UNL     1     -42.262  58.473 -53.970  1.00  0.00    -0.181 NA
HETATM    6  C   UNL     1     -42.302  58.166 -55.269  1.00  0.00     0.160 A 
HETATM    7  C   UNL     1     -42.627  56.807 -55.512  1.00  0.00     0.096 A 
HETATM    8  C   UNL     1     -42.633  57.211 -51.930  1.00  0.00     0.221 C 
HETATM    9  C   UNL     1     -43.529  56.024 -51.539  1.00  0.00     0.066 C 
HETATM   10  H   UNL     1     -43.709  54.402 -54.386  1.00  0.00     0.161 HD
ENDROOT
BRANCH   7  11
HETATM   11  C   UNL     1     -42.740  56.192 -56.821  1.00  0.00     0.257 C 
HETATM   12  N   UNL     1     -42.608  57.050 -57.887  1.00  0.00    -0.352 N 
HETATM   13  H   UNL     1     -42.678  58.040 -57.699  1.00  0.00     0.163 HD
HETATM   14  O   UNL     1     -42.969  54.993 -56.953  1.00  0.00    -0.267 OA
BRANCH  12  15
HETATM   15  C   UNL     1     -42.805  56.595 -59.243  1.00  0.00     0.161 C 
BRANCH  15  16
HETATM   16  C   UNL     1     -44.264  56.585 -59.624  1.00  0.00    -0.041 A 
HETATM   17  C   UNL     1     -44.740  55.715 -60.617  1.00  0.00     0.009 A 
HETATM   18  C   UNL     1     -46.100  55.664 -60.925  1.00  0.00     0.001 A 
HETATM   19  C   UNL     1     -47.002  56.471 -60.237  1.00  0.00     0.000 A 
HETATM   20  C   UNL     1     -46.545  57.332 -59.240  1.00  0.00     0.001 A 
HETATM   21  C   UNL     1     -45.184  57.387 -58.933  1.00  0.00     0.009 A 
ENDBRANCH  15  16
ENDBRANCH  12  15
ENDBRANCH   7  11
BRANCH   1  22
HETATM   22  C   UNL     1     -42.077  53.919 -51.913  1.00  0.00    -0.033 A 
HETATM   23  C   UNL     1     -41.260  53.302 -52.878  1.00  0.00     0.046 A 
HETATM   24  C   UNL     1     -40.153  52.525 -52.518  1.00  0.00     0.068 A 
HETATM   25  C   UNL     1     -39.835  52.371 -51.170  1.00  0.00     0.037 A 
HETATM   26  C   UNL     1     -40.617  52.992 -50.197  1.00  0.00     0.003 A 
HETATM   27  C   UNL     1     -41.722  53.761 -50.564  1.00  0.00     0.009 A 
BRANCH  24  28
HETATM   28  O   UNL     1     -39.472  51.979 -53.571  1.00  0.00    -0.356 OA
HETATM   29  C   UNL     1     -39.880  50.683 -53.994  1.00  0.00     0.210 C 
ENDBRANCH  24  28
ENDBRANCH   1  22
BRANCH   8  30
HETATM   30  C   UNL     1     -41.257  57.192 -51.301  1.00  0.00     0.409 C 
HETATM   31  F   UNL     1     -41.236  56.710 -50.044  1.00  0.00    -0.169 F 
HETATM   32  F   UNL     1     -40.380  56.460 -52.027  1.00  0.00    -0.169 F 
HETATM   33  F   UNL     1     -40.749  58.452 -51.257  1.00  0.00    -0.169 F 
ENDBRANCH   8  30
TORSDOF 6
ENDMDL
MODEL 4
REMARK VINA RESULT:      -8.2      3.384      7.974
REMARK  6 active torsions:
REMARK  status: ('A' for Active; 'I' for Inactive)
REMARK    1  A    between atoms: O_2  and  C_3 
REMARK    2  A    between atoms: C_5  and  C_6 
REMARK    3  A    between atoms: C_12  and  C_13 
REMARK       I    between atoms: C_13  and  N_14 
REMARK    4  A    between atoms: N_14  and  C_15 
REMARK    5  A    between atoms: C_15  and  C_16 
REMARK    6  A    between atoms: C_23  and  C_24 
ROOT
HETATM    1  C   UNL     1     -41.728  57.848 -54.800  1.00  0.00     0.118 C 
HETATM    2  N   UNL     1     -41.814  56.999 -53.610  1.00  0.00    -0.365 N 
HETATM    3  C   UNL     1     -42.794  57.145 -52.681  1.00  0.00     0.138 A 
HETATM    4  N   UNL     1     -43.698  58.178 -52.769  1.00  0.00    -0.240 N 
HETATM    5  N   UNL     1     -44.522  58.273 -51.716  1.00  0.00    -0.181 NA
HETATM    6  C   UNL     1     -44.192  57.213 -50.975  1.00  0.00     0.160 A 
HETATM    7  C   UNL     1     -43.128  56.455 -51.529  1.00  0.00     0.096 A 
HETATM    8  C   UNL     1     -43.695  59.193 -53.804  1.00  0.00     0.221 C 
HETATM    9  C   UNL     1     -42.324  59.236 -54.500  1.00  0.00     0.066 C 
HETATM   10  H   UNL     1     -40.981  56.440 -53.430  1.00  0.00     0.161 HD
ENDROOT
BRANCH   7  11
HETATM   11  C   UNL     1     -42.560  55.254 -50.946  1.00  0.00     0.257 C 
HETATM   12  N   UNL     1     -41.213  55.078 -51.158  1.00  0.00    -0.352 N 
HETATM   13  H   UNL     1     -40.776  55.644 -51.872  1.00  0.00     0.163 HD
HETATM   14  O   UNL     1     -43.251  54.443 -50.336  1.00  0.00    -0.267 OA
BRANCH  12  15
HETATM   15  C   UNL     1     -40.537  53.877 -50.728  1.00  0.00     0.161 C 
BRANCH  15  16
HETATM   16  C   UNL     1     -40.346  52.905 -51.865  1.00  0.00    -0.041 A 
HETATM   17  C   UNL     1     -40.691  53.262 -53.178  1.00  0.00     0.009 A 
HETATM   18  C   UNL     1     -40.457  52.384 -54.238  1.00  0.00     0.001 A 
HETATM   19  C   UNL     1     -39.864  51.146 -54.001  1.00  0.00     0.000 A 
HETATM   20  C   UNL     1     -39.506  50.784 -52.703  1.00  0.00     0.001 A 
HETATM   21  C   UNL     1     -39.743  51.659 -51.641  1.00  0.00     0.009 A 
ENDBRANCH  15  16
ENDBRANCH  12  15
ENDBRANCH   7  11
BRANCH   1  22
HETATM   22  C   UNL     1     -42.274  57.163 -56.042  1.00  0.00    -0.033 A 
HETATM   23  C   UNL     1     -42.391  57.891 -57.240  1.00  0.00     0.046 A 
HETATM   24  C   UNL     1     -42.893  57.307 -58.410  1.00  0.00     0.068 A 
HETATM   25  C   UNL     1     -43.269  55.966 -58.398  1.00  0.00     0.037 A 
HETATM   26  C   UNL     1     -43.140  55.219 -57.227  1.00  0.00     0.003 A 
HETATM   27  C   UNL     1     -42.644  55.809 -56.063  1.00  0.00     0.009 A 
BRANCH  24  28
HETATM   28  O   UNL     1     -42.961  58.151 -59.485  1.00  0.00    -0.356 OA
HETATM   29  C   UNL     1     -41.876  58.106 -60.403  1.00  0.00     0.210 C 
ENDBRANCH  24  28
ENDBRANCH   1  22
BRANCH   8  30
HETATM   30  C   UNL     1     -44.866  58.990 -54.739  1.00  0.00     0.409 C 
HETATM   31  F   UNL     1     -44.667  59.474 -55.979  1.00  0.00    -0.169 F 
HETATM   32  F   UNL     1     -45.192  57.683 -54.865  1.00  0.00    -0.169 F 
HETATM   33  F   UNL     1     -45.970  59.606 -54.241  1.00  0.00    -0.169 F 
ENDBRANCH   8  30
TORSDOF 6
ENDMDL
MODEL 5
REMARK VINA RESULT:      -8.1      2.993      3.904
REMARK  6 active torsions:
REMARK  status: ('A' for Active; 'I' for Inactive)
REMARK    1  A    between atoms: O_2  and  C_3 
REMARK    2  A    between atoms: C_5  and  C_6 
REMARK    3  A    between atoms: C_12  and  C_13 
REMARK       I    between atoms: C_13  and  N_14 
REMARK    4  A    between atoms: N_14  and  C_15 
REMARK    5  A    between atoms: C_15  and  C_16 
REMARK    6  A    between atoms: C_23  and  C_24 
ROOT
HETATM    1  C   UNL     1     -43.249  54.742 -52.207  1.00  0.00     0.118 C 
HETATM    2  N   UNL     1     -43.137  55.354 -53.533  1.00  0.00    -0.365 N 
HETATM    3  C   UNL     1     -42.724  56.636 -53.709  1.00  0.00     0.138 A 
HETATM    4  N   UNL     1     -42.492  57.455 -52.630  1.00  0.00    -0.240 N 
HETATM    5  N   UNL     1     -42.219  58.727 -52.957  1.00  0.00    -0.181 NA
HETATM    6  C   UNL     1     -42.190  58.696 -54.292  1.00  0.00     0.160 A 
HETATM    7  C   UNL     1     -42.482  57.415 -54.827  1.00  0.00     0.096 A 
HETATM    8  C   UNL     1     -42.671  57.067 -51.245  1.00  0.00     0.221 C 
HETATM    9  C   UNL     1     -43.567  55.820 -51.154  1.00  0.00     0.066 C 
HETATM   10  H   UNL     1     -43.581  54.824 -54.281  1.00  0.00     0.161 HD
ENDROOT
BRANCH   7  11
HETATM   11  C   UNL     1     -42.520  57.084 -56.239  1.00  0.00     0.257 C 
HETATM   12  N   UNL     1     -42.452  58.157 -57.097  1.00  0.00    -0.352 N 
HETATM   13  H   UNL     1     -42.613  59.075 -56.707  1.00  0.00     0.163 HD
HETATM   14  O   UNL     1     -42.638  55.926 -56.628  1.00  0.00    -0.267 OA
BRANCH  12  15
HETATM   15  C   UNL     1     -42.587  57.985 -58.524  1.00  0.00     0.161 C 
BRANCH  15  16
HETATM   16  C   UNL     1     -42.223  59.241 -59.275  1.00  0.00    -0.041 A 
HETATM   17  C   UNL     1     -41.781  60.383 -58.591  1.00  0.00     0.009 A 
HETATM   18  C   UNL     1     -41.387  61.524 -59.292  1.00  0.00     0.001 A 
HETATM   19  C   UNL     1     -41.418  61.532 -60.684  1.00  0.00     0.000 A 
HETATM   20  C   UNL     1     -41.844  60.400 -61.378  1.00  0.00     0.001 A 
HETATM   21  C   UNL     1     -42.243  59.259 -60.678  1.00  0.00     0.009 A 
ENDBRANCH  15  16
ENDBRANCH  12  15
ENDBRANCH   7  11
BRANCH   1  22
HETATM   22  C   UNL     1     -42.066  53.846 -51.880  1.00  0.00    -0.033 A 
HETATM   23  C   UNL     1     -41.284  53.320 -52.925  1.00  0.00     0.046 A 
HETATM   24  C   UNL     1     -40.188  52.485 -52.677  1.00  0.00     0.068 A 
HETATM   25  C   UNL     1     -39.846  52.179 -51.362  1.00  0.00     0.037 A 
HETATM   26  C   UNL     1     -40.593  52.708 -50.309  1.00  0.00     0.003 A 
HETATM   27  C   UNL     1     -41.687  53.536 -50.564  1.00  0.00     0.009 A 
BRANCH  24  28
HETATM   28  O   UNL     1     -39.543  52.041 -53.798  1.00  0.00    -0.356 OA
HETATM   29  C   UNL     1     -39.801  50.700 -54.197  1.00  0.00     0.210 C 
ENDBRANCH  24  28
ENDBRANCH   1  22
BRANCH   8  30
HETATM   30  C   UNL     1     -41.328  56.925 -50.563  1.00  0.00     0.409 C 
HETATM   31  F   UNL     1     -41.356  56.165 -49.452  1.00  0.00    -0.169 F 
HETATM   32  F   UNL     1     -40.396  56.396 -51.389  1.00  0.00    -0.169 F 
HETATM   33  F   UNL     1     -40.859  58.148 -50.201  1.00  0.00    -0.169 F 
ENDBRANCH   8  30
TORSDOF 6
ENDMDL
MODEL 6
REMARK VINA RESULT:      -8.0      1.707      2.478
REMARK  6 active torsions:
REMARK  status: ('A' for Active; 'I' for Inactive)
REMARK    1  A    between atoms: O_2  and  C_3 
REMARK    2  A    between atoms: C_5  and  C_6 
REMARK    3  A    between atoms: C_12  and  C_13 
REMARK       I    between atoms: C_13  and  N_14 
REMARK    4  A    between atoms: N_14  and  C_15 
REMARK    5  A    between atoms: C_15  and  C_16 
REMARK    6  A    between atoms: C_23  and  C_24 
ROOT
HETATM    1  C   UNL     1     -43.253  55.885 -54.102  1.00  0.00     0.118 C 
HETATM    2  N   UNL     1     -43.195  56.846 -55.204  1.00  0.00    -0.365 N 
HETATM    3  C   UNL     1     -42.757  58.121 -55.035  1.00  0.00     0.138 A 
HETATM    4  N   UNL     1     -42.445  58.597 -53.784  1.00  0.00    -0.240 N 
HETATM    5  N   UNL     1     -42.155  59.906 -53.753  1.00  0.00    -0.181 NA
HETATM    6  C   UNL     1     -42.197  60.255 -55.041  1.00  0.00     0.160 A 
HETATM    7  C   UNL     1     -42.552  59.183 -55.899  1.00  0.00     0.096 A 
HETATM    8  C   UNL     1     -42.561  57.834 -52.557  1.00  0.00     0.221 C 
HETATM    9  C   UNL     1     -43.485  56.623 -52.770  1.00  0.00     0.066 C 
HETATM   10  H   UNL     1     -43.693  56.556 -56.045  1.00  0.00     0.161 HD
ENDROOT
BRANCH   7  11
HETATM   11  C   UNL     1     -42.675  59.267 -57.342  1.00  0.00     0.257 C 
HETATM   12  N   UNL     1     -43.911  58.937 -57.847  1.00  0.00    -0.352 N 
HETATM   13  H   UNL     1     -44.549  58.450 -57.233  1.00  0.00     0.163 HD
HETATM   14  O   UNL     1     -41.726  59.581 -58.054  1.00  0.00    -0.267 OA
BRANCH  12  15
HETATM   15  C   UNL     1     -44.146  58.872 -59.270  1.00  0.00     0.161 C 
BRANCH  15  16
HETATM   16  C   UNL     1     -44.490  57.474 -59.717  1.00  0.00    -0.041 A 
HETATM   17  C   UNL     1     -43.548  56.439 -59.623  1.00  0.00     0.009 A 
HETATM   18  C   UNL     1     -43.887  55.133 -59.981  1.00  0.00     0.001 A 
HETATM   19  C   UNL     1     -45.175  54.844 -60.424  1.00  0.00     0.000 A 
HETATM   20  C   UNL     1     -46.125  55.861 -60.512  1.00  0.00     0.001 A 
HETATM   21  C   UNL     1     -45.786  57.169 -60.159  1.00  0.00     0.009 A 
ENDBRANCH  15  16
ENDBRANCH  12  15
ENDBRANCH   7  11
BRANCH   1  22
HETATM   22  C   UNL     1     -42.080  54.919 -54.112  1.00  0.00    -0.033 A 
HETATM   23  C   UNL     1     -41.822  54.128 -52.977  1.00  0.00     0.046 A 
HETATM   24  C   UNL     1     -40.751  53.228 -52.934  1.00  0.00     0.068 A 
HETATM   25  C   UNL     1     -39.926  53.094 -54.049  1.00  0.00     0.037 A 
HETATM   26  C   UNL     1     -40.176  53.851 -55.193  1.00  0.00     0.003 A 
HETATM   27  C   UNL     1     -41.243  54.750 -55.226  1.00  0.00     0.009 A 
BRANCH  24  28
HETATM   28  O   UNL     1     -40.624  52.547 -51.755  1.00  0.00    -0.356 OA
HETATM   29  C   UNL     1     -40.042  53.255 -50.666  1.00  0.00     0.210 C 
ENDBRANCH  24  28
ENDBRANCH   1  22
BRANCH   8  30
HETATM   30  C   UNL     1     -41.188  57.488 -52.023  1.00  0.00     0.409 C 
HETATM   31  F   UNL     1     -41.170  56.414 -51.212  1.00  0.00    -0.169 F 
HETATM   32  F   UNL     1     -40.303  57.254 -53.020  1.00  0.00    -0.169 F 
HETATM   33  F   UNL     1     -40.688  58.534 -51.315  1.00  0.00    -0.169 F 
ENDBRANCH   8  30
TORSDOF 6
ENDMDL
MODEL 7
REMARK VINA RESULT:      -7.8      2.166      2.853
REMARK  6 active torsions:
REMARK  status: ('A' for Active; 'I' for Inactive)
REMARK    1  A    between atoms: O_2  and  C_3 
REMARK    2  A    between atoms: C_5  and  C_6 
REMARK    3  A    between atoms: C_12  and  C_13 
REMARK       I    between atoms: C_13  and  N_14 
REMARK    4  A    between atoms: N_14  and  C_15 
REMARK    5  A    between atoms: C_15  and  C_16 
REMARK    6  A    between atoms: C_23  and  C_24 
ROOT
HETATM    1  C   UNL     1     -43.364  54.883 -52.387  1.00  0.00     0.118 C 
HETATM    2  N   UNL     1     -43.361  55.324 -53.784  1.00  0.00    -0.365 N 
HETATM    3  C   UNL     1     -43.034  56.592 -54.145  1.00  0.00     0.138 A 
HETATM    4  N   UNL     1     -42.791  57.554 -53.194  1.00  0.00    -0.240 N 
HETATM    5  N   UNL     1     -42.611  58.785 -53.694  1.00  0.00    -0.181 NA
HETATM    6  C   UNL     1     -42.653  58.584 -55.013  1.00  0.00     0.160 A 
HETATM    7  C   UNL     1     -42.899  57.232 -55.365  1.00  0.00     0.096 A 
HETATM    8  C   UNL     1     -42.871  57.339 -51.762  1.00  0.00     0.221 C 
HETATM    9  C   UNL     1     -43.686  56.071 -51.461  1.00  0.00     0.066 C 
HETATM   10  H   UNL     1     -43.814  54.680 -54.431  1.00  0.00     0.161 HD
ENDROOT
BRANCH   7  11
HETATM   11  C   UNL     1     -42.996  56.721 -56.719  1.00  0.00     0.257 C 
HETATM   12  N   UNL     1     -43.102  57.676 -57.702  1.00  0.00    -0.352 N 
HETATM   13  H   UNL     1     -43.335  58.616 -57.414  1.00  0.00     0.163 HD
HETATM   14  O   UNL     1     -43.014  55.516 -56.955  1.00  0.00    -0.267 OA
BRANCH  12  15
HETATM   15  C   UNL     1     -43.313  57.311 -59.083  1.00  0.00     0.161 C 
BRANCH  15  16
HETATM   16  C   UNL     1     -43.238  58.507 -59.997  1.00  0.00    -0.041 A 
HETATM   17  C   UNL     1     -42.004  58.950 -60.498  1.00  0.00     0.009 A 
HETATM   18  C   UNL     1     -41.943  60.020 -61.392  1.00  0.00     0.001 A 
HETATM   19  C   UNL     1     -43.113  60.653 -61.805  1.00  0.00     0.000 A 
HETATM   20  C   UNL     1     -44.346  60.216 -61.324  1.00  0.00     0.001 A 
HETATM   21  C   UNL     1     -44.410  59.148 -60.426  1.00  0.00     0.009 A 
ENDBRANCH  15  16
ENDBRANCH  12  15
ENDBRANCH   7  11
BRANCH   1  22
HETATM   22  C   UNL     1     -42.115  54.098 -52.025  1.00  0.00    -0.033 A 
HETATM   23  C   UNL     1     -41.853  53.795 -50.676  1.00  0.00     0.046 A 
HETATM   24  C   UNL     1     -40.713  53.080 -50.290  1.00  0.00     0.068 A 
HETATM   25  C   UNL     1     -39.822  52.636 -51.264  1.00  0.00     0.037 A 
HETATM   26  C   UNL     1     -40.073  52.904 -52.609  1.00  0.00     0.003 A 
HETATM   27  C   UNL     1     -41.209  53.623 -52.986  1.00  0.00     0.009 A 
BRANCH  24  28
HETATM   28  O   UNL     1     -40.592  52.883 -48.941  1.00  0.00    -0.356 OA
HETATM   29  C   UNL     1     -40.295  54.028 -48.151  1.00  0.00     0.210 C 
ENDBRANCH  24  28
ENDBRANCH   1  22
BRANCH   8  30
HETATM   30  C   UNL     1     -41.486  57.354 -51.153  1.00  0.00     0.409 C 
HETATM   31  F   UNL     1     -40.994  58.589 -50.940  1.00  0.00    -0.169 F 
HETATM   32  F   UNL     1     -41.447  56.697 -49.971  1.00  0.00    -0.169 F 
HETATM   33  F   UNL     1     -40.612  56.709 -51.970  1.00  0.00    -0.169 F 
ENDBRANCH   8  30
TORSDOF 6
ENDMDL
MODEL 8
REMARK VINA RESULT:      -7.7      4.058      8.455
REMARK  6 active torsions:
REMARK  status: ('A' for Active; 'I' for Inactive)
REMARK    1  A    between atoms: O_2  and  C_3 
REMARK    2  A    between atoms: C_5  and  C_6 
REMARK    3  A    between atoms: C_12  and  C_13 
REMARK       I    between atoms: C_13  and  N_14 
REMARK    4  A    between atoms: N_14  and  C_15 
REMARK    5  A    between atoms: C_15  and  C_16 
REMARK    6  A    between atoms: C_23  and  C_24 
ROOT
HETATM    1  C   UNL     1     -41.785  59.913 -52.685  1.00  0.00     0.118 C 
HETATM    2  N   UNL     1     -41.446  58.539 -53.058  1.00  0.00    -0.365 N 
HETATM    3  C   UNL     1     -42.200  57.475 -52.678  1.00  0.00     0.138 A 
HETATM    4  N   UNL     1     -43.270  57.639 -51.829  1.00  0.00    -0.240 N 
HETATM    5  N   UNL     1     -43.838  56.489 -51.437  1.00  0.00    -0.181 NA
HETATM    6  C   UNL     1     -43.164  55.567 -52.129  1.00  0.00     0.160 A 
HETATM    7  C   UNL     1     -42.135  56.117 -52.937  1.00  0.00     0.096 A 
HETATM    8  C   UNL     1     -43.682  58.904 -51.255  1.00  0.00     0.221 C 
HETATM    9  C   UNL     1     -42.536  59.925 -51.341  1.00  0.00     0.066 C 
HETATM   10  H   UNL     1     -40.507  58.424 -53.439  1.00  0.00     0.161 HD
ENDROOT
BRANCH   7  11
HETATM   11  C   UNL     1     -41.245  55.358 -53.795  1.00  0.00     0.257 C 
HETATM   12  N   UNL     1     -41.516  54.013 -53.880  1.00  0.00    -0.352 N 
HETATM   13  H   UNL     1     -42.137  53.619 -53.188  1.00  0.00     0.163 HD
HETATM   14  O   UNL     1     -40.300  55.886 -54.374  1.00  0.00    -0.267 OA
BRANCH  12  15
HETATM   15  C   UNL     1     -40.649  53.119 -54.611  1.00  0.00     0.161 C 
BRANCH  15  16
HETATM   16  C   UNL     1     -40.189  51.964 -53.758  1.00  0.00    -0.041 A 
HETATM   17  C   UNL     1     -39.936  52.140 -52.389  1.00  0.00     0.009 A 
HETATM   18  C   UNL     1     -39.570  51.057 -51.588  1.00  0.00     0.001 A 
HETATM   19  C   UNL     1     -39.464  49.784 -52.142  1.00  0.00     0.000 A 
HETATM   20  C   UNL     1     -39.723  49.592 -53.499  1.00  0.00     0.001 A 
HETATM   21  C   UNL     1     -40.086  50.675 -54.302  1.00  0.00     0.009 A 
ENDBRANCH  15  16
ENDBRANCH  12  15
ENDBRANCH   7  11
BRANCH   1  22
HETATM   22  C   UNL     1     -42.466  60.669 -53.814  1.00  0.00    -0.033 A 
HETATM   23  C   UNL     1     -42.638  60.043 -55.063  1.00  0.00     0.046 A 
HETATM   24  C   UNL     1     -43.254  60.698 -56.136  1.00  0.00     0.068 A 
HETATM   25  C   UNL     1     -43.727  61.997 -55.964  1.00  0.00     0.037 A 
HETATM   26  C   UNL     1     -43.587  62.629 -54.728  1.00  0.00     0.003 A 
HETATM   27  C   UNL     1     -42.968  61.971 -53.664  1.00  0.00     0.009 A 
BRANCH  24  28
HETATM   28  O   UNL     1     -43.329  59.962 -57.286  1.00  0.00    -0.356 OA
HETATM   29  C   UNL     1     -42.986  60.628 -58.496  1.00  0.00     0.210 C 
ENDBRANCH  24  28
ENDBRANCH   1  22
BRANCH   8  30
HETATM   30  C   UNL     1     -44.980  59.365 -51.882  1.00  0.00     0.409 C 
HETATM   31  F   UNL     1     -45.112  59.027 -53.178  1.00  0.00    -0.169 F 
HETATM   32  F   UNL     1     -46.059  58.876 -51.227  1.00  0.00    -0.169 F 
HETATM   33  F   UNL     1     -45.077  60.718 -51.807  1.00  0.00    -0.169 F 
ENDBRANCH   8  30
TORSDOF 6
ENDMDL
MODEL 9
REMARK VINA RESULT:      -7.7      3.494      7.982
REMARK  6 active torsions:
REMARK  status: ('A' for Active; 'I' for Inactive)
REMARK    1  A    between atoms: O_2  and  C_3 
REMARK    2  A    between atoms: C_5  and  C_6 
REMARK    3  A    between atoms: C_12  and  C_13 
REMARK       I    between atoms: C_13  and  N_14 
REMARK    4  A    between atoms: N_14  and  C_15 
REMARK    5  A    between atoms: C_15  and  C_16 
REMARK    6  A    between atoms: C_23  and  C_24 
ROOT
HETATM    1  C   UNL     1     -42.062  58.996 -55.959  1.00  0.00     0.118 C 
HETATM    2  N   UNL     1     -42.258  58.344 -54.663  1.00  0.00    -0.365 N 
HETATM    3  C   UNL     1     -43.385  58.519 -53.924  1.00  0.00     0.138 A 
HETATM    4  N   UNL     1     -44.355  59.408 -54.321  1.00  0.00    -0.240 N 
HETATM    5  N   UNL     1     -45.343  59.572 -53.430  1.00  0.00    -0.181 NA
HETATM    6  C   UNL     1     -45.038  58.692 -52.474  1.00  0.00     0.160 A 
HETATM    7  C   UNL     1     -43.833  57.988 -52.727  1.00  0.00     0.096 A 
HETATM    8  C   UNL     1     -44.281  60.237 -55.507  1.00  0.00     0.221 C 
HETATM    9  C   UNL     1     -42.826  60.333 -55.998  1.00  0.00     0.066 C 
HETATM   10  H   UNL     1     -41.416  57.925 -54.270  1.00  0.00     0.161 HD
ENDROOT
BRANCH   7  11
HETATM   11  C   UNL     1     -43.256  56.972 -51.866  1.00  0.00     0.257 C 
HETATM   12  N   UNL     1     -43.659  55.683 -52.126  1.00  0.00    -0.352 N 
HETATM   13  H   UNL     1     -44.472  55.559 -52.712  1.00  0.00     0.163 HD
HETATM   14  O   UNL     1     -42.488  57.260 -50.953  1.00  0.00    -0.267 OA
BRANCH  12  15
HETATM   15  C   UNL     1     -43.249  54.586 -51.281  1.00  0.00     0.161 C 
BRANCH  15  16
HETATM   16  C   UNL     1     -42.131  53.788 -51.904  1.00  0.00    -0.041 A 
HETATM   17  C   UNL     1     -42.025  53.670 -53.298  1.00  0.00     0.009 A 
HETATM   18  C   UNL     1     -40.955  52.982 -53.874  1.00  0.00     0.001 A 
HETATM   19  C   UNL     1     -39.974  52.416 -53.065  1.00  0.00     0.000 A 
HETATM   20  C   UNL     1     -40.061  52.535 -51.679  1.00  0.00     0.001 A 
HETATM   21  C   UNL     1     -41.132  53.220 -51.100  1.00  0.00     0.009 A 
ENDBRANCH  15  16
ENDBRANCH  12  15
ENDBRANCH   7  11
BRANCH   1  22
HETATM   22  C   UNL     1     -42.334  58.060 -57.126  1.00  0.00    -0.033 A 
HETATM   23  C   UNL     1     -41.969  58.450 -58.428  1.00  0.00     0.046 A 
HETATM   24  C   UNL     1     -42.203  57.626 -59.535  1.00  0.00     0.068 A 
HETATM   25  C   UNL     1     -42.795  56.380 -59.348  1.00  0.00     0.037 A 
HETATM   26  C   UNL     1     -43.144  55.963 -58.063  1.00  0.00     0.003 A 
HETATM   27  C   UNL     1     -42.913  56.791 -56.964  1.00  0.00     0.009 A 
BRANCH  24  28
HETATM   28  O   UNL     1     -41.808  58.155 -60.733  1.00  0.00    -0.356 OA
HETATM   29  C   UNL     1     -42.021  59.550 -60.919  1.00  0.00     0.210 C 
ENDBRANCH  24  28
ENDBRANCH   1  22
BRANCH   8  30
HETATM   30  C   UNL     1     -45.263  59.748 -56.549  1.00  0.00     0.409 C 
HETATM   31  F   UNL     1     -46.437  60.406 -56.546  1.00  0.00    -0.169 F 
HETATM   32  F   UNL     1     -44.757  59.836 -57.801  1.00  0.00    -0.169 F 
HETATM   33  F   UNL     1     -45.538  58.433 -56.347  1.00  0.00    -0.169 F 
ENDBRANCH   8  30
TORSDOF 6
ENDMDL
MODEL 10
REMARK VINA RESULT:      -7.7      3.296      8.164
REMARK  6 active torsions:
REMARK  status: ('A' for Active; 'I' for Inactive)
REMARK    1  A    between atoms: O_2  and  C_3 
REMARK    2  A    between atoms: C_5  and  C_6 
REMARK    3  A    between atoms: C_12  and  C_13 
REMARK       I    between atoms: C_13  and  N_14 
REMARK    4  A    between atoms: N_14  and  C_15 
REMARK    5  A    between atoms: C_15  and  C_16 
REMARK    6  A    between atoms: C_23  and  C_24 
ROOT
HETATM    1  C   UNL     1     -42.602  60.075 -56.679  1.00  0.00     0.118 C 
HETATM    2  N   UNL     1     -42.205  59.107 -55.654  1.00  0.00    -0.365 N 
HETATM    3  C   UNL     1     -43.106  58.321 -55.009  1.00  0.00     0.138 A 
HETATM    4  N   UNL     1     -44.455  58.478 -55.221  1.00  0.00    -0.240 N 
HETATM    5  N   UNL     1     -45.225  57.727 -54.421  1.00  0.00    -0.181 NA
HETATM    6  C   UNL     1     -44.336  57.002 -53.738  1.00  0.00     0.160 A 
HETATM    7  C   UNL     1     -42.992  57.312 -54.069  1.00  0.00     0.096 A 
HETATM    8  C   UNL     1     -45.044  59.468 -56.102  1.00  0.00     0.221 C 
HETATM    9  C   UNL     1     -44.028  60.583 -56.400  1.00  0.00     0.066 C 
HETATM   10  H   UNL     1     -41.248  59.214 -55.321  1.00  0.00     0.161 HD
ENDROOT
BRANCH   7  11
HETATM   11  C   UNL     1     -41.818  56.686 -53.489  1.00  0.00     0.257 C 
HETATM   12  N   UNL     1     -42.068  55.597 -52.688  1.00  0.00    -0.352 N 
HETATM   13  H   UNL     1     -43.019  55.457 -52.377  1.00  0.00     0.163 HD
HETATM   14  O   UNL     1     -40.689  57.126 -53.683  1.00  0.00    -0.267 OA
BRANCH  12  15
HETATM   15  C   UNL     1     -41.007  54.941 -51.961  1.00  0.00     0.161 C 
BRANCH  15  16
HETATM   16  C   UNL     1     -40.597  53.646 -52.615  1.00  0.00    -0.041 A 
HETATM   17  C   UNL     1     -39.912  52.661 -51.888  1.00  0.00     0.009 A 
HETATM   18  C   UNL     1     -39.587  51.438 -52.478  1.00  0.00     0.001 A 
HETATM   19  C   UNL     1     -39.955  51.180 -53.796  1.00  0.00     0.000 A 
HETATM   20  C   UNL     1     -40.647  52.145 -54.526  1.00  0.00     0.001 A 
HETATM   21  C   UNL     1     -40.969  53.371 -53.940  1.00  0.00     0.009 A 
ENDBRANCH  15  16
ENDBRANCH  12  15
ENDBRANCH   7  11
BRANCH   1  22
HETATM   22  C   UNL     1     -42.362  59.558 -58.088  1.00  0.00    -0.033 A 
HETATM   23  C   UNL     1     -42.308  58.171 -58.319  1.00  0.00     0.046 A 
HETATM   24  C   UNL     1     -42.084  57.645 -59.597  1.00  0.00     0.068 A 
HETATM   25  C   UNL     1     -41.928  58.513 -60.675  1.00  0.00     0.037 A 
HETATM   26  C   UNL     1     -42.000  59.891 -60.474  1.00  0.00     0.003 A 
HETATM   27  C   UNL     1     -42.219  60.408 -59.196  1.00  0.00     0.009 A 
BRANCH  24  28
HETATM   28  O   UNL     1     -42.042  56.279 -59.652  1.00  0.00    -0.356 OA
HETATM   29  C   UNL     1     -43.292  55.603 -59.729  1.00  0.00     0.210 C 
ENDBRANCH  24  28
ENDBRANCH   1  22
BRANCH   8  30
HETATM   30  C   UNL     1     -45.619  58.799 -57.331  1.00  0.00     0.409 C 
HETATM   31  F   UNL     1     -46.944  58.572 -57.262  1.00  0.00    -0.169 F 
HETATM   32  F   UNL     1     -45.393  59.521 -58.452  1.00  0.00    -0.169 F 
HETATM   33  F   UNL     1     -45.016  57.597 -57.530  1.00  0.00    -0.169 F 
ENDBRANCH   8  30
TORSDOF 6
ENDMDL
