MODEL 1
REMARK VINA RESULT:      -8.8      0.000      0.000
REMARK  6 active torsions:
REMARK  status: ('A' for Active; 'I' for Inactive)
REMARK    1  A    between atoms: C_2  and  O_3 
REMARK    2  A    between atoms: C_2  and  C_4 
REMARK    3  A    between atoms: C_6  and  C_16 
REMARK    4  A    between atoms: C_9  and  C_10 
REMARK       I    between atoms: C_16  and  N_18 
REMARK    5  A    between atoms: N_18  and  C_19 
REMARK    6  A    between atoms: C_19  and  C_21 
ROOT
HETATM    1  C   UNL     1     -40.625  53.558 -52.218  1.00  0.00    -0.018 A 
HETATM    2  C   UNL     1     -41.011  54.706 -52.943  1.00  0.00     0.027 A 
HETATM    3  C   UNL     1     -40.945  54.752 -54.345  1.00  0.00     0.032 A 
HETATM    4  C   UNL     1     -40.468  53.641 -55.042  1.00  0.00     0.018 A 
HETATM    5  C   UNL     1     -40.103  52.487 -54.344  1.00  0.00     0.014 A 
HETATM    6  C   UNL     1     -40.186  52.431 -52.941  1.00  0.00    -0.014 A 
ENDROOT
BRANCH   3   7
HETATM    7  C   UNL     1     -41.388  56.000 -55.027  1.00  0.00     0.252 C 
HETATM    8  O   UNL     1     -41.181  57.090 -54.505  1.00  0.00    -0.268 OA
HETATM    9  N   UNL     1     -42.064  55.852 -56.220  1.00  0.00    -0.349 N 
HETATM   10  H   UNL     1     -42.356  54.932 -56.512  1.00  0.00     0.163 HD
BRANCH   9  11
HETATM   11  C   UNL     1     -42.692  56.992 -56.871  1.00  0.00     0.114 C 
HETATM   12  C   UNL     1     -43.692  57.674 -55.935  1.00  0.00     0.037 C 
BRANCH  11  13
HETATM   13  C   UNL     1     -43.347  56.567 -58.175  1.00  0.00    -0.036 A 
HETATM   14  C   UNL     1     -43.574  55.201 -58.423  1.00  0.00     0.012 A 
HETATM   15  C   UNL     1     -44.160  54.782 -59.618  1.00  0.00     0.043 A 
HETATM   16  C   UNL     1     -44.528  55.724 -60.568  1.00  0.00     0.116 A 
HETATM   17  F   UNL     1     -45.090  55.322 -61.716  1.00  0.00    -0.206 F 
HETATM   18  C   UNL     1     -44.321  57.080 -60.346  1.00  0.00     0.043 A 
HETATM   19  C   UNL     1     -43.729  57.503 -59.153  1.00  0.00     0.012 A 
ENDBRANCH  11  13
ENDBRANCH   9  11
ENDBRANCH   3   7
BRANCH   1  20
HETATM   20  C   UNL     1     -40.758  53.560 -50.704  1.00  0.00     0.148 C 
HETATM   21  C   UNL     1     -42.004  54.306 -50.246  1.00  0.00     0.044 C 
BRANCH  20  22
HETATM   22  O   UNL     1     -39.619  54.171 -50.093  1.00  0.00    -0.391 OA
HETATM   23  H   UNL     1     -38.854  53.997 -50.668  1.00  0.00     0.210 HD
ENDBRANCH  20  22
ENDBRANCH   1  20
BRANCH   6  24
HETATM   24  C   UNL     1     -39.839  51.182 -52.299  1.00  0.00     0.011 A 
HETATM   25  C   UNL     1     -39.673  50.871 -50.933  1.00  0.00     0.152 A 
HETATM   26  N   UNL     1     -39.373  49.584 -50.738  1.00  0.00    -0.187 NA
HETATM   27  N   UNL     1     -39.358  49.070 -51.979  1.00  0.00    -0.289 N 
HETATM   28  H   UNL     1     -39.148  48.083 -52.088  1.00  0.00     0.188 HD
HETATM   29  C   UNL     1     -39.647  49.986 -52.951  1.00  0.00     0.123 A 
ENDBRANCH   6  24
TORSDOF 6
ENDMDL
MODEL 2
REMARK VINA RESULT:      -8.7      3.497      8.897
REMARK  6 active torsions:
REMARK  status: ('A' for Active; 'I' for Inactive)
REMARK    1  A    between atoms: C_2  and  O_3 
REMARK    2  A    between atoms: C_2  and  C_4 
REMARK    3  A    between atoms: C_6  and  C_16 
REMARK    4  A    between atoms: C_9  and  C_10 
REMARK       I    between atoms: C_16  and  N_18 
REMARK    5  A    between atoms: N_18  and  C_19 
REMARK    6  A    between atoms: C_19  and  C_21 
ROOT
HETATM    1  C   UNL     1     -42.873  56.947 -58.130  1.00  0.00    -0.018 A 
HETATM    2  C   UNL     1     -42.897  56.037 -57.051  1.00  0.00     0.027 A 
HETATM    3  C   UNL     1     -42.810  56.469 -55.718  1.00  0.00     0.032 A 
HETATM    4  C   UNL     1     -42.678  57.833 -55.450  1.00  0.00     0.018 A 
HETATM    5  C   UNL     1     -42.677  58.751 -56.503  1.00  0.00     0.014 A 
HETATM    6  C   UNL     1     -42.782  58.323 -57.838  1.00  0.00    -0.014 A 
ENDROOT
BRANCH   3   7
HETATM    7  C   UNL     1     -42.859  55.439 -54.643  1.00  0.00     0.252 C 
HETATM    8  O   UNL     1     -43.880  54.784 -54.468  1.00  0.00    -0.268 OA
HETATM    9  N   UNL     1     -41.735  55.308 -53.854  1.00  0.00    -0.349 N 
HETATM   10  H   UNL     1     -40.994  55.988 -53.931  1.00  0.00     0.163 HD
BRANCH   9  11
HETATM   11  C   UNL     1     -41.745  54.461 -52.671  1.00  0.00     0.114 C 
HETATM   12  C   UNL     1     -41.192  55.211 -51.457  1.00  0.00     0.037 C 
BRANCH  11  13
HETATM   13  C   UNL     1     -40.977  53.174 -52.929  1.00  0.00    -0.036 A 
HETATM   14  C   UNL     1     -41.068  52.555 -54.189  1.00  0.00     0.012 A 
HETATM   15  C   UNL     1     -40.386  51.366 -54.449  1.00  0.00     0.043 A 
HETATM   16  C   UNL     1     -39.606  50.792 -53.454  1.00  0.00     0.116 A 
HETATM   17  F   UNL     1     -38.952  49.650 -53.702  1.00  0.00    -0.206 F 
HETATM   18  C   UNL     1     -39.494  51.386 -52.203  1.00  0.00     0.043 A 
HETATM   19  C   UNL     1     -40.180  52.574 -51.938  1.00  0.00     0.012 A 
ENDBRANCH  11  13
ENDBRANCH   9  11
ENDBRANCH   3   7
BRANCH   1  20
HETATM   20  C   UNL     1     -43.011  56.417 -59.547  1.00  0.00     0.148 C 
HETATM   21  C   UNL     1     -43.754  55.088 -59.586  1.00  0.00     0.044 C 
BRANCH  20  22
HETATM   22  O   UNL     1     -41.727  56.231 -60.149  1.00  0.00    -0.391 OA
HETATM   23  H   UNL     1     -41.700  55.325 -60.500  1.00  0.00     0.210 HD
ENDBRANCH  20  22
ENDBRANCH   1  20
BRANCH   6  24
HETATM   24  C   UNL     1     -42.825  59.340 -58.866  1.00  0.00     0.011 A 
HETATM   25  C   UNL     1     -41.796  59.871 -59.671  1.00  0.00     0.152 A 
HETATM   26  N   UNL     1     -42.245  60.789 -60.531  1.00  0.00    -0.187 NA
HETATM   27  N   UNL     1     -43.565  60.836 -60.283  1.00  0.00    -0.289 N 
HETATM   28  H   UNL     1     -44.133  61.479 -60.826  1.00  0.00     0.188 HD
HETATM   29  C   UNL     1     -43.966  59.974 -59.302  1.00  0.00     0.123 A 
ENDBRANCH   6  24
TORSDOF 6
ENDMDL
MODEL 3
REMARK VINA RESULT:      -8.6      1.634      2.233
REMARK  6 active torsions:
REMARK  status: ('A' for Active; 'I' for Inactive)
REMARK    1  A    between atoms: C_2  and  O_3 
REMARK    2  A    between atoms: C_2  and  C_4 
REMARK    3  A    between atoms: C_6  and  C_16 
REMARK    4  A    between atoms: C_9  and  C_10 
REMARK       I    between atoms: C_16  and  N_18 
REMARK    5  A    between atoms: N_18  and  C_19 
REMARK    6  A    between atoms: C_19  and  C_21 
ROOT
HETATM    1  C   UNL     1     -40.617  53.630 -52.390  1.00  0.00    -0.018 A 
HETATM    2  C   UNL     1     -41.006  54.899 -52.872  1.00  0.00     0.027 A 
HETATM    3  C   UNL     1     -40.992  55.205 -54.241  1.00  0.00     0.032 A 
HETATM    4  C   UNL     1     -40.566  54.238 -55.153  1.00  0.00     0.018 A 
HETATM    5  C   UNL     1     -40.199  52.968 -54.698  1.00  0.00     0.014 A 
HETATM    6  C   UNL     1     -40.230  52.652 -53.328  1.00  0.00    -0.014 A 
ENDROOT
BRANCH   3   7
HETATM    7  C   UNL     1     -41.434  56.565 -54.660  1.00  0.00     0.252 C 
HETATM    8  O   UNL     1     -41.151  57.540 -53.972  1.00  0.00    -0.268 OA
HETATM    9  N   UNL     1     -42.196  56.648 -55.807  1.00  0.00    -0.349 N 
HETATM   10  H   UNL     1     -42.542  55.801 -56.233  1.00  0.00     0.163 HD
BRANCH   9  11
HETATM   11  C   UNL     1     -42.824  57.900 -56.200  1.00  0.00     0.114 C 
HETATM   12  C   UNL     1     -44.336  57.849 -55.969  1.00  0.00     0.037 C 
BRANCH  11  13
HETATM   13  C   UNL     1     -42.491  58.232 -57.646  1.00  0.00    -0.036 A 
HETATM   14  C   UNL     1     -42.255  59.570 -58.012  1.00  0.00     0.012 A 
HETATM   15  C   UNL     1     -41.963  59.906 -59.334  1.00  0.00     0.043 A 
HETATM   16  C   UNL     1     -41.898  58.906 -60.296  1.00  0.00     0.116 A 
HETATM   17  F   UNL     1     -41.619  59.228 -61.566  1.00  0.00    -0.206 F 
HETATM   18  C   UNL     1     -42.121  57.577 -59.960  1.00  0.00     0.043 A 
HETATM   19  C   UNL     1     -42.419  57.239 -58.638  1.00  0.00     0.012 A 
ENDBRANCH  11  13
ENDBRANCH   9  11
ENDBRANCH   3   7
BRANCH   1  20
HETATM   20  C   UNL     1     -40.693  53.350 -50.898  1.00  0.00     0.148 C 
HETATM   21  C   UNL     1     -41.965  53.914 -50.280  1.00  0.00     0.044 C 
BRANCH  20  22
HETATM   22  O   UNL     1     -39.572  53.917 -50.216  1.00  0.00    -0.391 OA
HETATM   23  H   UNL     1     -39.865  54.144 -49.317  1.00  0.00     0.210 HD
ENDBRANCH  20  22
ENDBRANCH   1  20
BRANCH   6  24
HETATM   24  C   UNL     1     -39.885  51.300 -52.945  1.00  0.00     0.011 A 
HETATM   25  C   UNL     1     -39.803  50.124 -53.719  1.00  0.00     0.152 A 
HETATM   26  N   UNL     1     -39.424  49.066 -52.996  1.00  0.00    -0.187 NA
HETATM   27  N   UNL     1     -39.252  49.570 -51.762  1.00  0.00    -0.289 N 
HETATM   28  H   UNL     1     -38.959  48.940 -51.023  1.00  0.00     0.188 HD
HETATM   29  C   UNL     1     -39.502  50.911 -51.682  1.00  0.00     0.123 A 
ENDBRANCH   6  24
TORSDOF 6
ENDMDL
MODEL 4
REMARK VINA RESULT:      -8.2      4.463      8.541
REMARK  6 active torsions:
REMARK  status: ('A' for Active; 'I' for Inactive)
REMARK    1  A    between atoms: C_2  and  O_3 
REMARK    2  A    between atoms: C_2  and  C_4 
REMARK    3  A    between atoms: C_6  and  C_16 
REMARK    4  A    between atoms: C_9  and  C_10 
REMARK       I    between atoms: C_16  and  N_18 
REMARK    5  A    between atoms: N_18  and  C_19 
REMARK    6  A    between atoms: C_19  and  C_21 
ROOT
HETATM    1  C   UNL     1     -43.227  58.857 -51.757  1.00  0.00    -0.018 A 
HETATM    2  C   UNL     1     -42.828  57.573 -51.325  1.00  0.00     0.027 A 
HETATM    3  C   UNL     1     -43.179  56.414 -52.033  1.00  0.00     0.032 A 
HETATM    4  C   UNL     1     -43.957  56.526 -53.186  1.00  0.00     0.018 A 
HETATM    5  C   UNL     1     -44.342  57.790 -53.643  1.00  0.00     0.014 A 
HETATM    6  C   UNL     1     -43.976  58.955 -52.946  1.00  0.00    -0.014 A 
ENDROOT
BRANCH   3   7
HETATM    7  C   UNL     1     -42.701  55.102 -51.510  1.00  0.00     0.252 C 
HETATM    8  O   UNL     1     -43.503  54.297 -51.049  1.00  0.00    -0.268 OA
HETATM    9  N   UNL     1     -41.340  54.880 -51.534  1.00  0.00    -0.349 N 
HETATM   10  H   UNL     1     -40.718  55.641 -51.762  1.00  0.00     0.163 HD
BRANCH   9  11
HETATM   11  C   UNL     1     -40.760  53.713 -50.887  1.00  0.00     0.114 C 
HETATM   12  C   UNL     1     -39.575  54.111 -50.003  1.00  0.00     0.037 C 
BRANCH  11  13
HETATM   13  C   UNL     1     -40.360  52.673 -51.921  1.00  0.00    -0.036 A 
HETATM   14  C   UNL     1     -40.579  52.935 -53.286  1.00  0.00     0.012 A 
HETATM   15  C   UNL     1     -40.236  51.992 -54.256  1.00  0.00     0.043 A 
HETATM   16  C   UNL     1     -39.668  50.786 -53.868  1.00  0.00     0.116 A 
HETATM   17  F   UNL     1     -39.339  49.880 -54.798  1.00  0.00    -0.206 F 
HETATM   18  C   UNL     1     -39.436  50.505 -52.527  1.00  0.00     0.043 A 
HETATM   19  C   UNL     1     -39.783  51.445 -51.554  1.00  0.00     0.012 A 
ENDBRANCH  11  13
ENDBRANCH   9  11
ENDBRANCH   3   7
BRANCH   1  20
HETATM   20  C   UNL     1     -42.780  60.076 -50.967  1.00  0.00     0.148 C 
HETATM   21  C   UNL     1     -41.356  59.926 -50.451  1.00  0.00     0.044 C 
BRANCH  20  22
HETATM   22  O   UNL     1     -43.642  60.301 -49.848  1.00  0.00    -0.391 OA
HETATM   23  H   UNL     1     -44.465  59.811 -50.014  1.00  0.00     0.210 HD
ENDBRANCH  20  22
ENDBRANCH   1  20
BRANCH   6  24
HETATM   24  C   UNL     1     -44.370  60.226 -53.515  1.00  0.00     0.011 A 
HETATM   25  C   UNL     1     -43.695  61.070 -54.422  1.00  0.00     0.152 A 
HETATM   26  N   UNL     1     -44.408  62.158 -54.730  1.00  0.00    -0.187 NA
HETATM   27  N   UNL     1     -45.543  62.003 -54.027  1.00  0.00    -0.289 N 
HETATM   28  H   UNL     1     -46.255  62.722 -54.101  1.00  0.00     0.188 HD
HETATM   29  C   UNL     1     -45.576  60.850 -53.294  1.00  0.00     0.123 A 
ENDBRANCH   6  24
TORSDOF 6
ENDMDL
MODEL 5
REMARK VINA RESULT:      -8.0      3.718      9.162
REMARK  6 active torsions:
REMARK  status: ('A' for Active; 'I' for Inactive)
REMARK    1  A    between atoms: C_2  and  O_3 
REMARK    2  A    between atoms: C_2  and  C_4 
REMARK    3  A    between atoms: C_6  and  C_16 
REMARK    4  A    between atoms: C_9  and  C_10 
REMARK       I    between atoms: C_16  and  N_18 
REMARK    5  A    between atoms: N_18  and  C_19 
REMARK    6  A    between atoms: C_19  and  C_21 
ROOT
HETATM    1  C   UNL     1     -43.373  56.584 -58.113  1.00  0.00    -0.018 A 
HETATM    2  C   UNL     1     -42.481  55.969 -57.207  1.00  0.00     0.027 A 
HETATM    3  C   UNL     1     -42.507  56.258 -55.834  1.00  0.00     0.032 A 
HETATM    4  C   UNL     1     -43.424  57.192 -55.350  1.00  0.00     0.018 A 
HETATM    5  C   UNL     1     -44.331  57.794 -56.227  1.00  0.00     0.014 A 
HETATM    6  C   UNL     1     -44.320  57.492 -57.600  1.00  0.00    -0.014 A 
ENDROOT
BRANCH   3   7
HETATM    7  C   UNL     1     -41.538  55.550 -54.950  1.00  0.00     0.252 C 
HETATM    8  O   UNL     1     -40.503  56.108 -54.603  1.00  0.00    -0.268 OA
HETATM    9  N   UNL     1     -41.849  54.252 -54.599  1.00  0.00    -0.349 N 
HETATM   10  H   UNL     1     -42.621  53.788 -55.052  1.00  0.00     0.163 HD
BRANCH   9  11
HETATM   11  C   UNL     1     -40.889  53.418 -53.891  1.00  0.00     0.114 C 
HETATM   12  C   UNL     1     -41.073  51.943 -54.258  1.00  0.00     0.037 C 
BRANCH  11  13
HETATM   13  C   UNL     1     -40.996  53.638 -52.391  1.00  0.00    -0.036 A 
HETATM   14  C   UNL     1     -39.922  53.273 -51.560  1.00  0.00     0.012 A 
HETATM   15  C   UNL     1     -39.999  53.450 -50.178  1.00  0.00     0.043 A 
HETATM   16  C   UNL     1     -41.147  53.996 -49.620  1.00  0.00     0.116 A 
HETATM   17  F   UNL     1     -41.223  54.164 -48.293  1.00  0.00    -0.206 F 
HETATM   18  C   UNL     1     -42.221  54.369 -50.419  1.00  0.00     0.043 A 
HETATM   19  C   UNL     1     -42.148  54.189 -51.802  1.00  0.00     0.012 A 
ENDBRANCH  11  13
ENDBRANCH   9  11
ENDBRANCH   3   7
BRANCH   1  20
HETATM   20  C   UNL     1     -43.319  56.197 -59.581  1.00  0.00     0.148 C 
HETATM   21  C   UNL     1     -44.078  54.906 -59.855  1.00  0.00     0.044 C 
BRANCH  20  22
HETATM   22  O   UNL     1     -41.967  56.023 -60.013  1.00  0.00    -0.391 OA
HETATM   23  H   UNL     1     -41.941  55.223 -60.566  1.00  0.00     0.210 HD
ENDBRANCH  20  22
ENDBRANCH   1  20
BRANCH   6  24
HETATM   24  C   UNL     1     -45.325  58.119 -58.431  1.00  0.00     0.011 A 
HETATM   25  C   UNL     1     -46.616  57.680 -58.791  1.00  0.00     0.152 A 
HETATM   26  N   UNL     1     -47.256  58.564 -59.564  1.00  0.00    -0.187 NA
HETATM   27  N   UNL     1     -46.376  59.573 -59.687  1.00  0.00    -0.289 N 
HETATM   28  H   UNL     1     -46.644  60.377 -60.244  1.00  0.00     0.188 HD
HETATM   29  C   UNL     1     -45.207  59.360 -59.012  1.00  0.00     0.123 A 
ENDBRANCH   6  24
TORSDOF 6
ENDMDL
MODEL 6
REMARK VINA RESULT:      -7.9      4.212      5.806
REMARK  6 active torsions:
REMARK  status: ('A' for Active; 'I' for Inactive)
REMARK    1  A    between atoms: C_2  and  O_3 
REMARK    2  A    between atoms: C_2  and  C_4 
REMARK    3  A    between atoms: C_6  and  C_16 
REMARK    4  A    between atoms: C_9  and  C_10 
REMARK       I    between atoms: C_16  and  N_18 
REMARK    5  A    between atoms: N_18  and  C_19 
REMARK    6  A    between atoms: C_19  and  C_21 
ROOT
HETATM    1  C   UNL     1     -40.772  53.541 -52.860  1.00  0.00    -0.018 A 
HETATM    2  C   UNL     1     -40.995  54.872 -52.443  1.00  0.00     0.027 A 
HETATM    3  C   UNL     1     -40.734  55.286 -51.127  1.00  0.00     0.032 A 
HETATM    4  C   UNL     1     -40.260  54.357 -50.200  1.00  0.00     0.018 A 
HETATM    5  C   UNL     1     -40.011  53.041 -50.600  1.00  0.00     0.014 A 
HETATM    6  C   UNL     1     -40.253  52.627 -51.922  1.00  0.00    -0.014 A 
ENDROOT
BRANCH   3   7
HETATM    7  C   UNL     1     -40.985  56.713 -50.780  1.00  0.00     0.252 C 
HETATM    8  O   UNL     1     -41.418  57.007 -49.671  1.00  0.00    -0.268 OA
HETATM    9  N   UNL     1     -40.750  57.646 -51.769  1.00  0.00    -0.349 N 
HETATM   10  H   UNL     1     -40.562  57.333 -52.709  1.00  0.00     0.163 HD
BRANCH   9  11
HETATM   11  C   UNL     1     -41.131  59.039 -51.590  1.00  0.00     0.114 C 
HETATM   12  C   UNL     1     -40.470  59.630 -50.342  1.00  0.00     0.037 C 
BRANCH  11  13
HETATM   13  C   UNL     1     -42.644  59.175 -51.539  1.00  0.00    -0.036 A 
HETATM   14  C   UNL     1     -43.226  60.096 -50.649  1.00  0.00     0.012 A 
HETATM   15  C   UNL     1     -44.613  60.232 -50.570  1.00  0.00     0.043 A 
HETATM   16  C   UNL     1     -45.424  59.452 -51.383  1.00  0.00     0.116 A 
HETATM   17  F   UNL     1     -46.755  59.580 -51.306  1.00  0.00    -0.206 F 
HETATM   18  C   UNL     1     -44.875  58.539 -52.274  1.00  0.00     0.043 A 
HETATM   19  C   UNL     1     -43.488  58.398 -52.352  1.00  0.00     0.012 A 
ENDBRANCH  11  13
ENDBRANCH   9  11
ENDBRANCH   3   7
BRANCH   1  20
HETATM   20  C   UNL     1     -41.036  53.167 -54.309  1.00  0.00     0.148 C 
HETATM   21  C   UNL     1     -40.127  53.926 -55.266  1.00  0.00     0.044 C 
BRANCH  20  22
HETATM   22  O   UNL     1     -42.393  53.441 -54.667  1.00  0.00    -0.391 OA
HETATM   23  H   UNL     1     -42.420  54.343 -55.029  1.00  0.00     0.210 HD
ENDBRANCH  20  22
ENDBRANCH   1  20
BRANCH   6  24
HETATM   24  C   UNL     1     -39.919  51.263 -52.268  1.00  0.00     0.011 A 
HETATM   25  C   UNL     1     -39.739  50.657 -53.528  1.00  0.00     0.152 A 
HETATM   26  N   UNL     1     -39.410  49.366 -53.429  1.00  0.00    -0.187 NA
HETATM   27  N   UNL     1     -39.368  49.150 -52.104  1.00  0.00    -0.289 N 
HETATM   28  H   UNL     1     -39.134  48.219 -51.776  1.00  0.00     0.188 HD
HETATM   29  C   UNL     1     -39.651  50.262 -51.362  1.00  0.00     0.123 A 
ENDBRANCH   6  24
TORSDOF 6
ENDMDL
MODEL 7
REMARK VINA RESULT:      -7.8      2.579      3.544
REMARK  6 active torsions:
REMARK  status: ('A' for Active; 'I' for Inactive)
REMARK    1  A    between atoms: C_2  and  O_3 
REMARK    2  A    between atoms: C_2  and  C_4 
REMARK    3  A    between atoms: C_6  and  C_16 
REMARK    4  A    between atoms: C_9  and  C_10 
REMARK       I    between atoms: C_16  and  N_18 
REMARK    5  A    between atoms: N_18  and  C_19 
REMARK    6  A    between atoms: C_19  and  C_21 
ROOT
HETATM    1  C   UNL     1     -41.911  55.618 -52.394  1.00  0.00    -0.018 A 
HETATM    2  C   UNL     1     -42.159  56.420 -53.530  1.00  0.00     0.027 A 
HETATM    3  C   UNL     1     -41.713  57.748 -53.608  1.00  0.00     0.032 A 
HETATM    4  C   UNL     1     -41.020  58.300 -52.530  1.00  0.00     0.018 A 
HETATM    5  C   UNL     1     -40.743  57.516 -51.407  1.00  0.00     0.014 A 
HETATM    6  C   UNL     1     -41.173  56.179 -51.333  1.00  0.00    -0.014 A 
ENDROOT
BRANCH   3   7
HETATM    7  C   UNL     1     -42.008  58.514 -54.852  1.00  0.00     0.252 C 
HETATM    8  O   UNL     1     -41.509  59.621 -55.024  1.00  0.00    -0.268 OA
HETATM    9  N   UNL     1     -42.887  57.937 -55.746  1.00  0.00    -0.349 N 
HETATM   10  H   UNL     1     -43.397  57.111 -55.474  1.00  0.00     0.163 HD
BRANCH   9  11
HETATM   11  C   UNL     1     -43.376  58.678 -56.899  1.00  0.00     0.114 C 
HETATM   12  C   UNL     1     -44.573  59.552 -56.517  1.00  0.00     0.037 C 
BRANCH  11  13
HETATM   13  C   UNL     1     -43.718  57.729 -58.036  1.00  0.00    -0.036 A 
HETATM   14  C   UNL     1     -42.821  56.699 -58.371  1.00  0.00     0.012 A 
HETATM   15  C   UNL     1     -43.102  55.823 -59.421  1.00  0.00     0.043 A 
HETATM   16  C   UNL     1     -44.282  55.968 -60.137  1.00  0.00     0.116 A 
HETATM   17  F   UNL     1     -44.552  55.129 -61.145  1.00  0.00    -0.206 F 
HETATM   18  C   UNL     1     -45.188  56.974 -59.823  1.00  0.00     0.043 A 
HETATM   19  C   UNL     1     -44.907  57.855 -58.776  1.00  0.00     0.012 A 
ENDBRANCH  11  13
ENDBRANCH   9  11
ENDBRANCH   3   7
BRANCH   1  20
HETATM   20  C   UNL     1     -42.387  54.175 -52.389  1.00  0.00     0.148 C 
HETATM   21  C   UNL     1     -41.696  53.346 -53.463  1.00  0.00     0.044 C 
BRANCH  20  22
HETATM   22  O   UNL     1     -43.798  54.104 -52.605  1.00  0.00    -0.391 OA
HETATM   23  H   UNL     1     -44.183  53.628 -51.850  1.00  0.00     0.210 HD
ENDBRANCH  20  22
ENDBRANCH   1  20
BRANCH   6  24
HETATM   24  C   UNL     1     -40.800  55.421 -50.158  1.00  0.00     0.011 A 
HETATM   25  C   UNL     1     -41.420  55.329 -48.895  1.00  0.00     0.152 A 
HETATM   26  N   UNL     1     -40.777  54.494 -48.073  1.00  0.00    -0.187 NA
HETATM   27  N   UNL     1     -39.753  54.043 -48.817  1.00  0.00    -0.289 N 
HETATM   28  H   UNL     1     -39.110  53.381 -48.396  1.00  0.00     0.188 HD
HETATM   29  C   UNL     1     -39.731  54.558 -50.082  1.00  0.00     0.123 A 
ENDBRANCH   6  24
TORSDOF 6
ENDMDL
MODEL 8
REMARK VINA RESULT:      -7.8      3.856      9.355
REMARK  6 active torsions:
REMARK  status: ('A' for Active; 'I' for Inactive)
REMARK    1  A    between atoms: C_2  and  O_3 
REMARK    2  A    between atoms: C_2  and  C_4 
REMARK    3  A    between atoms: C_6  and  C_16 
REMARK    4  A    between atoms: C_9  and  C_10 
REMARK       I    between atoms: C_16  and  N_18 
REMARK    5  A    between atoms: N_18  and  C_19 
REMARK    6  A    between atoms: C_19  and  C_21 
ROOT
HETATM    1  C   UNL     1     -44.421  57.390 -58.960  1.00  0.00    -0.018 A 
HETATM    2  C   UNL     1     -43.898  56.960 -57.720  1.00  0.00     0.027 A 
HETATM    3  C   UNL     1     -44.316  57.527 -56.506  1.00  0.00     0.032 A 
HETATM    4  C   UNL     1     -45.258  58.557 -56.522  1.00  0.00     0.018 A 
HETATM    5  C   UNL     1     -45.804  58.980 -57.736  1.00  0.00     0.014 A 
HETATM    6  C   UNL     1     -45.402  58.401 -58.953  1.00  0.00    -0.014 A 
ENDROOT
BRANCH   3   7
HETATM    7  C   UNL     1     -43.721  56.999 -55.246  1.00  0.00     0.252 C 
HETATM    8  O   UNL     1     -44.437  56.457 -54.411  1.00  0.00    -0.268 OA
HETATM    9  N   UNL     1     -42.368  57.196 -55.065  1.00  0.00    -0.349 N 
HETATM   10  H   UNL     1     -41.866  57.798 -55.700  1.00  0.00     0.163 HD
BRANCH   9  11
HETATM   11  C   UNL     1     -41.728  56.880 -53.796  1.00  0.00     0.114 C 
HETATM   12  C   UNL     1     -40.649  57.911 -53.457  1.00  0.00     0.037 C 
BRANCH  11  13
HETATM   13  C   UNL     1     -41.164  55.469 -53.821  1.00  0.00    -0.036 A 
HETATM   14  C   UNL     1     -41.143  54.711 -52.636  1.00  0.00     0.012 A 
HETATM   15  C   UNL     1     -40.617  53.418 -52.627  1.00  0.00     0.043 A 
HETATM   16  C   UNL     1     -40.115  52.875 -53.802  1.00  0.00     0.116 A 
HETATM   17  F   UNL     1     -39.608  51.635 -53.793  1.00  0.00    -0.206 F 
HETATM   18  C   UNL     1     -40.129  53.600 -54.987  1.00  0.00     0.043 A 
HETATM   19  C   UNL     1     -40.650  54.896 -54.998  1.00  0.00     0.012 A 
ENDBRANCH  11  13
ENDBRANCH   9  11
ENDBRANCH   3   7
BRANCH   1  20
HETATM   20  C   UNL     1     -43.956  56.707 -60.235  1.00  0.00     0.148 C 
HETATM   21  C   UNL     1     -44.581  55.329 -60.400  1.00  0.00     0.044 C 
BRANCH  20  22
HETATM   22  O   UNL     1     -42.534  56.559 -60.245  1.00  0.00    -0.391 OA
HETATM   23  H   UNL     1     -42.277  56.180 -59.387  1.00  0.00     0.210 HD
ENDBRANCH  20  22
ENDBRANCH   1  20
BRANCH   6  24
HETATM   24  C   UNL     1     -46.054  58.860 -60.160  1.00  0.00     0.011 A 
HETATM   25  C   UNL     1     -47.241  58.421 -60.782  1.00  0.00     0.152 A 
HETATM   26  N   UNL     1     -47.528  59.122 -61.883  1.00  0.00    -0.187 NA
HETATM   27  N   UNL     1     -46.529  60.018 -61.958  1.00  0.00    -0.289 N 
HETATM   28  H   UNL     1     -46.530  60.675 -62.730  1.00  0.00     0.188 HD
HETATM   29  C   UNL     1     -45.626  59.912 -60.938  1.00  0.00     0.123 A 
ENDBRANCH   6  24
TORSDOF 6
ENDMDL
MODEL 9
REMARK VINA RESULT:      -7.8      5.667      8.829
REMARK  6 active torsions:
REMARK  status: ('A' for Active; 'I' for Inactive)
REMARK    1  A    between atoms: C_2  and  O_3 
REMARK    2  A    between atoms: C_2  and  C_4 
REMARK    3  A    between atoms: C_6  and  C_16 
REMARK    4  A    between atoms: C_9  and  C_10 
REMARK       I    between atoms: C_16  and  N_18 
REMARK    5  A    between atoms: N_18  and  C_19 
REMARK    6  A    between atoms: C_19  and  C_21 
ROOT
HETATM    1  C   UNL     1     -43.899  59.822 -51.604  1.00  0.00    -0.018 A 
HETATM    2  C   UNL     1     -43.271  58.811 -52.363  1.00  0.00     0.027 A 
HETATM    3  C   UNL     1     -41.911  58.504 -52.202  1.00  0.00     0.032 A 
HETATM    4  C   UNL     1     -41.152  59.228 -51.281  1.00  0.00     0.018 A 
HETATM    5  C   UNL     1     -41.761  60.217 -50.504  1.00  0.00     0.014 A 
HETATM    6  C   UNL     1     -43.128  60.514 -50.649  1.00  0.00    -0.014 A 
ENDROOT
BRANCH   3   7
HETATM    7  C   UNL     1     -41.336  57.410 -53.035  1.00  0.00     0.252 C 
HETATM    8  O   UNL     1     -40.300  57.598 -53.663  1.00  0.00    -0.268 OA
HETATM    9  N   UNL     1     -42.046  56.229 -53.089  1.00  0.00    -0.349 N 
HETATM   10  H   UNL     1     -42.973  56.190 -52.694  1.00  0.00     0.163 HD
BRANCH   9  11
HETATM   11  C   UNL     1     -41.666  55.168 -54.010  1.00  0.00     0.114 C 
HETATM   12  C   UNL     1     -42.877  54.679 -54.808  1.00  0.00     0.037 C 
BRANCH  11  13
HETATM   13  C   UNL     1     -40.993  54.029 -53.262  1.00  0.00    -0.036 A 
HETATM   14  C   UNL     1     -40.441  52.956 -53.986  1.00  0.00     0.012 A 
HETATM   15  C   UNL     1     -39.830  51.890 -53.325  1.00  0.00     0.043 A 
HETATM   16  C   UNL     1     -39.762  51.892 -51.938  1.00  0.00     0.116 A 
HETATM   17  F   UNL     1     -39.178  50.868 -51.303  1.00  0.00    -0.206 F 
HETATM   18  C   UNL     1     -40.294  52.942 -51.200  1.00  0.00     0.043 A 
HETATM   19  C   UNL     1     -40.910  54.008 -51.858  1.00  0.00     0.012 A 
ENDBRANCH  11  13
ENDBRANCH   9  11
ENDBRANCH   3   7
BRANCH   1  20
HETATM   20  C   UNL     1     -45.385  60.078 -51.799  1.00  0.00     0.148 C 
HETATM   21  C   UNL     1     -46.237  59.144 -50.950  1.00  0.00     0.044 C 
BRANCH  20  22
HETATM   22  O   UNL     1     -45.756  59.905 -53.168  1.00  0.00    -0.391 OA
HETATM   23  H   UNL     1     -46.160  59.024 -53.250  1.00  0.00     0.210 HD
ENDBRANCH  20  22
ENDBRANCH   1  20
BRANCH   6  24
HETATM   24  C   UNL     1     -43.692  61.515 -49.770  1.00  0.00     0.011 A 
HETATM   25  C   UNL     1     -44.378  61.374 -48.546  1.00  0.00     0.152 A 
HETATM   26  N   UNL     1     -44.725  62.552 -48.019  1.00  0.00    -0.187 NA
HETATM   27  N   UNL     1     -44.250  63.446 -48.903  1.00  0.00    -0.289 N 
HETATM   28  H   UNL     1     -44.397  64.432 -48.713  1.00  0.00     0.188 HD
HETATM   29  C   UNL     1     -43.608  62.874 -49.964  1.00  0.00     0.123 A 
ENDBRANCH   6  24
TORSDOF 6
ENDMDL
MODEL 10
REMARK VINA RESULT:      -7.7      2.886      3.874
REMARK  6 active torsions:
REMARK  status: ('A' for Active; 'I' for Inactive)
REMARK    1  A    between atoms: C_2  and  O_3 
REMARK    2  A    between atoms: C_2  and  C_4 
REMARK    3  A    between atoms: C_6  and  C_16 
REMARK    4  A    between atoms: C_9  and  C_10 
REMARK       I    between atoms: C_16  and  N_18 
REMARK    5  A    between atoms: N_18  and  C_19 
REMARK    6  A    between atoms: C_19  and  C_21 
ROOT
HETATM    1  C   UNL     1     -42.750  55.579 -52.236  1.00  0.00    -0.018 A 
HETATM    2  C   UNL     1     -43.260  56.117 -53.437  1.00  0.00     0.027 A 
HETATM    3  C   UNL     1     -42.534  56.063 -54.637  1.00  0.00     0.032 A 
HETATM    4  C   UNL     1     -41.268  55.477 -54.644  1.00  0.00     0.018 A 
HETATM    5  C   UNL     1     -40.756  54.917 -53.470  1.00  0.00     0.014 A 
HETATM    6  C   UNL     1     -41.487  54.953 -52.270  1.00  0.00    -0.014 A 
ENDROOT
BRANCH   3   7
HETATM    7  C   UNL     1     -43.158  56.644 -55.860  1.00  0.00     0.252 C 
HETATM    8  O   UNL     1     -44.283  57.128 -55.803  1.00  0.00    -0.268 OA
HETATM    9  N   UNL     1     -42.431  56.562 -57.030  1.00  0.00    -0.349 N 
HETATM   10  H   UNL     1     -41.592  56.002 -57.053  1.00  0.00     0.163 HD
BRANCH   9  11
HETATM   11  C   UNL     1     -43.021  56.936 -58.306  1.00  0.00     0.114 C 
HETATM   12  C   UNL     1     -42.761  55.862 -59.364  1.00  0.00     0.037 C 
BRANCH  11  13
HETATM   13  C   UNL     1     -42.508  58.296 -58.752  1.00  0.00    -0.036 A 
HETATM   14  C   UNL     1     -42.451  58.597 -60.125  1.00  0.00     0.012 A 
HETATM   15  C   UNL     1     -41.970  59.832 -60.564  1.00  0.00     0.043 A 
HETATM   16  C   UNL     1     -41.550  60.773 -59.633  1.00  0.00     0.116 A 
HETATM   17  F   UNL     1     -41.086  61.957 -60.054  1.00  0.00    -0.206 F 
HETATM   18  C   UNL     1     -41.601  60.503 -58.271  1.00  0.00     0.043 A 
HETATM   19  C   UNL     1     -42.077  59.266 -57.830  1.00  0.00     0.012 A 
ENDBRANCH  11  13
ENDBRANCH   9  11
ENDBRANCH   3   7
BRANCH   1  20
HETATM   20  C   UNL     1     -43.603  55.635 -50.979  1.00  0.00     0.148 C 
HETATM   21  C   UNL     1     -44.222  54.283 -50.653  1.00  0.00     0.044 C 
BRANCH  20  22
HETATM   22  O   UNL     1     -44.658  56.589 -51.122  1.00  0.00    -0.391 OA
HETATM   23  H   UNL     1     -44.927  56.859 -50.228  1.00  0.00     0.210 HD
ENDBRANCH  20  22
ENDBRANCH   1  20
BRANCH   6  24
HETATM   24  C   UNL     1     -40.909  54.305 -51.113  1.00  0.00     0.011 A 
HETATM   25  C   UNL     1     -40.322  54.855 -49.955  1.00  0.00     0.152 A 
HETATM   26  N   UNL     1     -39.922  53.916 -49.093  1.00  0.00    -0.187 NA
HETATM   27  N   UNL     1     -40.265  52.765 -49.696  1.00  0.00    -0.289 N 
HETATM   28  H   UNL     1     -40.056  51.894 -49.221  1.00  0.00     0.188 HD
HETATM   29  C   UNL     1     -40.875  52.945 -50.905  1.00  0.00     0.123 A 
ENDBRANCH   6  24
TORSDOF 6
ENDMDL
