MODEL 1
REMARK VINA RESULT:      -9.9      0.000      0.000
REMARK  5 active torsions:
REMARK  status: ('A' for Active; 'I' for Inactive)
REMARK    1  A    between atoms: C_8  and  C_9 
REMARK    2  A    between atoms: N_10  and  N_11 
REMARK    3  A    between atoms: C_22  and  C_23 
REMARK       I    between atoms: C_23  and  N_24 
REMARK    4  A    between atoms: N_24  and  C_25 
REMARK    5  A    between atoms: C_33  and  N_34 
ROOT
HETATM    1  N   UNL     1     -43.404  55.770 -54.788  1.00  0.00    -0.197 N 
HETATM    2  C   UNL     1     -42.611  54.872 -54.089  1.00  0.00     0.183 A 
HETATM    3  C   UNL     1     -42.732  55.173 -52.742  1.00  0.00     0.125 A 
HETATM    4  N   UNL     1     -42.018  54.509 -51.791  1.00  0.00    -0.242 NA
HETATM    5  C   UNL     1     -41.221  53.539 -52.274  1.00  0.00     0.086 A 
HETATM    6  C   UNL     1     -41.115  53.248 -53.661  1.00  0.00     0.088 A 
HETATM    7  N   UNL     1     -41.804  53.913 -54.601  1.00  0.00    -0.225 NA
HETATM    8  C   UNL     1     -40.462  52.804 -51.372  1.00  0.00     0.034 A 
HETATM    9  C   UNL     1     -39.602  51.792 -51.797  1.00  0.00     0.002 A 
HETATM   10  C   UNL     1     -39.496  51.508 -53.151  1.00  0.00     0.002 A 
HETATM   11  C   UNL     1     -40.254  52.236 -54.068  1.00  0.00     0.034 A 
HETATM   12  C   UNL     1     -43.614  56.274 -52.599  1.00  0.00     0.110 C 
HETATM   13  C   UNL     1     -44.101  56.548 -53.867  1.00  0.00     0.143 C 
ENDROOT
BRANCH   1  14
HETATM   14  N   UNL     1     -43.477  55.992 -56.142  1.00  0.00    -0.176 NA
HETATM   15  C   UNL     1     -42.521  56.749 -56.574  1.00  0.00     0.153 C 
BRANCH  15  16
HETATM   16  C   UNL     1     -42.498  57.162 -57.961  1.00  0.00     0.011 A 
HETATM   17  C   UNL     1     -42.188  58.470 -58.455  1.00  0.00     0.004 A 
HETATM   18  C   UNL     1     -41.820  59.690 -57.849  1.00  0.00     0.014 A 
HETATM   19  C   UNL     1     -42.337  58.437 -59.842  1.00  0.00     0.043 A 
HETATM   20  C   UNL     1     -41.618  60.824 -58.644  1.00  0.00     0.001 A 
HETATM   21  C   UNL     1     -41.775  60.757 -60.026  1.00  0.00     0.002 A 
HETATM   22  C   UNL     1     -42.136  59.560 -60.653  1.00  0.00     0.030 A 
HETATM   23  N   UNL     1     -42.706  57.154 -60.179  1.00  0.00    -0.364 N 
HETATM   24  H   UNL     1     -42.888  56.839 -61.123  1.00  0.00     0.165 HD
HETATM   25  C   UNL     1     -42.818  56.383 -59.055  1.00  0.00     0.102 A 
ENDBRANCH  15  16
ENDBRANCH   1  14
BRANCH  13  26
HETATM   26  N   UNL     1     -44.979  57.491 -54.283  1.00  0.00    -0.383 N 
HETATM   27  H   UNL     1     -44.825  58.481 -54.088  1.00  0.00     0.157 HD
HETATM   28  H   UNL     1     -45.927  57.234 -54.557  1.00  0.00     0.157 HD
ENDBRANCH  13  26
BRANCH  12  29
HETATM   29  C   UNL     1     -43.858  57.073 -51.407  1.00  0.00     0.262 C 
HETATM   30  N   UNL     1     -42.783  57.888 -51.080  1.00  0.00    -0.323 N 
HETATM   31  H   UNL     1     -41.876  57.451 -51.236  1.00  0.00     0.169 HD
HETATM   32  O   UNL     1     -44.944  57.119 -50.836  1.00  0.00    -0.267 OA
BRANCH  30  33
HETATM   33  C   UNL     1     -42.787  59.248 -51.493  1.00  0.00     0.035 A 
HETATM   34  C   UNL     1     -43.322  60.276 -50.709  1.00  0.00     0.031 A 
HETATM   35  C   UNL     1     -43.447  61.567 -51.233  1.00  0.00     0.026 A 
HETATM   36  C   UNL     1     -43.021  61.834 -52.532  1.00  0.00     0.034 A 
HETATM   37 CL   UNL     1     -43.214  63.411 -53.189  1.00  0.00    -0.084 Cl
HETATM   38  C   UNL     1     -42.453  60.826 -53.307  1.00  0.00     0.026 A 
HETATM   39  C   UNL     1     -42.333  59.534 -52.787  1.00  0.00     0.031 A 
ENDBRANCH  30  33
ENDBRANCH  12  29
TORSDOF 5
ENDMDL
MODEL 2
REMARK VINA RESULT:      -9.6      3.058      8.237
REMARK  5 active torsions:
REMARK  status: ('A' for Active; 'I' for Inactive)
REMARK    1  A    between atoms: C_8  and  C_9 
REMARK    2  A    between atoms: N_10  and  N_11 
REMARK    3  A    between atoms: C_22  and  C_23 
REMARK       I    between atoms: C_23  and  N_24 
REMARK    4  A    between atoms: N_24  and  C_25 
REMARK    5  A    between atoms: C_33  and  N_34 
ROOT
HETATM    1  N   UNL     1     -43.005  55.592 -54.175  1.00  0.00    -0.197 N 
HETATM    2  C   UNL     1     -43.700  56.713 -53.749  1.00  0.00     0.183 A 
HETATM    3  C   UNL     1     -43.733  57.608 -54.806  1.00  0.00     0.125 A 
HETATM    4  N   UNL     1     -44.290  58.845 -54.682  1.00  0.00    -0.242 NA
HETATM    5  C   UNL     1     -44.816  59.097 -53.470  1.00  0.00     0.086 A 
HETATM    6  C   UNL     1     -44.772  58.161 -52.402  1.00  0.00     0.088 A 
HETATM    7  N   UNL     1     -44.208  56.949 -52.515  1.00  0.00    -0.225 NA
HETATM    8  C   UNL     1     -45.414  60.333 -53.259  1.00  0.00     0.034 A 
HETATM    9  C   UNL     1     -45.969  60.674 -52.026  1.00  0.00     0.002 A 
HETATM   10  C   UNL     1     -45.925  59.761 -50.981  1.00  0.00     0.002 A 
HETATM   11  C   UNL     1     -45.329  58.516 -51.179  1.00  0.00     0.034 A 
HETATM   12  C   UNL     1     -43.048  57.036 -55.907  1.00  0.00     0.110 C 
HETATM   13  C   UNL     1     -42.709  55.748 -55.526  1.00  0.00     0.143 C 
ENDROOT
BRANCH   1  14
HETATM   14  N   UNL     1     -42.556  54.518 -53.443  1.00  0.00    -0.176 NA
HETATM   15  C   UNL     1     -41.332  54.661 -53.051  1.00  0.00     0.153 C 
BRANCH  15  16
HETATM   16  C   UNL     1     -40.669  53.584 -52.348  1.00  0.00     0.011 A 
HETATM   17  C   UNL     1     -40.334  52.298 -52.882  1.00  0.00     0.004 A 
HETATM   18  C   UNL     1     -40.493  51.682 -54.142  1.00  0.00     0.014 A 
HETATM   19  C   UNL     1     -39.758  51.555 -51.851  1.00  0.00     0.043 A 
HETATM   20  C   UNL     1     -40.076  50.359 -54.323  1.00  0.00     0.001 A 
HETATM   21  C   UNL     1     -39.504  49.646 -53.273  1.00  0.00     0.002 A 
HETATM   22  C   UNL     1     -39.331  50.232 -52.015  1.00  0.00     0.030 A 
HETATM   23  N   UNL     1     -39.726  52.367 -50.738  1.00  0.00    -0.364 N 
HETATM   24  H   UNL     1     -39.362  52.088 -49.837  1.00  0.00     0.165 HD
HETATM   25  C   UNL     1     -40.283  53.583 -51.023  1.00  0.00     0.102 A 
ENDBRANCH  15  16
ENDBRANCH   1  14
BRANCH  13  26
HETATM   26  N   UNL     1     -42.056  54.776 -56.208  1.00  0.00    -0.383 N 
HETATM   27  H   UNL     1     -41.455  54.105 -55.728  1.00  0.00     0.157 HD
HETATM   28  H   UNL     1     -41.929  54.845 -57.217  1.00  0.00     0.157 HD
ENDBRANCH  13  26
BRANCH  12  29
HETATM   29  C   UNL     1     -42.632  57.693 -57.138  1.00  0.00     0.262 C 
HETATM   30  N   UNL     1     -42.642  56.839 -58.232  1.00  0.00    -0.323 N 
HETATM   31  H   UNL     1     -42.329  55.894 -58.015  1.00  0.00     0.169 HD
HETATM   32  O   UNL     1     -42.426  58.900 -57.221  1.00  0.00    -0.267 OA
BRANCH  30  33
HETATM   33  C   UNL     1     -43.768  56.831 -59.100  1.00  0.00     0.035 A 
HETATM   34  C   UNL     1     -44.732  57.844 -59.098  1.00  0.00     0.031 A 
HETATM   35  C   UNL     1     -45.900  57.704 -59.855  1.00  0.00     0.026 A 
HETATM   36  C   UNL     1     -46.095  56.562 -60.626  1.00  0.00     0.034 A 
HETATM   37 CL   UNL     1     -47.550  56.372 -61.523  1.00  0.00    -0.084 Cl
HETATM   38  C   UNL     1     -45.123  55.564 -60.664  1.00  0.00     0.026 A 
HETATM   39  C   UNL     1     -43.959  55.700 -59.904  1.00  0.00     0.031 A 
ENDBRANCH  30  33
ENDBRANCH  12  29
TORSDOF 5
ENDMDL
MODEL 3
REMARK VINA RESULT:      -9.5      3.015      7.948
REMARK  5 active torsions:
REMARK  status: ('A' for Active; 'I' for Inactive)
REMARK    1  A    between atoms: C_8  and  C_9 
REMARK    2  A    between atoms: N_10  and  N_11 
REMARK    3  A    between atoms: C_22  and  C_23 
REMARK       I    between atoms: C_23  and  N_24 
REMARK    4  A    between atoms: N_24  and  C_25 
REMARK    5  A    between atoms: C_33  and  N_34 
ROOT
HETATM    1  N   UNL     1     -42.978  55.779 -54.312  1.00  0.00    -0.197 N 
HETATM    2  C   UNL     1     -43.078  57.140 -54.068  1.00  0.00     0.183 A 
HETATM    3  C   UNL     1     -43.324  57.763 -55.282  1.00  0.00     0.125 A 
HETATM    4  N   UNL     1     -43.407  59.117 -55.390  1.00  0.00    -0.242 NA
HETATM    5  C   UNL     1     -43.253  59.776 -54.228  1.00  0.00     0.086 A 
HETATM    6  C   UNL     1     -43.004  59.116 -52.994  1.00  0.00     0.088 A 
HETATM    7  N   UNL     1     -42.904  57.781 -52.888  1.00  0.00    -0.225 NA
HETATM    8  C   UNL     1     -43.332  61.163 -54.245  1.00  0.00     0.034 A 
HETATM    9  C   UNL     1     -43.171  61.917 -53.082  1.00  0.00     0.002 A 
HETATM   10  C   UNL     1     -42.924  61.273 -51.878  1.00  0.00     0.002 A 
HETATM   11  C   UNL     1     -42.845  59.881 -51.846  1.00  0.00     0.034 A 
HETATM   12  C   UNL     1     -43.381  56.774 -56.296  1.00  0.00     0.110 C 
HETATM   13  C   UNL     1     -43.277  55.551 -55.652  1.00  0.00     0.143 C 
ENDROOT
BRANCH   1  14
HETATM   14  N   UNL     1     -42.567  54.774 -53.470  1.00  0.00    -0.176 NA
HETATM   15  C   UNL     1     -41.284  54.751 -53.310  1.00  0.00     0.153 C 
BRANCH  15  16
HETATM   16  C   UNL     1     -40.672  53.699 -52.529  1.00  0.00     0.011 A 
HETATM   17  C   UNL     1     -40.354  52.378 -52.981  1.00  0.00     0.004 A 
HETATM   18  C   UNL     1     -40.488  51.698 -54.210  1.00  0.00     0.014 A 
HETATM   19  C   UNL     1     -39.829  51.680 -51.892  1.00  0.00     0.043 A 
HETATM   20  C   UNL     1     -40.100  50.357 -54.306  1.00  0.00     0.001 A 
HETATM   21  C   UNL     1     -39.579  49.690 -53.200  1.00  0.00     0.002 A 
HETATM   22  C   UNL     1     -39.432  50.340 -51.970  1.00  0.00     0.030 A 
HETATM   23  N   UNL     1     -39.812  52.550 -50.825  1.00  0.00    -0.364 N 
HETATM   24  H   UNL     1     -39.484  52.313 -49.898  1.00  0.00     0.165 HD
HETATM   25  C   UNL     1     -40.328  53.762 -51.193  1.00  0.00     0.102 A 
ENDBRANCH  15  16
ENDBRANCH   1  14
BRANCH  13  26
HETATM   26  N   UNL     1     -43.286  54.293 -56.155  1.00  0.00    -0.383 N 
HETATM   27  H   UNL     1     -43.180  53.480 -55.548  1.00  0.00     0.157 HD
HETATM   28  H   UNL     1     -43.131  54.130 -57.149  1.00  0.00     0.157 HD
ENDBRANCH  13  26
BRANCH  12  29
HETATM   29  C   UNL     1     -43.386  56.974 -57.739  1.00  0.00     0.262 C 
HETATM   30  N   UNL     1     -44.609  56.667 -58.318  1.00  0.00    -0.323 N 
HETATM   31  H   UNL     1     -45.064  55.854 -57.904  1.00  0.00     0.169 HD
HETATM   32  O   UNL     1     -42.453  57.487 -58.351  1.00  0.00    -0.267 OA
BRANCH  30  33
HETATM   33  C   UNL     1     -45.538  57.710 -58.582  1.00  0.00     0.035 A 
HETATM   34  C   UNL     1     -46.449  58.171 -57.626  1.00  0.00     0.031 A 
HETATM   35  C   UNL     1     -47.446  59.082 -57.988  1.00  0.00     0.026 A 
HETATM   36  C   UNL     1     -47.522  59.545 -59.299  1.00  0.00     0.034 A 
HETATM   37 CL   UNL     1     -48.774  60.633 -59.753  1.00  0.00    -0.084 Cl
HETATM   38  C   UNL     1     -46.596  59.120 -60.249  1.00  0.00     0.026 A 
HETATM   39  C   UNL     1     -45.603  58.205 -59.891  1.00  0.00     0.031 A 
ENDBRANCH  30  33
ENDBRANCH  12  29
TORSDOF 5
ENDMDL
MODEL 4
REMARK VINA RESULT:      -9.5      2.700      6.833
REMARK  5 active torsions:
REMARK  status: ('A' for Active; 'I' for Inactive)
REMARK    1  A    between atoms: C_8  and  C_9 
REMARK    2  A    between atoms: N_10  and  N_11 
REMARK    3  A    between atoms: C_22  and  C_23 
REMARK       I    between atoms: C_23  and  N_24 
REMARK    4  A    between atoms: N_24  and  C_25 
REMARK    5  A    between atoms: C_33  and  N_34 
ROOT
HETATM    1  N   UNL     1     -42.218  57.063 -55.475  1.00  0.00    -0.197 N 
HETATM    2  C   UNL     1     -42.951  56.829 -56.628  1.00  0.00     0.183 A 
HETATM    3  C   UNL     1     -43.775  57.926 -56.826  1.00  0.00     0.125 A 
HETATM    4  N   UNL     1     -44.675  57.972 -57.847  1.00  0.00    -0.242 NA
HETATM    5  C   UNL     1     -44.670  56.887 -58.641  1.00  0.00     0.086 A 
HETATM    6  C   UNL     1     -43.813  55.775 -58.419  1.00  0.00     0.088 A 
HETATM    7  N   UNL     1     -42.938  55.719 -57.403  1.00  0.00    -0.225 NA
HETATM    8  C   UNL     1     -45.551  56.854 -59.714  1.00  0.00     0.034 A 
HETATM    9  C   UNL     1     -45.614  55.757 -60.574  1.00  0.00     0.002 A 
HETATM   10  C   UNL     1     -44.779  54.670 -60.356  1.00  0.00     0.002 A 
HETATM   11  C   UNL     1     -43.888  54.690 -59.284  1.00  0.00     0.034 A 
HETATM   12  C   UNL     1     -43.551  58.857 -55.781  1.00  0.00     0.110 C 
HETATM   13  C   UNL     1     -42.506  58.349 -55.026  1.00  0.00     0.143 C 
ENDROOT
BRANCH   1  14
HETATM   14  N   UNL     1     -41.408  56.204 -54.772  1.00  0.00    -0.176 NA
HETATM   15  C   UNL     1     -42.040  55.578 -53.834  1.00  0.00     0.153 C 
BRANCH  15  16
HETATM   16  C   UNL     1     -41.318  54.704 -52.936  1.00  0.00     0.011 A 
HETATM   17  C   UNL     1     -40.793  53.408 -53.248  1.00  0.00     0.004 A 
HETATM   18  C   UNL     1     -40.774  52.606 -54.409  1.00  0.00     0.014 A 
HETATM   19  C   UNL     1     -40.222  52.898 -52.081  1.00  0.00     0.043 A 
HETATM   20  C   UNL     1     -40.193  51.335 -54.362  1.00  0.00     0.001 A 
HETATM   21  C   UNL     1     -39.631  50.856 -53.182  1.00  0.00     0.002 A 
HETATM   22  C   UNL     1     -39.633  51.630 -52.017  1.00  0.00     0.030 A 
HETATM   23  N   UNL     1     -40.377  53.855 -51.103  1.00  0.00    -0.364 N 
HETATM   24  H   UNL     1     -40.059  53.755 -50.149  1.00  0.00     0.165 HD
HETATM   25  C   UNL     1     -41.045  54.939 -51.603  1.00  0.00     0.102 A 
ENDBRANCH  15  16
ENDBRANCH   1  14
BRANCH  13  26
HETATM   26  N   UNL     1     -41.896  58.851 -53.925  1.00  0.00    -0.383 N 
HETATM   27  H   UNL     1     -42.140  58.523 -52.990  1.00  0.00     0.157 HD
HETATM   28  H   UNL     1     -41.387  59.733 -53.969  1.00  0.00     0.157 HD
ENDBRANCH  13  26
BRANCH  12  29
HETATM   29  C   UNL     1     -44.343  60.033 -55.449  1.00  0.00     0.262 C 
HETATM   30  N   UNL     1     -45.432  59.736 -54.642  1.00  0.00    -0.323 N 
HETATM   31  H   UNL     1     -45.884  58.853 -54.876  1.00  0.00     0.169 HD
HETATM   32  O   UNL     1     -44.005  61.177 -55.740  1.00  0.00    -0.267 OA
BRANCH  30  33
HETATM   33  C   UNL     1     -45.328  59.915 -53.235  1.00  0.00     0.035 A 
HETATM   34  C   UNL     1     -45.112  58.852 -52.352  1.00  0.00     0.031 A 
HETATM   35  C   UNL     1     -45.181  59.061 -50.970  1.00  0.00     0.026 A 
HETATM   36  C   UNL     1     -45.449  60.334 -50.474  1.00  0.00     0.034 A 
HETATM   37 CL   UNL     1     -45.576  60.582 -48.776  1.00  0.00    -0.084 Cl
HETATM   38  C   UNL     1     -45.629  61.406 -51.345  1.00  0.00     0.026 A 
HETATM   39  C   UNL     1     -45.566  61.197 -52.725  1.00  0.00     0.031 A 
ENDBRANCH  30  33
ENDBRANCH  12  29
TORSDOF 5
ENDMDL
MODEL 5
REMARK VINA RESULT:      -9.4      2.501      7.667
REMARK  5 active torsions:
REMARK  status: ('A' for Active; 'I' for Inactive)
REMARK    1  A    between atoms: C_8  and  C_9 
REMARK    2  A    between atoms: N_10  and  N_11 
REMARK    3  A    between atoms: C_22  and  C_23 
REMARK       I    between atoms: C_23  and  N_24 
REMARK    4  A    between atoms: N_24  and  C_25 
REMARK    5  A    between atoms: C_33  and  N_34 
ROOT
HETATM    1  N   UNL     1     -42.599  56.372 -54.729  1.00  0.00    -0.197 N 
HETATM    2  C   UNL     1     -43.392  57.354 -54.156  1.00  0.00     0.183 A 
HETATM    3  C   UNL     1     -44.106  57.961 -55.177  1.00  0.00     0.125 A 
HETATM    4  N   UNL     1     -44.931  59.019 -54.945  1.00  0.00    -0.242 NA
HETATM    5  C   UNL     1     -45.003  59.394 -53.656  1.00  0.00     0.086 A 
HETATM    6  C   UNL     1     -44.263  58.754 -52.625  1.00  0.00     0.088 A 
HETATM    7  N   UNL     1     -43.435  57.722 -52.853  1.00  0.00    -0.225 NA
HETATM    8  C   UNL     1     -45.830  60.461 -53.328  1.00  0.00     0.034 A 
HETATM    9  C   UNL     1     -45.947  60.917 -52.015  1.00  0.00     0.002 A 
HETATM   10  C   UNL     1     -45.223  60.294 -51.008  1.00  0.00     0.002 A 
HETATM   11  C   UNL     1     -44.391  59.220 -51.322  1.00  0.00     0.034 A 
HETATM   12  C   UNL     1     -43.752  57.347 -56.405  1.00  0.00     0.110 C 
HETATM   13  C   UNL     1     -42.908  56.296 -56.085  1.00  0.00     0.143 C 
ENDROOT
BRANCH   1  14
HETATM   14  N   UNL     1     -41.592  55.628 -54.163  1.00  0.00    -0.176 NA
HETATM   15  C   UNL     1     -42.033  54.577 -53.551  1.00  0.00     0.153 C 
BRANCH  15  16
HETATM   16  C   UNL     1     -41.116  53.731 -52.819  1.00  0.00     0.011 A 
HETATM   17  C   UNL     1     -40.653  52.435 -53.214  1.00  0.00     0.004 A 
HETATM   18  C   UNL     1     -40.880  51.606 -54.334  1.00  0.00     0.014 A 
HETATM   19  C   UNL     1     -39.830  51.957 -52.193  1.00  0.00     0.043 A 
HETATM   20  C   UNL     1     -40.283  50.343 -54.391  1.00  0.00     0.001 A 
HETATM   21  C   UNL     1     -39.466  49.897 -53.356  1.00  0.00     0.002 A 
HETATM   22  C   UNL     1     -39.222  50.697 -52.235  1.00  0.00     0.030 A 
HETATM   23  N   UNL     1     -39.779  52.935 -51.224  1.00  0.00    -0.364 N 
HETATM   24  H   UNL     1     -39.257  52.860 -50.362  1.00  0.00     0.165 HD
HETATM   25  C   UNL     1     -40.559  54.000 -51.584  1.00  0.00     0.102 A 
ENDBRANCH  15  16
ENDBRANCH   1  14
BRANCH  13  26
HETATM   26  N   UNL     1     -42.297  55.389 -56.884  1.00  0.00    -0.383 N 
HETATM   27  H   UNL     1     -41.432  55.616 -57.378  1.00  0.00     0.157 HD
HETATM   28  H   UNL     1     -42.802  54.572 -57.224  1.00  0.00     0.157 HD
ENDBRANCH  13  26
BRANCH  12  29
HETATM   29  C   UNL     1     -44.068  57.800 -57.752  1.00  0.00     0.262 C 
HETATM   30  N   UNL     1     -44.175  59.181 -57.842  1.00  0.00    -0.323 N 
HETATM   31  H   UNL     1     -44.620  59.609 -57.031  1.00  0.00     0.169 HD
HETATM   32  O   UNL     1     -44.101  57.051 -58.725  1.00  0.00    -0.267 OA
BRANCH  30  33
HETATM   33  C   UNL     1     -43.060  59.940 -58.290  1.00  0.00     0.035 A 
HETATM   34  C   UNL     1     -42.247  60.675 -57.419  1.00  0.00     0.031 A 
HETATM   35  C   UNL     1     -41.267  61.532 -57.929  1.00  0.00     0.026 A 
HETATM   36  C   UNL     1     -41.087  61.641 -59.306  1.00  0.00     0.034 A 
HETATM   37 CL   UNL     1     -39.910  62.726 -59.933  1.00  0.00    -0.084 Cl
HETATM   38  C   UNL     1     -41.866  60.885 -60.179  1.00  0.00     0.026 A 
HETATM   39  C   UNL     1     -42.850  60.033 -59.671  1.00  0.00     0.031 A 
ENDBRANCH  30  33
ENDBRANCH  12  29
TORSDOF 5
ENDMDL
MODEL 6
REMARK VINA RESULT:      -9.1      2.462      6.837
REMARK  5 active torsions:
REMARK  status: ('A' for Active; 'I' for Inactive)
REMARK    1  A    between atoms: C_8  and  C_9 
REMARK    2  A    between atoms: N_10  and  N_11 
REMARK    3  A    between atoms: C_22  and  C_23 
REMARK       I    between atoms: C_23  and  N_24 
REMARK    4  A    between atoms: N_24  and  C_25 
REMARK    5  A    between atoms: C_33  and  N_34 
ROOT
HETATM    1  N   UNL     1     -42.057  56.629 -53.294  1.00  0.00    -0.197 N 
HETATM    2  C   UNL     1     -42.433  56.705 -54.627  1.00  0.00     0.183 A 
HETATM    3  C   UNL     1     -42.720  58.033 -54.902  1.00  0.00     0.125 A 
HETATM    4  N   UNL     1     -43.186  58.429 -56.119  1.00  0.00    -0.242 NA
HETATM    5  C   UNL     1     -43.315  57.433 -57.013  1.00  0.00     0.086 A 
HETATM    6  C   UNL     1     -43.011  56.079 -56.708  1.00  0.00     0.088 A 
HETATM    7  N   UNL     1     -42.569  55.683 -55.504  1.00  0.00    -0.225 NA
HETATM    8  C   UNL     1     -43.776  57.750 -58.285  1.00  0.00     0.034 A 
HETATM    9  C   UNL     1     -43.948  56.770 -59.263  1.00  0.00     0.002 A 
HETATM   10  C   UNL     1     -43.655  55.447 -58.965  1.00  0.00     0.002 A 
HETATM   11  C   UNL     1     -43.189  55.115 -57.693  1.00  0.00     0.034 A 
HETATM   12  C   UNL     1     -42.519  58.795 -53.723  1.00  0.00     0.110 C 
HETATM   13  C   UNL     1     -42.003  57.922 -52.780  1.00  0.00     0.143 C 
ENDROOT
BRANCH   1  14
HETATM   14  N   UNL     1     -41.855  55.518 -52.511  1.00  0.00    -0.176 NA
HETATM   15  C   UNL     1     -40.757  54.899 -52.800  1.00  0.00     0.153 C 
BRANCH  15  16
HETATM   16  C   UNL     1     -40.434  53.655 -52.136  1.00  0.00     0.011 A 
HETATM   17  C   UNL     1     -40.171  52.397 -52.766  1.00  0.00     0.004 A 
HETATM   18  C   UNL     1     -40.121  51.957 -54.106  1.00  0.00     0.014 A 
HETATM   19  C   UNL     1     -39.958  51.459 -51.754  1.00  0.00     0.043 A 
HETATM   20  C   UNL     1     -39.865  50.610 -54.384  1.00  0.00     0.001 A 
HETATM   21  C   UNL     1     -39.657  49.701 -53.350  1.00  0.00     0.002 A 
HETATM   22  C   UNL     1     -39.697  50.109 -52.013  1.00  0.00     0.030 A 
HETATM   23  N   UNL     1     -40.069  52.128 -50.555  1.00  0.00    -0.364 N 
HETATM   24  H   UNL     1     -39.965  51.696 -49.647  1.00  0.00     0.165 HD
HETATM   25  C   UNL     1     -40.367  53.445 -50.773  1.00  0.00     0.102 A 
ENDBRANCH  15  16
ENDBRANCH   1  14
BRANCH  13  26
HETATM   26  N   UNL     1     -41.628  58.141 -51.497  1.00  0.00    -0.383 N 
HETATM   27  H   UNL     1     -41.615  57.384 -50.812  1.00  0.00     0.157 HD
HETATM   28  H   UNL     1     -41.608  59.086 -51.115  1.00  0.00     0.157 HD
ENDBRANCH  13  26
BRANCH  12  29
HETATM   29  C   UNL     1     -42.914  60.175 -53.475  1.00  0.00     0.262 C 
HETATM   30  N   UNL     1     -44.210  60.283 -52.992  1.00  0.00    -0.323 N 
HETATM   31  H   UNL     1     -44.861  59.625 -53.418  1.00  0.00     0.169 HD
HETATM   32  O   UNL     1     -42.137  61.122 -53.557  1.00  0.00    -0.267 OA
BRANCH  30  33
HETATM   33  C   UNL     1     -44.426  60.401 -51.592  1.00  0.00     0.035 A 
HETATM   34  C   UNL     1     -45.354  59.615 -50.901  1.00  0.00     0.031 A 
HETATM   35  C   UNL     1     -45.642  59.884 -49.559  1.00  0.00     0.026 A 
HETATM   36  C   UNL     1     -44.991  60.927 -48.905  1.00  0.00     0.034 A 
HETATM   37 CL   UNL     1     -45.377  61.283 -47.267  1.00  0.00    -0.084 Cl
HETATM   38  C   UNL     1     -44.038  61.691 -49.574  1.00  0.00     0.026 A 
HETATM   39  C   UNL     1     -43.754  61.427 -50.916  1.00  0.00     0.031 A 
ENDBRANCH  30  33
ENDBRANCH  12  29
TORSDOF 5
ENDMDL
MODEL 7
REMARK VINA RESULT:      -8.8      2.708      7.639
REMARK  5 active torsions:
REMARK  status: ('A' for Active; 'I' for Inactive)
REMARK    1  A    between atoms: C_8  and  C_9 
REMARK    2  A    between atoms: N_10  and  N_11 
REMARK    3  A    between atoms: C_22  and  C_23 
REMARK       I    between atoms: C_23  and  N_24 
REMARK    4  A    between atoms: N_24  and  C_25 
REMARK    5  A    between atoms: C_33  and  N_34 
ROOT
HETATM    1  N   UNL     1     -42.750  56.549 -55.737  1.00  0.00    -0.197 N 
HETATM    2  C   UNL     1     -43.517  57.470 -55.040  1.00  0.00     0.183 A 
HETATM    3  C   UNL     1     -44.193  58.238 -55.975  1.00  0.00     0.125 A 
HETATM    4  N   UNL     1     -44.985  59.283 -55.606  1.00  0.00    -0.242 NA
HETATM    5  C   UNL     1     -45.064  59.478 -54.278  1.00  0.00     0.086 A 
HETATM    6  C   UNL     1     -44.363  58.674 -53.339  1.00  0.00     0.088 A 
HETATM    7  N   UNL     1     -43.568  57.655 -53.700  1.00  0.00    -0.225 NA
HETATM    8  C   UNL     1     -45.858  60.518 -53.814  1.00  0.00     0.034 A 
HETATM    9  C   UNL     1     -45.980  60.791 -52.451  1.00  0.00     0.002 A 
HETATM   10  C   UNL     1     -45.294  60.008 -51.533  1.00  0.00     0.002 A 
HETATM   11  C   UNL     1     -44.494  58.959 -51.985  1.00  0.00     0.034 A 
HETATM   12  C   UNL     1     -43.842  57.789 -57.273  1.00  0.00     0.110 C 
HETATM   13  C   UNL     1     -43.040  56.674 -57.093  1.00  0.00     0.143 C 
ENDROOT
BRANCH   1  14
HETATM   14  N   UNL     1     -41.778  55.697 -55.269  1.00  0.00    -0.176 NA
HETATM   15  C   UNL     1     -42.270  54.642 -54.707  1.00  0.00     0.153 C 
BRANCH  15  16
HETATM   16  C   UNL     1     -41.389  53.684 -54.075  1.00  0.00     0.011 A 
HETATM   17  C   UNL     1     -41.197  53.502 -52.668  1.00  0.00     0.004 A 
HETATM   18  C   UNL     1     -41.739  54.106 -51.513  1.00  0.00     0.014 A 
HETATM   19  C   UNL     1     -40.225  52.514 -52.504  1.00  0.00     0.043 A 
HETATM   20  C   UNL     1     -41.293  53.707 -50.249  1.00  0.00     0.001 A 
HETATM   21  C   UNL     1     -40.322  52.718 -50.120  1.00  0.00     0.002 A 
HETATM   22  C   UNL     1     -39.769  52.100 -51.247  1.00  0.00     0.030 A 
HETATM   23  N   UNL     1     -39.855  52.098 -53.764  1.00  0.00    -0.364 N 
HETATM   24  H   UNL     1     -39.159  51.389 -53.951  1.00  0.00     0.165 HD
HETATM   25  C   UNL     1     -40.539  52.803 -54.715  1.00  0.00     0.102 A 
ENDBRANCH  15  16
ENDBRANCH   1  14
BRANCH  13  26
HETATM   26  N   UNL     1     -42.448  55.865 -58.005  1.00  0.00    -0.383 N 
HETATM   27  H   UNL     1     -41.437  55.724 -58.010  1.00  0.00     0.157 HD
HETATM   28  H   UNL     1     -42.939  55.593 -58.855  1.00  0.00     0.157 HD
ENDBRANCH  13  26
BRANCH  12  29
HETATM   29  C   UNL     1     -44.121  58.436 -58.547  1.00  0.00     0.262 C 
HETATM   30  N   UNL     1     -44.072  59.821 -58.467  1.00  0.00    -0.323 N 
HETATM   31  H   UNL     1     -44.456  60.193 -57.599  1.00  0.00     0.169 HD
HETATM   32  O   UNL     1     -44.250  57.820 -59.601  1.00  0.00    -0.267 OA
BRANCH  30  33
HETATM   33  C   UNL     1     -42.884  60.501 -58.848  1.00  0.00     0.035 A 
HETATM   34  C   UNL     1     -41.935  60.944 -57.920  1.00  0.00     0.031 A 
HETATM   35  C   UNL     1     -40.869  61.748 -58.335  1.00  0.00     0.026 A 
HETATM   36  C   UNL     1     -40.742  62.095 -59.677  1.00  0.00     0.034 A 
HETATM   37 CL   UNL     1     -39.454  63.119 -60.179  1.00  0.00    -0.084 Cl
HETATM   38  C   UNL     1     -41.660  61.628 -60.615  1.00  0.00     0.026 A 
HETATM   39  C   UNL     1     -42.730  60.829 -60.200  1.00  0.00     0.031 A 
ENDBRANCH  30  33
ENDBRANCH  12  29
TORSDOF 5
ENDMDL
MODEL 8
REMARK VINA RESULT:      -8.8      2.469      7.503
REMARK  5 active torsions:
REMARK  status: ('A' for Active; 'I' for Inactive)
REMARK    1  A    between atoms: C_8  and  C_9 
REMARK    2  A    between atoms: N_10  and  N_11 
REMARK    3  A    between atoms: C_22  and  C_23 
REMARK       I    between atoms: C_23  and  N_24 
REMARK    4  A    between atoms: N_24  and  C_25 
REMARK    5  A    between atoms: C_33  and  N_34 
ROOT
HETATM    1  N   UNL     1     -43.872  57.052 -52.785  1.00  0.00    -0.197 N 
HETATM    2  C   UNL     1     -44.003  58.375 -52.389  1.00  0.00     0.183 A 
HETATM    3  C   UNL     1     -44.493  59.086 -53.473  1.00  0.00     0.125 A 
HETATM    4  N   UNL     1     -44.669  60.435 -53.425  1.00  0.00    -0.242 NA
HETATM    5  C   UNL     1     -44.351  60.995 -52.244  1.00  0.00     0.086 A 
HETATM    6  C   UNL     1     -43.852  60.243 -51.146  1.00  0.00     0.088 A 
HETATM    7  N   UNL     1     -43.661  58.916 -51.196  1.00  0.00    -0.225 NA
HETATM    8  C   UNL     1     -44.509  62.368 -52.105  1.00  0.00     0.034 A 
HETATM    9  C   UNL     1     -44.188  63.022 -50.915  1.00  0.00     0.002 A 
HETATM   10  C   UNL     1     -43.699  62.289 -49.843  1.00  0.00     0.002 A 
HETATM   11  C   UNL     1     -43.537  60.910 -49.968  1.00  0.00     0.034 A 
HETATM   12  C   UNL     1     -44.671  58.193 -54.560  1.00  0.00     0.110 C 
HETATM   13  C   UNL     1     -44.388  56.927 -54.072  1.00  0.00     0.143 C 
ENDROOT
BRANCH   1  14
HETATM   14  N   UNL     1     -43.264  56.007 -52.132  1.00  0.00    -0.176 NA
HETATM   15  C   UNL     1     -41.991  55.955 -52.352  1.00  0.00     0.153 C 
BRANCH  15  16
HETATM   16  C   UNL     1     -41.210  54.861 -51.817  1.00  0.00     0.011 A 
HETATM   17  C   UNL     1     -40.734  53.721 -52.541  1.00  0.00     0.004 A 
HETATM   18  C   UNL     1     -40.826  53.297 -53.884  1.00  0.00     0.014 A 
HETATM   19  C   UNL     1     -40.075  52.894 -51.630  1.00  0.00     0.043 A 
HETATM   20  C   UNL     1     -40.264  52.074 -54.264  1.00  0.00     0.001 A 
HETATM   21  C   UNL     1     -39.612  51.274 -53.330  1.00  0.00     0.002 A 
HETATM   22  C   UNL     1     -39.503  51.669 -51.993  1.00  0.00     0.030 A 
HETATM   23  N   UNL     1     -40.131  53.519 -50.404  1.00  0.00    -0.364 N 
HETATM   24  H   UNL     1     -39.736  53.144 -49.552  1.00  0.00     0.165 HD
HETATM   25  C   UNL     1     -40.822  54.695 -50.503  1.00  0.00     0.102 A 
ENDBRANCH  15  16
ENDBRANCH   1  14
BRANCH  13  26
HETATM   26  N   UNL     1     -44.415  55.723 -54.692  1.00  0.00    -0.383 N 
HETATM   27  H   UNL     1     -44.852  54.912 -54.255  1.00  0.00     0.157 HD
HETATM   28  H   UNL     1     -43.784  55.524 -55.468  1.00  0.00     0.157 HD
ENDBRANCH  13  26
BRANCH  12  29
HETATM   29  C   UNL     1     -44.940  58.524 -55.952  1.00  0.00     0.262 C 
HETATM   30  N   UNL     1     -44.912  59.890 -56.193  1.00  0.00    -0.323 N 
HETATM   31  H   UNL     1     -45.313  60.446 -55.439  1.00  0.00     0.169 HD
HETATM   32  O   UNL     1     -45.046  57.679 -56.837  1.00  0.00    -0.267 OA
BRANCH  30  33
HETATM   33  C   UNL     1     -43.728  60.484 -56.708  1.00  0.00     0.035 A 
HETATM   34  C   UNL     1     -43.539  61.869 -56.764  1.00  0.00     0.031 A 
HETATM   35  C   UNL     1     -42.428  62.401 -57.428  1.00  0.00     0.026 A 
HETATM   36  C   UNL     1     -41.500  61.548 -58.020  1.00  0.00     0.034 A 
HETATM   37 CL   UNL     1     -40.158  62.204 -58.872  1.00  0.00    -0.084 Cl
HETATM   38  C   UNL     1     -41.660  60.167 -57.937  1.00  0.00     0.026 A 
HETATM   39  C   UNL     1     -42.772  59.635 -57.279  1.00  0.00     0.031 A 
ENDBRANCH  30  33
ENDBRANCH  12  29
TORSDOF 5
ENDMDL
MODEL 9
REMARK VINA RESULT:      -8.7      3.170      7.363
REMARK  5 active torsions:
REMARK  status: ('A' for Active; 'I' for Inactive)
REMARK    1  A    between atoms: C_8  and  C_9 
REMARK    2  A    between atoms: N_10  and  N_11 
REMARK    3  A    between atoms: C_22  and  C_23 
REMARK       I    between atoms: C_23  and  N_24 
REMARK    4  A    between atoms: N_24  and  C_25 
REMARK    5  A    between atoms: C_33  and  N_34 
ROOT
HETATM    1  N   UNL     1     -43.182  58.698 -53.860  1.00  0.00    -0.197 N 
HETATM    2  C   UNL     1     -42.537  57.472 -53.791  1.00  0.00     0.183 A 
HETATM    3  C   UNL     1     -41.979  57.226 -55.036  1.00  0.00     0.125 A 
HETATM    4  N   UNL     1     -41.330  56.062 -55.313  1.00  0.00    -0.242 NA
HETATM    5  C   UNL     1     -41.264  55.203 -54.281  1.00  0.00     0.086 A 
HETATM    6  C   UNL     1     -41.843  55.479 -53.012  1.00  0.00     0.088 A 
HETATM    7  N   UNL     1     -42.499  56.618 -52.741  1.00  0.00    -0.225 NA
HETATM    8  C   UNL     1     -40.611  53.993 -54.474  1.00  0.00     0.034 A 
HETATM    9  C   UNL     1     -40.513  53.046 -53.454  1.00  0.00     0.002 A 
HETATM   10  C   UNL     1     -41.080  53.313 -52.216  1.00  0.00     0.002 A 
HETATM   11  C   UNL     1     -41.737  54.525 -52.007  1.00  0.00     0.034 A 
HETATM   12  C   UNL     1     -42.279  58.316 -55.892  1.00  0.00     0.110 C 
HETATM   13  C   UNL     1     -42.925  59.258 -55.108  1.00  0.00     0.143 C 
ENDROOT
BRANCH   1  14
HETATM   14  N   UNL     1     -44.027  59.286 -52.950  1.00  0.00    -0.176 NA
HETATM   15  C   UNL     1     -43.395  59.972 -52.054  1.00  0.00     0.153 C 
BRANCH  15  16
HETATM   16  C   UNL     1     -44.124  60.582 -50.964  1.00  0.00     0.011 A 
HETATM   17  C   UNL     1     -43.866  61.862 -50.377  1.00  0.00     0.004 A 
HETATM   18  C   UNL     1     -42.927  62.887 -50.623  1.00  0.00     0.014 A 
HETATM   19  C   UNL     1     -44.769  62.030 -49.327  1.00  0.00     0.043 A 
HETATM   20  C   UNL     1     -42.923  64.030 -49.816  1.00  0.00     0.001 A 
HETATM   21  C   UNL     1     -43.839  64.166 -48.776  1.00  0.00     0.002 A 
HETATM   22  C   UNL     1     -44.782  63.168 -48.512  1.00  0.00     0.030 A 
HETATM   23  N   UNL     1     -45.559  60.902 -49.290  1.00  0.00    -0.364 N 
HETATM   24  H   UNL     1     -46.302  60.745 -48.622  1.00  0.00     0.165 HD
HETATM   25  C   UNL     1     -45.172  60.020 -50.261  1.00  0.00     0.102 A 
ENDBRANCH  15  16
ENDBRANCH   1  14
BRANCH  13  26
HETATM   26  N   UNL     1     -43.412  60.480 -55.431  1.00  0.00    -0.383 N 
HETATM   27  H   UNL     1     -43.011  61.025 -56.196  1.00  0.00     0.157 HD
HETATM   28  H   UNL     1     -43.995  60.998 -54.774  1.00  0.00     0.157 HD
ENDBRANCH  13  26
BRANCH  12  29
HETATM   29  C   UNL     1     -42.102  58.392 -57.335  1.00  0.00     0.262 C 
HETATM   30  N   UNL     1     -42.252  57.161 -57.959  1.00  0.00    -0.323 N 
HETATM   31  H   UNL     1     -41.864  56.383 -57.427  1.00  0.00     0.169 HD
HETATM   32  O   UNL     1     -41.969  59.450 -57.942  1.00  0.00    -0.267 OA
BRANCH  30  33
HETATM   33  C   UNL     1     -43.503  56.823 -58.543  1.00  0.00     0.035 A 
HETATM   34  C   UNL     1     -43.647  55.794 -59.481  1.00  0.00     0.031 A 
HETATM   35  C   UNL     1     -44.865  55.612 -60.143  1.00  0.00     0.026 A 
HETATM   36  C   UNL     1     -45.943  56.445 -59.855  1.00  0.00     0.034 A 
HETATM   37 CL   UNL     1     -47.428  56.246 -60.700  1.00  0.00    -0.084 Cl
HETATM   38  C   UNL     1     -45.821  57.448 -58.896  1.00  0.00     0.026 A 
HETATM   39  C   UNL     1     -44.602  57.635 -58.238  1.00  0.00     0.031 A 
ENDBRANCH  30  33
ENDBRANCH  12  29
TORSDOF 5
ENDMDL
MODEL 10
REMARK VINA RESULT:      -8.6      2.552      6.990
REMARK  5 active torsions:
REMARK  status: ('A' for Active; 'I' for Inactive)
REMARK    1  A    between atoms: C_8  and  C_9 
REMARK    2  A    between atoms: N_10  and  N_11 
REMARK    3  A    between atoms: C_22  and  C_23 
REMARK       I    between atoms: C_23  and  N_24 
REMARK    4  A    between atoms: N_24  and  C_25 
REMARK    5  A    between atoms: C_33  and  N_34 
ROOT
HETATM    1  N   UNL     1     -41.722  56.914 -54.388  1.00  0.00    -0.197 N 
HETATM    2  C   UNL     1     -42.434  56.918 -55.578  1.00  0.00     0.183 A 
HETATM    3  C   UNL     1     -43.255  58.034 -55.568  1.00  0.00     0.125 A 
HETATM    4  N   UNL     1     -44.135  58.287 -56.576  1.00  0.00    -0.242 NA
HETATM    5  C   UNL     1     -44.114  57.382 -57.570  1.00  0.00     0.086 A 
HETATM    6  C   UNL     1     -43.261  56.245 -57.559  1.00  0.00     0.088 A 
HETATM    7  N   UNL     1     -42.405  55.984 -56.559  1.00  0.00    -0.225 NA
HETATM    8  C   UNL     1     -44.975  57.568 -58.644  1.00  0.00     0.034 A 
HETATM    9  C   UNL     1     -45.021  56.665 -59.707  1.00  0.00     0.002 A 
HETATM   10  C   UNL     1     -44.190  55.553 -59.696  1.00  0.00     0.002 A 
HETATM   11  C   UNL     1     -43.319  55.356 -58.625  1.00  0.00     0.034 A 
HETATM   12  C   UNL     1     -43.051  58.737 -54.353  1.00  0.00     0.110 C 
HETATM   13  C   UNL     1     -42.019  58.085 -53.697  1.00  0.00     0.143 C 
ENDROOT
BRANCH   1  14
HETATM   14  N   UNL     1     -40.925  55.929 -53.857  1.00  0.00    -0.176 NA
HETATM   15  C   UNL     1     -41.593  55.070 -53.158  1.00  0.00     0.153 C 
BRANCH  15  16
HETATM   16  C   UNL     1     -40.897  54.018 -52.449  1.00  0.00     0.011 A 
HETATM   17  C   UNL     1     -40.528  52.738 -52.974  1.00  0.00     0.004 A 
HETATM   18  C   UNL     1     -40.675  52.106 -54.227  1.00  0.00     0.014 A 
HETATM   19  C   UNL     1     -39.925  52.021 -51.939  1.00  0.00     0.043 A 
HETATM   20  C   UNL     1     -40.221  50.794 -54.399  1.00  0.00     0.001 A 
HETATM   21  C   UNL     1     -39.624  50.108 -53.345  1.00  0.00     0.002 A 
HETATM   22  C   UNL     1     -39.462  50.709 -52.093  1.00  0.00     0.030 A 
HETATM   23  N   UNL     1     -39.911  52.843 -50.833  1.00  0.00    -0.364 N 
HETATM   24  H   UNL     1     -39.535  52.583 -49.932  1.00  0.00     0.165 HD
HETATM   25  C   UNL     1     -40.503  54.041 -51.126  1.00  0.00     0.102 A 
ENDBRANCH  15  16
ENDBRANCH   1  14
BRANCH  13  26
HETATM   26  N   UNL     1     -41.431  58.354 -52.506  1.00  0.00    -0.383 N 
HETATM   27  H   UNL     1     -40.439  58.589 -52.447  1.00  0.00     0.157 HD
HETATM   28  H   UNL     1     -41.875  58.075 -51.632  1.00  0.00     0.157 HD
ENDBRANCH  13  26
BRANCH  12  29
HETATM   29  C   UNL     1     -43.849  59.825 -53.807  1.00  0.00     0.262 C 
HETATM   30  N   UNL     1     -43.351  61.076 -54.142  1.00  0.00    -0.323 N 
HETATM   31  H   UNL     1     -42.333  61.125 -54.136  1.00  0.00     0.169 HD
HETATM   32  O   UNL     1     -44.919  59.652 -53.230  1.00  0.00    -0.267 OA
BRANCH  30  33
HETATM   33  C   UNL     1     -43.902  61.774 -55.250  1.00  0.00     0.035 A 
HETATM   34  C   UNL     1     -45.180  62.344 -55.225  1.00  0.00     0.031 A 
HETATM   35  C   UNL     1     -45.736  62.875 -56.394  1.00  0.00     0.026 A 
HETATM   36  C   UNL     1     -45.008  62.853 -57.581  1.00  0.00     0.034 A 
HETATM   37 CL   UNL     1     -45.708  63.468 -59.026  1.00  0.00    -0.084 Cl
HETATM   38  C   UNL     1     -43.721  62.321 -57.607  1.00  0.00     0.026 A 
HETATM   39  C   UNL     1     -43.167  61.785 -56.441  1.00  0.00     0.031 A 
ENDBRANCH  30  33
ENDBRANCH  12  29
TORSDOF 5
ENDMDL
