MODEL 1
REMARK VINA RESULT:      -8.6      0.000      0.000
REMARK  5 active torsions:
REMARK  status: ('A' for Active; 'I' for Inactive)
REMARK    1  A    between atoms: C_9  and  C_10 
REMARK    2  A    between atoms: C_13  and  O_14 
REMARK    3  A    between atoms: O_14  and  C_15 
REMARK    4  A    between atoms: C_20  and  C_21 
REMARK       I    between atoms: C_21  and  N_22 
REMARK    5  A    between atoms: N_22  and  C_23 
ROOT
HETATM    1  C   UNL     1     -42.118  60.051 -55.819  1.00  0.00     0.070 C 
HETATM    2  C   UNL     1     -41.938  59.087 -54.672  1.00  0.00     0.037 A 
HETATM    3  N   UNL     1     -41.087  59.507 -53.656  1.00  0.00    -0.192 N 
HETATM    4  C   UNL     1     -40.894  58.813 -52.519  1.00  0.00     0.725 A 
HETATM    5  N   UNL     1     -41.474  57.581 -52.380  1.00  0.00    -0.084 N 
HETATM    6  N   UNL     1     -41.302  57.097 -51.132  1.00  0.00    -0.149 NA
HETATM    7  C   UNL     1     -40.516  58.045 -50.608  1.00  0.00     0.275 A 
HETATM    8  N   UNL     1     -40.250  59.116 -51.422  1.00  0.00    -0.054 NA
HETATM    9  C   UNL     1     -42.311  56.946 -53.404  1.00  0.00     0.202 A 
HETATM   10  C   UNL     1     -42.558  57.885 -54.577  1.00  0.00     0.062 A 
HETATM   11  H   UNL     1     -40.671  60.430 -53.740  1.00  0.00     0.184 HD
ENDROOT
BRANCH   9  12
HETATM   12  C   UNL     1     -41.711  55.604 -53.810  1.00  0.00    -0.028 A 
HETATM   13  C   UNL     1     -42.309  54.412 -53.377  1.00  0.00     0.012 A 
HETATM   14  C   UNL     1     -41.764  53.175 -53.732  1.00  0.00     0.037 A 
HETATM   15  C   UNL     1     -40.619  53.101 -54.527  1.00  0.00     0.074 A 
HETATM   16  C   UNL     1     -40.004  54.281 -54.945  1.00  0.00     0.037 A 
HETATM   17  C   UNL     1     -40.544  55.522 -54.588  1.00  0.00     0.012 A 
BRANCH  15  18
HETATM   18  O   UNL     1     -40.192  51.832 -54.798  1.00  0.00    -0.290 OA
BRANCH  18  19
HETATM   19  C   UNL     1     -39.929  51.006 -53.677  1.00  0.00     0.505 C 
HETATM   20  F   UNL     1     -39.449  49.812 -54.103  1.00  0.00    -0.184 F 
HETATM   21  F   UNL     1     -38.931  51.594 -52.969  1.00  0.00    -0.184 F 
ENDBRANCH  18  19
ENDBRANCH  15  18
ENDBRANCH   9  12
BRANCH  10  22
HETATM   22  C   UNL     1     -43.438  57.396 -55.671  1.00  0.00     0.256 C 
HETATM   23  N   UNL     1     -42.762  57.187 -56.855  1.00  0.00    -0.323 N 
HETATM   24  H   UNL     1     -41.770  57.376 -56.877  1.00  0.00     0.169 HD
HETATM   25  O   UNL     1     -44.630  57.218 -55.451  1.00  0.00    -0.267 OA
BRANCH  23  26
HETATM   26  C   UNL     1     -43.300  56.704 -58.068  1.00  0.00     0.035 A 
HETATM   27  C   UNL     1     -43.469  55.350 -58.364  1.00  0.00     0.029 A 
HETATM   28  C   UNL     1     -43.995  54.955 -59.599  1.00  0.00     0.002 A 
HETATM   29  C   UNL     1     -44.367  55.909 -60.542  1.00  0.00     0.000 A 
HETATM   30  C   UNL     1     -44.209  57.262 -60.254  1.00  0.00     0.002 A 
HETATM   31  C   UNL     1     -43.673  57.657 -59.027  1.00  0.00     0.029 A 
ENDBRANCH  23  26
ENDBRANCH  10  22
TORSDOF 5
ENDMDL
MODEL 2
REMARK VINA RESULT:      -8.3      3.012      6.232
REMARK  5 active torsions:
REMARK  status: ('A' for Active; 'I' for Inactive)
REMARK    1  A    between atoms: C_9  and  C_10 
REMARK    2  A    between atoms: C_13  and  O_14 
REMARK    3  A    between atoms: O_14  and  C_15 
REMARK    4  A    between atoms: C_20  and  C_21 
REMARK       I    between atoms: C_21  and  N_22 
REMARK    5  A    between atoms: N_22  and  C_23 
ROOT
HETATM    1  C   UNL     1     -43.007  54.721 -50.050  1.00  0.00     0.070 C 
HETATM    2  C   UNL     1     -42.505  55.778 -51.003  1.00  0.00     0.037 A 
HETATM    3  N   UNL     1     -42.618  57.093 -50.563  1.00  0.00    -0.192 N 
HETATM    4  C   UNL     1     -42.131  58.146 -51.245  1.00  0.00     0.725 A 
HETATM    5  N   UNL     1     -41.585  57.945 -52.484  1.00  0.00    -0.084 N 
HETATM    6  N   UNL     1     -41.015  59.074 -52.956  1.00  0.00    -0.149 NA
HETATM    7  C   UNL     1     -41.353  59.939 -51.993  1.00  0.00     0.275 A 
HETATM    8  N   UNL     1     -42.029  59.410 -50.925  1.00  0.00    -0.054 NA
HETATM    9  C   UNL     1     -41.489  56.636 -53.139  1.00  0.00     0.202 A 
HETATM   10  C   UNL     1     -41.951  55.519 -52.213  1.00  0.00     0.062 A 
HETATM   11  H   UNL     1     -43.001  57.249 -49.634  1.00  0.00     0.184 HD
ENDROOT
BRANCH   9  12
HETATM   12  C   UNL     1     -42.223  56.665 -54.475  1.00  0.00    -0.028 A 
HETATM   13  C   UNL     1     -41.683  55.998 -55.584  1.00  0.00     0.012 A 
HETATM   14  C   UNL     1     -42.338  56.026 -56.817  1.00  0.00     0.037 A 
HETATM   15  C   UNL     1     -43.545  56.711 -56.970  1.00  0.00     0.074 A 
HETATM   16  C   UNL     1     -44.080  57.397 -55.879  1.00  0.00     0.037 A 
HETATM   17  C   UNL     1     -43.424  57.375 -54.643  1.00  0.00     0.012 A 
BRANCH  15  18
HETATM   18  O   UNL     1     -44.078  56.658 -58.227  1.00  0.00    -0.290 OA
BRANCH  18  19
HETATM   19  C   UNL     1     -43.523  55.693 -59.103  1.00  0.00     0.505 C 
HETATM   20  F   UNL     1     -44.329  54.604 -59.137  1.00  0.00    -0.184 F 
HETATM   21  F   UNL     1     -43.539  56.226 -60.351  1.00  0.00    -0.184 F 
ENDBRANCH  18  19
ENDBRANCH  15  18
ENDBRANCH   9  12
BRANCH  10  22
HETATM   22  C   UNL     1     -41.859  54.125 -52.722  1.00  0.00     0.256 C 
HETATM   23  N   UNL     1     -40.634  53.542 -52.481  1.00  0.00    -0.323 N 
HETATM   24  H   UNL     1     -39.932  54.087 -51.999  1.00  0.00     0.169 HD
HETATM   25  O   UNL     1     -42.827  53.624 -53.281  1.00  0.00    -0.267 OA
BRANCH  23  26
HETATM   26  C   UNL     1     -40.237  52.227 -52.813  1.00  0.00     0.035 A 
HETATM   27  C   UNL     1     -40.245  51.712 -54.110  1.00  0.00     0.029 A 
HETATM   28  C   UNL     1     -39.850  50.392 -54.350  1.00  0.00     0.002 A 
HETATM   29  C   UNL     1     -39.436  49.579 -53.298  1.00  0.00     0.000 A 
HETATM   30  C   UNL     1     -39.418  50.085 -52.002  1.00  0.00     0.002 A 
HETATM   31  C   UNL     1     -39.823  51.400 -51.759  1.00  0.00     0.029 A 
ENDBRANCH  23  26
ENDBRANCH  10  22
TORSDOF 5
ENDMDL
MODEL 3
REMARK VINA RESULT:      -8.3      3.073      5.541
REMARK  5 active torsions:
REMARK  status: ('A' for Active; 'I' for Inactive)
REMARK    1  A    between atoms: C_9  and  C_10 
REMARK    2  A    between atoms: C_13  and  O_14 
REMARK    3  A    between atoms: O_14  and  C_15 
REMARK    4  A    between atoms: C_20  and  C_21 
REMARK       I    between atoms: C_21  and  N_22 
REMARK    5  A    between atoms: N_22  and  C_23 
ROOT
HETATM    1  C   UNL     1     -42.094  56.452 -56.599  1.00  0.00     0.070 C 
HETATM    2  C   UNL     1     -42.820  56.784 -55.319  1.00  0.00     0.037 A 
HETATM    3  N   UNL     1     -43.220  58.109 -55.176  1.00  0.00    -0.192 N 
HETATM    4  C   UNL     1     -43.962  58.550 -54.144  1.00  0.00     0.725 A 
HETATM    5  N   UNL     1     -44.260  57.693 -53.120  1.00  0.00    -0.084 N 
HETATM    6  N   UNL     1     -45.129  58.252 -52.251  1.00  0.00    -0.149 NA
HETATM    7  C   UNL     1     -45.224  59.486 -52.760  1.00  0.00     0.275 A 
HETATM    8  N   UNL     1     -44.531  59.707 -53.922  1.00  0.00    -0.054 NA
HETATM    9  C   UNL     1     -43.821  56.295 -53.063  1.00  0.00     0.202 A 
HETATM   10  C   UNL     1     -43.109  55.886 -54.345  1.00  0.00     0.062 A 
HETATM   11  H   UNL     1     -43.023  58.747 -55.943  1.00  0.00     0.184 HD
ENDROOT
BRANCH   9  12
HETATM   12  C   UNL     1     -42.996  56.057 -51.803  1.00  0.00    -0.028 A 
HETATM   13  C   UNL     1     -43.282  54.960 -50.977  1.00  0.00     0.012 A 
HETATM   14  C   UNL     1     -42.543  54.735 -49.814  1.00  0.00     0.037 A 
HETATM   15  C   UNL     1     -41.502  55.593 -49.452  1.00  0.00     0.074 A 
HETATM   16  C   UNL     1     -41.224  56.699 -50.254  1.00  0.00     0.037 A 
HETATM   17  C   UNL     1     -41.965  56.930 -51.419  1.00  0.00     0.012 A 
BRANCH  15  18
HETATM   18  O   UNL     1     -40.863  55.259 -48.292  1.00  0.00    -0.290 OA
BRANCH  18  19
HETATM   19  C   UNL     1     -40.249  53.982 -48.260  1.00  0.00     0.505 C 
HETATM   20  F   UNL     1     -39.439  53.848 -49.339  1.00  0.00    -0.184 F 
HETATM   21  F   UNL     1     -39.445  53.949 -47.166  1.00  0.00    -0.184 F 
ENDBRANCH  18  19
ENDBRANCH  15  18
ENDBRANCH   9  12
BRANCH  10  22
HETATM   22  C   UNL     1     -42.653  54.475 -54.456  1.00  0.00     0.256 C 
HETATM   23  N   UNL     1     -41.503  54.221 -53.738  1.00  0.00    -0.323 N 
HETATM   24  H   UNL     1     -41.086  54.983 -53.221  1.00  0.00     0.169 HD
HETATM   25  O   UNL     1     -43.299  53.685 -55.132  1.00  0.00    -0.267 OA
BRANCH  23  26
HETATM   26  C   UNL     1     -40.832  52.985 -53.615  1.00  0.00     0.035 A 
HETATM   27  C   UNL     1     -40.642  52.090 -54.669  1.00  0.00     0.029 A 
HETATM   28  C   UNL     1     -39.979  50.876 -54.457  1.00  0.00     0.002 A 
HETATM   29  C   UNL     1     -39.492  50.552 -53.193  1.00  0.00     0.000 A 
HETATM   30  C   UNL     1     -39.672  51.440 -52.137  1.00  0.00     0.002 A 
HETATM   31  C   UNL     1     -40.343  52.647 -52.344  1.00  0.00     0.029 A 
ENDBRANCH  23  26
ENDBRANCH  10  22
TORSDOF 5
ENDMDL
MODEL 4
REMARK VINA RESULT:      -8.1      3.357      6.302
REMARK  5 active torsions:
REMARK  status: ('A' for Active; 'I' for Inactive)
REMARK    1  A    between atoms: C_9  and  C_10 
REMARK    2  A    between atoms: C_13  and  O_14 
REMARK    3  A    between atoms: O_14  and  C_15 
REMARK    4  A    between atoms: C_20  and  C_21 
REMARK       I    between atoms: C_21  and  N_22 
REMARK    5  A    between atoms: N_22  and  C_23 
ROOT
HETATM    1  C   UNL     1     -42.889  55.433 -57.367  1.00  0.00     0.070 C 
HETATM    2  C   UNL     1     -43.239  56.539 -56.401  1.00  0.00     0.037 A 
HETATM    3  N   UNL     1     -43.537  57.772 -56.974  1.00  0.00    -0.192 N 
HETATM    4  C   UNL     1     -43.963  58.833 -56.265  1.00  0.00     0.725 A 
HETATM    5  N   UNL     1     -44.014  58.749 -54.900  1.00  0.00    -0.084 N 
HETATM    6  N   UNL     1     -44.602  59.839 -54.364  1.00  0.00    -0.149 NA
HETATM    7  C   UNL     1     -44.780  60.585 -55.462  1.00  0.00     0.275 A 
HETATM    8  N   UNL     1     -44.410  60.002 -56.646  1.00  0.00    -0.054 NA
HETATM    9  C   UNL     1     -43.630  57.559 -54.134  1.00  0.00     0.202 A 
HETATM   10  C   UNL     1     -43.296  56.392 -55.055  1.00  0.00     0.062 A 
HETATM   11  H   UNL     1     -43.524  57.836 -57.988  1.00  0.00     0.184 HD
ENDROOT
BRANCH   9  12
HETATM   12  C   UNL     1     -42.512  57.905 -53.157  1.00  0.00    -0.028 A 
HETATM   13  C   UNL     1     -42.666  57.624 -51.791  1.00  0.00     0.012 A 
HETATM   14  C   UNL     1     -41.656  57.946 -50.882  1.00  0.00     0.037 A 
HETATM   15  C   UNL     1     -40.472  58.548 -51.313  1.00  0.00     0.074 A 
HETATM   16  C   UNL     1     -40.318  58.853 -52.666  1.00  0.00     0.037 A 
HETATM   17  C   UNL     1     -41.330  58.536 -53.579  1.00  0.00     0.012 A 
BRANCH  15  18
HETATM   18  O   UNL     1     -39.569  58.810 -50.322  1.00  0.00    -0.290 OA
BRANCH  18  19
HETATM   19  C   UNL     1     -38.474  59.637 -50.675  1.00  0.00     0.505 C 
HETATM   20  F   UNL     1     -38.457  60.726 -49.868  1.00  0.00    -0.184 F 
HETATM   21  F   UNL     1     -37.340  58.940 -50.408  1.00  0.00    -0.184 F 
ENDBRANCH  18  19
ENDBRANCH  15  18
ENDBRANCH   9  12
BRANCH  10  22
HETATM   22  C   UNL     1     -42.939  55.097 -54.417  1.00  0.00     0.256 C 
HETATM   23  N   UNL     1     -41.581  54.938 -54.242  1.00  0.00    -0.323 N 
HETATM   24  H   UNL     1     -40.970  55.682 -54.549  1.00  0.00     0.169 HD
HETATM   25  O   UNL     1     -43.829  54.315 -54.106  1.00  0.00    -0.267 OA
BRANCH  23  26
HETATM   26  C   UNL     1     -40.923  53.839 -53.646  1.00  0.00     0.035 A 
HETATM   27  C   UNL     1     -40.489  52.713 -54.348  1.00  0.00     0.029 A 
HETATM   28  C   UNL     1     -39.858  51.660 -53.678  1.00  0.00     0.002 A 
HETATM   29  C   UNL     1     -39.647  51.728 -52.303  1.00  0.00     0.000 A 
HETATM   30  C   UNL     1     -40.071  52.849 -51.595  1.00  0.00     0.002 A 
HETATM   31  C   UNL     1     -40.711  53.896 -52.261  1.00  0.00     0.029 A 
ENDBRANCH  23  26
ENDBRANCH  10  22
TORSDOF 5
ENDMDL
MODEL 5
REMARK VINA RESULT:      -8.0      3.840      6.684
REMARK  5 active torsions:
REMARK  status: ('A' for Active; 'I' for Inactive)
REMARK    1  A    between atoms: C_9  and  C_10 
REMARK    2  A    between atoms: C_13  and  O_14 
REMARK    3  A    between atoms: O_14  and  C_15 
REMARK    4  A    between atoms: C_20  and  C_21 
REMARK       I    between atoms: C_21  and  N_22 
REMARK    5  A    between atoms: N_22  and  C_23 
ROOT
HETATM    1  C   UNL     1     -43.489  54.305 -56.015  1.00  0.00     0.070 C 
HETATM    2  C   UNL     1     -43.681  55.614 -55.288  1.00  0.00     0.037 A 
HETATM    3  N   UNL     1     -44.206  56.656 -56.046  1.00  0.00    -0.192 N 
HETATM    4  C   UNL     1     -44.531  57.855 -55.529  1.00  0.00     0.725 A 
HETATM    5  N   UNL     1     -44.241  58.119 -54.218  1.00  0.00    -0.084 N 
HETATM    6  N   UNL     1     -44.766  59.300 -53.828  1.00  0.00    -0.149 NA
HETATM    7  C   UNL     1     -45.264  59.740 -54.990  1.00  0.00     0.275 A 
HETATM    8  N   UNL     1     -45.148  58.882 -56.053  1.00  0.00    -0.054 NA
HETATM    9  C   UNL     1     -43.588  57.168 -53.312  1.00  0.00     0.202 A 
HETATM   10  C   UNL     1     -43.396  55.812 -53.978  1.00  0.00     0.062 A 
HETATM   11  H   UNL     1     -44.446  56.461 -57.014  1.00  0.00     0.184 HD
ENDROOT
BRANCH   9  12
HETATM   12  C   UNL     1     -42.297  57.769 -52.766  1.00  0.00    -0.028 A 
HETATM   13  C   UNL     1     -41.303  58.212 -53.651  1.00  0.00     0.012 A 
HETATM   14  C   UNL     1     -40.111  58.754 -53.166  1.00  0.00     0.037 A 
HETATM   15  C   UNL     1     -39.886  58.872 -51.793  1.00  0.00     0.074 A 
HETATM   16  C   UNL     1     -40.858  58.414 -50.904  1.00  0.00     0.037 A 
HETATM   17  C   UNL     1     -42.053  57.866 -51.386  1.00  0.00     0.012 A 
BRANCH  15  18
HETATM   18  O   UNL     1     -38.680  59.417 -51.455  1.00  0.00    -0.290 OA
BRANCH  18  19
HETATM   19  C   UNL     1     -38.467  59.660 -50.076  1.00  0.00     0.505 C 
HETATM   20  F   UNL     1     -37.157  59.464 -49.784  1.00  0.00    -0.184 F 
HETATM   21  F   UNL     1     -38.720  60.975 -49.854  1.00  0.00    -0.184 F 
ENDBRANCH  18  19
ENDBRANCH  15  18
ENDBRANCH   9  12
BRANCH  10  22
HETATM   22  C   UNL     1     -42.793  54.727 -53.160  1.00  0.00     0.256 C 
HETATM   23  N   UNL     1     -41.644  54.206 -53.717  1.00  0.00    -0.323 N 
HETATM   24  H   UNL     1     -41.324  54.589 -54.595  1.00  0.00     0.169 HD
HETATM   25  O   UNL     1     -43.327  54.398 -52.108  1.00  0.00    -0.267 OA
BRANCH  23  26
HETATM   26  C   UNL     1     -40.823  53.189 -53.180  1.00  0.00     0.035 A 
HETATM   27  C   UNL     1     -40.403  52.066 -53.894  1.00  0.00     0.029 A 
HETATM   28  C   UNL     1     -39.602  51.096 -53.282  1.00  0.00     0.002 A 
HETATM   29  C   UNL     1     -39.207  51.246 -51.955  1.00  0.00     0.000 A 
HETATM   30  C   UNL     1     -39.616  52.366 -51.236  1.00  0.00     0.002 A 
HETATM   31  C   UNL     1     -40.425  53.329 -51.843  1.00  0.00     0.029 A 
ENDBRANCH  23  26
ENDBRANCH  10  22
TORSDOF 5
ENDMDL
MODEL 6
REMARK VINA RESULT:      -7.7      1.869      5.812
REMARK  5 active torsions:
REMARK  status: ('A' for Active; 'I' for Inactive)
REMARK    1  A    between atoms: C_9  and  C_10 
REMARK    2  A    between atoms: C_13  and  O_14 
REMARK    3  A    between atoms: O_14  and  C_15 
REMARK    4  A    between atoms: C_20  and  C_21 
REMARK       I    between atoms: C_21  and  N_22 
REMARK    5  A    between atoms: N_22  and  C_23 
ROOT
HETATM    1  C   UNL     1     -44.932  60.072 -55.763  1.00  0.00     0.070 C 
HETATM    2  C   UNL     1     -44.289  58.866 -56.402  1.00  0.00     0.037 A 
HETATM    3  N   UNL     1     -45.026  58.248 -57.408  1.00  0.00    -0.192 N 
HETATM    4  C   UNL     1     -44.558  57.225 -58.146  1.00  0.00     0.725 A 
HETATM    5  N   UNL     1     -43.340  56.681 -57.839  1.00  0.00    -0.084 N 
HETATM    6  N   UNL     1     -42.962  55.774 -58.764  1.00  0.00    -0.149 NA
HETATM    7  C   UNL     1     -44.053  55.746 -59.539  1.00  0.00     0.275 A 
HETATM    8  N   UNL     1     -45.049  56.625 -59.199  1.00  0.00    -0.054 NA
HETATM    9  C   UNL     1     -42.486  57.143 -56.740  1.00  0.00     0.202 A 
HETATM   10  C   UNL     1     -43.066  58.384 -56.072  1.00  0.00     0.062 A 
HETATM   11  H   UNL     1     -45.921  58.660 -57.658  1.00  0.00     0.184 HD
ENDROOT
BRANCH   9  12
HETATM   12  C   UNL     1     -42.216  55.997 -55.770  1.00  0.00    -0.028 A 
HETATM   13  C   UNL     1     -40.897  55.668 -55.427  1.00  0.00     0.012 A 
HETATM   14  C   UNL     1     -40.634  54.614 -54.550  1.00  0.00     0.037 A 
HETATM   15  C   UNL     1     -41.676  53.871 -53.993  1.00  0.00     0.074 A 
HETATM   16  C   UNL     1     -42.991  54.175 -54.345  1.00  0.00     0.037 A 
HETATM   17  C   UNL     1     -43.259  55.229 -55.227  1.00  0.00     0.012 A 
BRANCH  15  18
HETATM   18  O   UNL     1     -41.280  52.869 -53.153  1.00  0.00    -0.290 OA
BRANCH  18  19
HETATM   19  C   UNL     1     -40.205  52.063 -53.602  1.00  0.00     0.505 C 
HETATM   20  F   UNL     1     -39.648  51.427 -52.542  1.00  0.00    -0.184 F 
HETATM   21  F   UNL     1     -40.731  51.098 -54.399  1.00  0.00    -0.184 F 
ENDBRANCH  18  19
ENDBRANCH  15  18
ENDBRANCH   9  12
BRANCH  10  22
HETATM   22  C   UNL     1     -42.279  59.000 -54.972  1.00  0.00     0.256 C 
HETATM   23  N   UNL     1     -42.568  58.463 -53.735  1.00  0.00    -0.323 N 
HETATM   24  H   UNL     1     -43.260  57.728 -53.684  1.00  0.00     0.169 HD
HETATM   25  O   UNL     1     -41.473  59.885 -55.231  1.00  0.00    -0.267 OA
BRANCH  23  26
HETATM   26  C   UNL     1     -41.980  58.808 -52.498  1.00  0.00     0.035 A 
HETATM   27  C   UNL     1     -40.819  58.220 -51.994  1.00  0.00     0.029 A 
HETATM   28  C   UNL     1     -40.310  58.609 -50.750  1.00  0.00     0.002 A 
HETATM   29  C   UNL     1     -40.951  59.597 -50.007  1.00  0.00     0.000 A 
HETATM   30  C   UNL     1     -42.106  60.194 -50.504  1.00  0.00     0.002 A 
HETATM   31  C   UNL     1     -42.621  59.798 -51.740  1.00  0.00     0.029 A 
ENDBRANCH  23  26
ENDBRANCH  10  22
TORSDOF 5
ENDMDL
MODEL 7
REMARK VINA RESULT:      -7.6      3.445      6.269
REMARK  5 active torsions:
REMARK  status: ('A' for Active; 'I' for Inactive)
REMARK    1  A    between atoms: C_9  and  C_10 
REMARK    2  A    between atoms: C_13  and  O_14 
REMARK    3  A    between atoms: O_14  and  C_15 
REMARK    4  A    between atoms: C_20  and  C_21 
REMARK       I    between atoms: C_21  and  N_22 
REMARK    5  A    between atoms: N_22  and  C_23 
ROOT
HETATM    1  C   UNL     1     -43.892  54.801 -50.198  1.00  0.00     0.070 C 
HETATM    2  C   UNL     1     -43.985  56.138 -50.893  1.00  0.00     0.037 A 
HETATM    3  N   UNL     1     -45.106  56.902 -50.588  1.00  0.00    -0.192 N 
HETATM    4  C   UNL     1     -45.293  58.155 -51.043  1.00  0.00     0.725 A 
HETATM    5  N   UNL     1     -44.399  58.683 -51.934  1.00  0.00    -0.084 N 
HETATM    6  N   UNL     1     -44.653  59.989 -52.165  1.00  0.00    -0.149 NA
HETATM    7  C   UNL     1     -45.781  60.147 -51.463  1.00  0.00     0.275 A 
HETATM    8  N   UNL     1     -46.201  59.051 -50.755  1.00  0.00    -0.054 NA
HETATM    9  C   UNL     1     -43.223  57.969 -52.441  1.00  0.00     0.202 A 
HETATM   10  C   UNL     1     -43.054  56.621 -51.752  1.00  0.00     0.062 A 
HETATM   11  H   UNL     1     -45.763  56.527 -49.909  1.00  0.00     0.184 HD
ENDROOT
BRANCH   9  12
HETATM   12  C   UNL     1     -43.286  57.874 -53.962  1.00  0.00    -0.028 A 
HETATM   13  C   UNL     1     -42.215  58.345 -54.736  1.00  0.00     0.012 A 
HETATM   14  C   UNL     1     -42.263  58.276 -56.130  1.00  0.00     0.037 A 
HETATM   15  C   UNL     1     -43.372  57.732 -56.781  1.00  0.00     0.074 A 
HETATM   16  C   UNL     1     -44.452  57.280 -56.021  1.00  0.00     0.037 A 
HETATM   17  C   UNL     1     -44.410  57.352 -54.624  1.00  0.00     0.012 A 
BRANCH  15  18
HETATM   18  O   UNL     1     -43.290  57.725 -58.144  1.00  0.00    -0.290 OA
BRANCH  18  19
HETATM   19  C   UNL     1     -43.273  56.452 -58.765  1.00  0.00     0.505 C 
HETATM   20  F   UNL     1     -42.505  56.508 -59.881  1.00  0.00    -0.184 F 
HETATM   21  F   UNL     1     -42.653  55.596 -57.912  1.00  0.00    -0.184 F 
ENDBRANCH  18  19
ENDBRANCH  15  18
ENDBRANCH   9  12
BRANCH  10  22
HETATM   22  C   UNL     1     -41.870  55.804 -52.127  1.00  0.00     0.256 C 
HETATM   23  N   UNL     1     -42.191  54.502 -52.445  1.00  0.00    -0.323 N 
HETATM   24  H   UNL     1     -43.162  54.225 -52.398  1.00  0.00     0.169 HD
HETATM   25  O   UNL     1     -40.759  56.321 -52.131  1.00  0.00    -0.267 OA
BRANCH  23  26
HETATM   26  C   UNL     1     -41.305  53.485 -52.864  1.00  0.00     0.035 A 
HETATM   27  C   UNL     1     -41.195  53.038 -54.182  1.00  0.00     0.029 A 
HETATM   28  C   UNL     1     -40.302  52.013 -54.510  1.00  0.00     0.002 A 
HETATM   29  C   UNL     1     -39.505  51.433 -53.527  1.00  0.00     0.000 A 
HETATM   30  C   UNL     1     -39.603  51.875 -52.211  1.00  0.00     0.002 A 
HETATM   31  C   UNL     1     -40.502  52.891 -51.879  1.00  0.00     0.029 A 
ENDBRANCH  23  26
ENDBRANCH  10  22
TORSDOF 5
ENDMDL
MODEL 8
REMARK VINA RESULT:      -7.5      4.159      7.810
REMARK  5 active torsions:
REMARK  status: ('A' for Active; 'I' for Inactive)
REMARK    1  A    between atoms: C_9  and  C_10 
REMARK    2  A    between atoms: C_13  and  O_14 
REMARK    3  A    between atoms: O_14  and  C_15 
REMARK    4  A    between atoms: C_20  and  C_21 
REMARK       I    between atoms: C_21  and  N_22 
REMARK    5  A    between atoms: N_22  and  C_23 
ROOT
HETATM    1  C   UNL     1     -40.928  54.131 -55.367  1.00  0.00     0.070 C 
HETATM    2  C   UNL     1     -41.876  55.305 -55.389  1.00  0.00     0.037 A 
HETATM    3  N   UNL     1     -41.918  56.028 -56.576  1.00  0.00    -0.192 N 
HETATM    4  C   UNL     1     -42.778  57.040 -56.796  1.00  0.00     0.725 A 
HETATM    5  N   UNL     1     -43.588  57.463 -55.777  1.00  0.00    -0.084 N 
HETATM    6  N   UNL     1     -44.484  58.375 -56.210  1.00  0.00    -0.149 NA
HETATM    7  C   UNL     1     -44.080  58.531 -57.477  1.00  0.00     0.275 A 
HETATM    8  N   UNL     1     -43.045  57.727 -57.877  1.00  0.00    -0.054 NA
HETATM    9  C   UNL     1     -43.590  56.880 -54.431  1.00  0.00     0.202 A 
HETATM   10  C   UNL     1     -42.674  55.665 -54.353  1.00  0.00     0.062 A 
HETATM   11  H   UNL     1     -41.337  55.707 -57.346  1.00  0.00     0.184 HD
ENDROOT
BRANCH   9  12
HETATM   12  C   UNL     1     -43.270  57.953 -53.397  1.00  0.00    -0.028 A 
HETATM   13  C   UNL     1     -42.057  58.654 -53.469  1.00  0.00     0.012 A 
HETATM   14  C   UNL     1     -41.745  59.632 -52.522  1.00  0.00     0.037 A 
HETATM   15  C   UNL     1     -42.635  59.936 -51.490  1.00  0.00     0.074 A 
HETATM   16  C   UNL     1     -43.834  59.230 -51.395  1.00  0.00     0.037 A 
HETATM   17  C   UNL     1     -44.148  58.246 -52.340  1.00  0.00     0.012 A 
BRANCH  15  18
HETATM   18  O   UNL     1     -42.206  60.911 -50.633  1.00  0.00    -0.290 OA
BRANCH  18  19
HETATM   19  C   UNL     1     -42.981  62.096 -50.595  1.00  0.00     0.505 C 
HETATM   20  F   UNL     1     -42.242  63.097 -50.057  1.00  0.00    -0.184 F 
HETATM   21  F   UNL     1     -43.237  62.452 -51.880  1.00  0.00    -0.184 F 
ENDBRANCH  18  19
ENDBRANCH  15  18
ENDBRANCH   9  12
BRANCH  10  22
HETATM   22  C   UNL     1     -42.615  54.934 -53.060  1.00  0.00     0.256 C 
HETATM   23  N   UNL     1     -41.474  55.210 -52.336  1.00  0.00    -0.323 N 
HETATM   24  H   UNL     1     -40.804  55.857 -52.730  1.00  0.00     0.169 HD
HETATM   25  O   UNL     1     -43.535  54.189 -52.747  1.00  0.00    -0.267 OA
BRANCH  23  26
HETATM   26  C   UNL     1     -41.130  54.702 -51.064  1.00  0.00     0.035 A 
HETATM   27  C   UNL     1     -40.580  53.437 -50.850  1.00  0.00     0.029 A 
HETATM   28  C   UNL     1     -40.283  53.004 -49.553  1.00  0.00     0.002 A 
HETATM   29  C   UNL     1     -40.521  53.836 -48.462  1.00  0.00     0.000 A 
HETATM   30  C   UNL     1     -41.063  55.102 -48.666  1.00  0.00     0.002 A 
HETATM   31  C   UNL     1     -41.371  55.531 -49.959  1.00  0.00     0.029 A 
ENDBRANCH  23  26
ENDBRANCH  10  22
TORSDOF 5
ENDMDL
MODEL 9
REMARK VINA RESULT:      -7.5      3.959      6.679
REMARK  5 active torsions:
REMARK  status: ('A' for Active; 'I' for Inactive)
REMARK    1  A    between atoms: C_9  and  C_10 
REMARK    2  A    between atoms: C_13  and  O_14 
REMARK    3  A    between atoms: O_14  and  C_15 
REMARK    4  A    between atoms: C_20  and  C_21 
REMARK       I    between atoms: C_21  and  N_22 
REMARK    5  A    between atoms: N_22  and  C_23 
ROOT
HETATM    1  C   UNL     1     -40.568  54.678 -49.384  1.00  0.00     0.070 C 
HETATM    2  C   UNL     1     -40.780  54.015 -50.723  1.00  0.00     0.037 A 
HETATM    3  N   UNL     1     -39.776  53.142 -51.132  1.00  0.00    -0.192 N 
HETATM    4  C   UNL     1     -39.855  52.396 -52.249  1.00  0.00     0.725 A 
HETATM    5  N   UNL     1     -40.918  52.566 -53.093  1.00  0.00    -0.084 N 
HETATM    6  N   UNL     1     -40.915  51.641 -54.077  1.00  0.00    -0.149 NA
HETATM    7  C   UNL     1     -39.759  51.017 -53.821  1.00  0.00     0.275 A 
HETATM    8  N   UNL     1     -39.084  51.444 -52.707  1.00  0.00    -0.054 NA
HETATM    9  C   UNL     1     -42.005  53.523 -52.865  1.00  0.00     0.202 A 
HETATM   10  C   UNL     1     -41.868  54.204 -51.509  1.00  0.00     0.062 A 
HETATM   11  H   UNL     1     -38.994  52.992 -50.500  1.00  0.00     0.184 HD
ENDROOT
BRANCH   9  12
HETATM   12  C   UNL     1     -42.096  54.500 -54.033  1.00  0.00    -0.028 A 
HETATM   13  C   UNL     1     -43.129  54.370 -54.973  1.00  0.00     0.012 A 
HETATM   14  C   UNL     1     -43.218  55.249 -56.054  1.00  0.00     0.037 A 
HETATM   15  C   UNL     1     -42.288  56.277 -56.218  1.00  0.00     0.074 A 
HETATM   16  C   UNL     1     -41.244  56.401 -55.301  1.00  0.00     0.037 A 
HETATM   17  C   UNL     1     -41.148  55.519 -54.219  1.00  0.00     0.012 A 
BRANCH  15  18
HETATM   18  O   UNL     1     -42.491  57.063 -57.317  1.00  0.00    -0.290 OA
BRANCH  18  19
HETATM   19  C   UNL     1     -43.303  56.513 -58.340  1.00  0.00     0.505 C 
HETATM   20  F   UNL     1     -43.974  57.512 -58.964  1.00  0.00    -0.184 F 
HETATM   21  F   UNL     1     -42.472  55.969 -59.265  1.00  0.00    -0.184 F 
ENDBRANCH  18  19
ENDBRANCH  15  18
ENDBRANCH   9  12
BRANCH  10  22
HETATM   22  C   UNL     1     -42.931  55.165 -51.114  1.00  0.00     0.256 C 
HETATM   23  N   UNL     1     -42.651  56.463 -51.485  1.00  0.00    -0.323 N 
HETATM   24  H   UNL     1     -41.784  56.643 -51.972  1.00  0.00     0.169 HD
HETATM   25  O   UNL     1     -43.925  54.754 -50.528  1.00  0.00    -0.267 OA
BRANCH  23  26
HETATM   26  C   UNL     1     -43.464  57.600 -51.282  1.00  0.00     0.035 A 
HETATM   27  C   UNL     1     -44.855  57.557 -51.166  1.00  0.00     0.029 A 
HETATM   28  C   UNL     1     -45.587  58.734 -50.981  1.00  0.00     0.002 A 
HETATM   29  C   UNL     1     -44.936  59.962 -50.901  1.00  0.00     0.000 A 
HETATM   30  C   UNL     1     -43.549  60.015 -51.009  1.00  0.00     0.002 A 
HETATM   31  C   UNL     1     -42.817  58.842 -51.205  1.00  0.00     0.029 A 
ENDBRANCH  23  26
ENDBRANCH  10  22
TORSDOF 5
ENDMDL
MODEL 10
REMARK VINA RESULT:      -7.2     15.801     17.778
REMARK  5 active torsions:
REMARK  status: ('A' for Active; 'I' for Inactive)
REMARK    1  A    between atoms: C_9  and  C_10 
REMARK    2  A    between atoms: C_13  and  O_14 
REMARK    3  A    between atoms: O_14  and  C_15 
REMARK    4  A    between atoms: C_20  and  C_21 
REMARK       I    between atoms: C_21  and  N_22 
REMARK    5  A    between atoms: N_22  and  C_23 
ROOT
HETATM    1  C   UNL     1     -31.664  38.086 -54.916  1.00  0.00     0.070 C 
HETATM    2  C   UNL     1     -32.216  38.835 -53.728  1.00  0.00     0.037 A 
HETATM    3  N   UNL     1     -31.842  38.350 -52.479  1.00  0.00    -0.192 N 
HETATM    4  C   UNL     1     -32.165  38.958 -51.322  1.00  0.00     0.725 A 
HETATM    5  N   UNL     1     -32.988  40.051 -51.349  1.00  0.00    -0.084 N 
HETATM    6  N   UNL     1     -33.084  40.621 -50.129  1.00  0.00    -0.149 NA
HETATM    7  C   UNL     1     -32.378  39.750 -49.397  1.00  0.00     0.275 A 
HETATM    8  N   UNL     1     -31.793  38.724 -50.091  1.00  0.00    -0.054 NA
HETATM    9  C   UNL     1     -33.558  40.623 -52.573  1.00  0.00     0.202 A 
HETATM   10  C   UNL     1     -33.012  39.930 -53.814  1.00  0.00     0.062 A 
HETATM   11  H   UNL     1     -31.212  37.553 -52.451  1.00  0.00     0.184 HD
ENDROOT
BRANCH   9  12
HETATM   12  C   UNL     1     -35.080  40.621 -52.491  1.00  0.00    -0.028 A 
HETATM   13  C   UNL     1     -35.761  39.436 -52.178  1.00  0.00     0.012 A 
HETATM   14  C   UNL     1     -37.156  39.416 -52.110  1.00  0.00     0.037 A 
HETATM   15  C   UNL     1     -37.900  40.573 -52.348  1.00  0.00     0.074 A 
HETATM   16  C   UNL     1     -37.234  41.752 -52.683  1.00  0.00     0.037 A 
HETATM   17  C   UNL     1     -35.836  41.776 -52.755  1.00  0.00     0.012 A 
BRANCH  15  18
HETATM   18  O   UNL     1     -39.253  40.414 -52.251  1.00  0.00    -0.290 OA
BRANCH  18  19
HETATM   19  C   UNL     1     -40.045  41.506 -52.687  1.00  0.00     0.505 C 
HETATM   20  F   UNL     1     -40.423  41.299 -53.972  1.00  0.00    -0.184 F 
HETATM   21  F   UNL     1     -41.181  41.501 -51.944  1.00  0.00    -0.184 F 
ENDBRANCH  18  19
ENDBRANCH  15  18
ENDBRANCH   9  12
BRANCH  10  22
HETATM   22  C   UNL     1     -33.460  40.440 -55.137  1.00  0.00     0.256 C 
HETATM   23  N   UNL     1     -34.720  40.003 -55.485  1.00  0.00    -0.323 N 
HETATM   24  H   UNL     1     -35.211  39.399 -54.840  1.00  0.00     0.169 HD
HETATM   25  O   UNL     1     -32.720  41.174 -55.780  1.00  0.00    -0.267 OA
BRANCH  23  26
HETATM   26  C   UNL     1     -35.439  40.326 -56.657  1.00  0.00     0.035 A 
HETATM   27  C   UNL     1     -35.534  39.491 -57.772  1.00  0.00     0.029 A 
HETATM   28  C   UNL     1     -36.254  39.895 -58.901  1.00  0.00     0.002 A 
HETATM   29  C   UNL     1     -36.894  41.132 -58.921  1.00  0.00     0.000 A 
HETATM   30  C   UNL     1     -36.811  41.970 -57.812  1.00  0.00     0.002 A 
HETATM   31  C   UNL     1     -36.082  41.572 -56.689  1.00  0.00     0.029 A 
ENDBRANCH  23  26
ENDBRANCH  10  22
TORSDOF 5
ENDMDL
