MODEL 1
REMARK VINA RESULT:      -7.6      0.000      0.000
REMARK  5 active torsions:
REMARK  status: ('A' for Active; 'I' for Inactive)
REMARK    1  A    between atoms: C_7  and  C_8 
REMARK    2  A    between atoms: N_9  and  N_10 
REMARK       I    between atoms: N_10  and  C_11 
REMARK    3  A    between atoms: C_11  and  C_12 
REMARK    4  A    between atoms: C_12  and  N_13 
REMARK    5  A    between atoms: N_13  and  C_14 
ROOT
HETATM    1  N   UNL     1     -41.407  58.980 -53.051  1.00  0.00    -0.246 N 
HETATM    2  C   UNL     1     -40.189  58.927 -52.357  1.00  0.00     0.250 C 
HETATM    3  O   UNL     1     -39.088  59.182 -52.841  1.00  0.00    -0.270 OA
HETATM    4  H   UNL     1     -42.079  58.257 -52.815  1.00  0.00     0.192 HD
ENDROOT
BRANCH   1   5
HETATM    5  N   UNL     1     -41.452  59.351 -54.370  1.00  0.00    -0.184 NA
HETATM    6  C   UNL     1     -42.124  58.605 -55.202  1.00  0.00     0.153 C 
BRANCH   6   7
HETATM    7  C   UNL     1     -42.667  57.278 -54.948  1.00  0.00     0.018 A 
HETATM    8  C   UNL     1     -44.026  57.011 -54.855  1.00  0.00     0.018 A 
HETATM    9  C   UNL     1     -45.203  57.912 -54.966  1.00  0.00     0.069 C 
HETATM   10  N   UNL     1     -44.171  55.681 -54.553  1.00  0.00    -0.358 N 
HETATM   11  H   UNL     1     -45.052  55.214 -54.386  1.00  0.00     0.166 HD
HETATM   12  C   UNL     1     -42.948  55.056 -54.517  1.00  0.00     0.043 A 
HETATM   13  C   UNL     1     -41.984  56.024 -54.795  1.00  0.00     0.004 A 
HETATM   14  C   UNL     1     -42.631  53.715 -54.265  1.00  0.00     0.030 A 
HETATM   15  C   UNL     1     -40.634  55.611 -54.872  1.00  0.00     0.014 A 
HETATM   16  C   UNL     1     -40.298  54.275 -54.623  1.00  0.00     0.001 A 
HETATM   17  C   UNL     1     -41.286  53.343 -54.317  1.00  0.00     0.002 A 
ENDBRANCH   6   7
ENDBRANCH   1   5
BRANCH   2  18
HETATM   18  C   UNL     1     -40.397  58.505 -50.896  1.00  0.00     0.197 C 
BRANCH  18  19
HETATM   19  N   UNL     1     -41.758  58.020 -50.654  1.00  0.00    -0.283 NA
HETATM   20  H   UNL     1     -42.205  58.491 -49.863  1.00  0.00     0.128 HD
BRANCH  19  21
HETATM   21  C   UNL     1     -41.973  56.632 -50.652  1.00  0.00     0.030 A 
HETATM   22  C   UNL     1     -43.256  56.094 -50.876  1.00  0.00     0.055 A 
HETATM   23 CL   UNL     1     -44.629  57.131 -51.061  1.00  0.00    -0.082 Cl
HETATM   24  C   UNL     1     -43.467  54.711 -50.924  1.00  0.00     0.026 A 
HETATM   25  C   UNL     1     -42.393  53.837 -50.773  1.00  0.00     0.002 A 
HETATM   26  C   UNL     1     -41.112  54.347 -50.582  1.00  0.00     0.002 A 
HETATM   27  C   UNL     1     -40.905  55.729 -50.531  1.00  0.00     0.025 A 
ENDBRANCH  19  21
ENDBRANCH  18  19
ENDBRANCH   2  18
TORSDOF 5
ENDMDL
MODEL 2
REMARK VINA RESULT:      -7.2      2.798      5.184
REMARK  5 active torsions:
REMARK  status: ('A' for Active; 'I' for Inactive)
REMARK    1  A    between atoms: C_7  and  C_8 
REMARK    2  A    between atoms: N_9  and  N_10 
REMARK       I    between atoms: N_10  and  C_11 
REMARK    3  A    between atoms: C_11  and  C_12 
REMARK    4  A    between atoms: C_12  and  N_13 
REMARK    5  A    between atoms: N_13  and  C_14 
ROOT
HETATM    1  N   UNL     1     -42.734  54.487 -54.289  1.00  0.00    -0.246 N 
HETATM    2  C   UNL     1     -41.797  54.754 -55.297  1.00  0.00     0.250 C 
HETATM    3  O   UNL     1     -41.950  55.564 -56.209  1.00  0.00    -0.270 OA
HETATM    4  H   UNL     1     -42.806  53.517 -54.000  1.00  0.00     0.192 HD
ENDROOT
BRANCH   1   5
HETATM    5  N   UNL     1     -43.932  55.154 -54.244  1.00  0.00    -0.184 NA
HETATM    6  C   UNL     1     -44.065  56.134 -53.395  1.00  0.00     0.153 C 
BRANCH   6   7
HETATM    7  C   UNL     1     -43.158  56.483 -52.310  1.00  0.00     0.018 A 
HETATM    8  C   UNL     1     -43.228  55.923 -51.042  1.00  0.00     0.018 A 
HETATM    9  C   UNL     1     -44.162  54.915 -50.476  1.00  0.00     0.069 C 
HETATM   10  N   UNL     1     -42.268  56.522 -50.267  1.00  0.00    -0.358 N 
HETATM   11  H   UNL     1     -42.115  56.339 -49.284  1.00  0.00     0.166 HD
HETATM   12  C   UNL     1     -41.525  57.405 -51.012  1.00  0.00     0.043 A 
HETATM   13  C   UNL     1     -42.036  57.379 -52.309  1.00  0.00     0.004 A 
HETATM   14  C   UNL     1     -40.445  58.212 -50.634  1.00  0.00     0.030 A 
HETATM   15  C   UNL     1     -41.394  58.171 -53.288  1.00  0.00     0.014 A 
HETATM   16  C   UNL     1     -40.313  58.985 -52.930  1.00  0.00     0.001 A 
HETATM   17  C   UNL     1     -39.852  59.008 -51.617  1.00  0.00     0.002 A 
ENDBRANCH   6   7
ENDBRANCH   1   5
BRANCH   2  18
HETATM   18  C   UNL     1     -40.533  53.900 -55.125  1.00  0.00     0.197 C 
BRANCH  18  19
HETATM   19  N   UNL     1     -40.269  53.591 -53.717  1.00  0.00    -0.283 NA
HETATM   20  H   UNL     1     -39.608  54.246 -53.292  1.00  0.00     0.128 HD
BRANCH  19  21
HETATM   21  C   UNL     1     -40.007  52.255 -53.374  1.00  0.00     0.030 A 
HETATM   22  C   UNL     1     -39.780  51.878 -52.034  1.00  0.00     0.055 A 
HETATM   23 CL   UNL     1     -39.716  53.071 -50.781  1.00  0.00    -0.082 Cl
HETATM   24  C   UNL     1     -39.567  50.541 -51.680  1.00  0.00     0.026 A 
HETATM   25  C   UNL     1     -39.602  49.548 -52.655  1.00  0.00     0.002 A 
HETATM   26  C   UNL     1     -39.856  49.893 -53.980  1.00  0.00     0.002 A 
HETATM   27  C   UNL     1     -40.064  51.230 -54.332  1.00  0.00     0.025 A 
ENDBRANCH  19  21
ENDBRANCH  18  19
ENDBRANCH   2  18
TORSDOF 5
ENDMDL
MODEL 3
REMARK VINA RESULT:      -6.9      2.757      4.909
REMARK  5 active torsions:
REMARK  status: ('A' for Active; 'I' for Inactive)
REMARK    1  A    between atoms: C_7  and  C_8 
REMARK    2  A    between atoms: N_9  and  N_10 
REMARK       I    between atoms: N_10  and  C_11 
REMARK    3  A    between atoms: C_11  and  C_12 
REMARK    4  A    between atoms: C_12  and  N_13 
REMARK    5  A    between atoms: N_13  and  C_14 
ROOT
HETATM    1  N   UNL     1     -44.391  56.358 -53.530  1.00  0.00    -0.246 N 
HETATM    2  C   UNL     1     -43.310  55.637 -54.058  1.00  0.00     0.250 C 
HETATM    3  O   UNL     1     -42.742  55.890 -55.118  1.00  0.00    -0.270 OA
HETATM    4  H   UNL     1     -45.103  55.806 -53.064  1.00  0.00     0.192 HD
ENDROOT
BRANCH   1   5
HETATM    5  N   UNL     1     -44.896  57.452 -54.184  1.00  0.00    -0.184 NA
HETATM    6  C   UNL     1     -44.537  58.639 -53.779  1.00  0.00     0.153 C 
BRANCH   6   7
HETATM    7  C   UNL     1     -43.820  58.967 -52.555  1.00  0.00     0.018 A 
HETATM    8  C   UNL     1     -44.449  59.297 -51.362  1.00  0.00     0.018 A 
HETATM    9  C   UNL     1     -45.892  59.411 -51.025  1.00  0.00     0.069 C 
HETATM   10  N   UNL     1     -43.474  59.601 -50.446  1.00  0.00    -0.358 N 
HETATM   11  H   UNL     1     -43.642  59.916 -49.500  1.00  0.00     0.166 HD
HETATM   12  C   UNL     1     -42.225  59.410 -50.985  1.00  0.00     0.043 A 
HETATM   13  C   UNL     1     -42.406  58.978 -52.299  1.00  0.00     0.004 A 
HETATM   14  C   UNL     1     -40.961  59.582 -50.407  1.00  0.00     0.030 A 
HETATM   15  C   UNL     1     -41.256  58.656 -53.053  1.00  0.00     0.014 A 
HETATM   16  C   UNL     1     -39.984  58.821 -52.492  1.00  0.00     0.001 A 
HETATM   17  C   UNL     1     -39.842  59.285 -51.188  1.00  0.00     0.002 A 
ENDBRANCH   6   7
ENDBRANCH   1   5
BRANCH   2  18
HETATM   18  C   UNL     1     -42.913  54.473 -53.140  1.00  0.00     0.197 C 
BRANCH  18  19
HETATM   19  N   UNL     1     -41.472  54.451 -52.876  1.00  0.00    -0.283 NA
HETATM   20  H   UNL     1     -40.981  55.226 -53.330  1.00  0.00     0.128 HD
BRANCH  19  21
HETATM   21  C   UNL     1     -40.797  53.227 -53.010  1.00  0.00     0.030 A 
HETATM   22  C   UNL     1     -40.065  52.678 -51.936  1.00  0.00     0.055 A 
HETATM   23 CL   UNL     1     -39.894  53.548 -50.449  1.00  0.00    -0.082 Cl
HETATM   24  C   UNL     1     -39.432  51.435 -52.047  1.00  0.00     0.026 A 
HETATM   25  C   UNL     1     -39.536  50.703 -53.227  1.00  0.00     0.002 A 
HETATM   26  C   UNL     1     -40.279  51.211 -54.289  1.00  0.00     0.002 A 
HETATM   27  C   UNL     1     -40.908  52.454 -54.177  1.00  0.00     0.025 A 
ENDBRANCH  19  21
ENDBRANCH  18  19
ENDBRANCH   2  18
TORSDOF 5
ENDMDL
MODEL 4
REMARK VINA RESULT:      -6.9      2.661      4.560
REMARK  5 active torsions:
REMARK  status: ('A' for Active; 'I' for Inactive)
REMARK    1  A    between atoms: C_7  and  C_8 
REMARK    2  A    between atoms: N_9  and  N_10 
REMARK       I    between atoms: N_10  and  C_11 
REMARK    3  A    between atoms: C_11  and  C_12 
REMARK    4  A    between atoms: C_12  and  N_13 
REMARK    5  A    between atoms: N_13  and  C_14 
ROOT
HETATM    1  N   UNL     1     -44.616  56.547 -53.880  1.00  0.00    -0.246 N 
HETATM    2  C   UNL     1     -43.605  55.829 -54.535  1.00  0.00     0.250 C 
HETATM    3  O   UNL     1     -43.089  56.151 -55.604  1.00  0.00    -0.270 OA
HETATM    4  H   UNL     1     -45.326  55.986 -53.420  1.00  0.00     0.192 HD
ENDROOT
BRANCH   1   5
HETATM    5  N   UNL     1     -45.105  57.716 -54.404  1.00  0.00    -0.184 NA
HETATM    6  C   UNL     1     -44.690  58.844 -53.898  1.00  0.00     0.153 C 
BRANCH   6   7
HETATM    7  C   UNL     1     -43.919  59.027 -52.677  1.00  0.00     0.018 A 
HETATM    8  C   UNL     1     -44.495  59.246 -51.432  1.00  0.00     0.018 A 
HETATM    9  C   UNL     1     -45.920  59.358 -51.028  1.00  0.00     0.069 C 
HETATM   10  N   UNL     1     -43.479  59.430 -50.529  1.00  0.00    -0.358 N 
HETATM   11  H   UNL     1     -43.603  59.649 -49.550  1.00  0.00     0.166 HD
HETATM   12  C   UNL     1     -42.257  59.266 -51.134  1.00  0.00     0.043 A 
HETATM   13  C   UNL     1     -42.498  58.977 -52.477  1.00  0.00     0.004 A 
HETATM   14  C   UNL     1     -40.968  59.347 -50.592  1.00  0.00     0.030 A 
HETATM   15  C   UNL     1     -41.386  58.708 -53.306  1.00  0.00     0.014 A 
HETATM   16  C   UNL     1     -40.090  58.784 -52.782  1.00  0.00     0.001 A 
HETATM   17  C   UNL     1     -39.887  59.107 -51.443  1.00  0.00     0.002 A 
ENDBRANCH   6   7
ENDBRANCH   1   5
BRANCH   2  18
HETATM   18  C   UNL     1     -43.212  54.571 -53.748  1.00  0.00     0.197 C 
BRANCH  18  19
HETATM   19  N   UNL     1     -41.761  54.461 -53.582  1.00  0.00    -0.283 NA
HETATM   20  H   UNL     1     -41.359  53.711 -54.151  1.00  0.00     0.128 HD
BRANCH  19  21
HETATM   21  C   UNL     1     -41.243  54.492 -52.277  1.00  0.00     0.030 A 
HETATM   22  C   UNL     1     -40.351  53.497 -51.825  1.00  0.00     0.055 A 
HETATM   23 CL   UNL     1     -39.946  52.150 -52.833  1.00  0.00    -0.082 Cl
HETATM   24  C   UNL     1     -39.793  53.550 -50.543  1.00  0.00     0.026 A 
HETATM   25  C   UNL     1     -40.096  54.611 -49.693  1.00  0.00     0.002 A 
HETATM   26  C   UNL     1     -40.950  55.620 -50.130  1.00  0.00     0.002 A 
HETATM   27  C   UNL     1     -41.508  55.564 -51.411  1.00  0.00     0.025 A 
ENDBRANCH  19  21
ENDBRANCH  18  19
ENDBRANCH   2  18
TORSDOF 5
ENDMDL
MODEL 5
REMARK VINA RESULT:      -6.9      2.922      4.230
REMARK  5 active torsions:
REMARK  status: ('A' for Active; 'I' for Inactive)
REMARK    1  A    between atoms: C_7  and  C_8 
REMARK    2  A    between atoms: N_9  and  N_10 
REMARK       I    between atoms: N_10  and  C_11 
REMARK    3  A    between atoms: C_11  and  C_12 
REMARK    4  A    between atoms: C_12  and  N_13 
REMARK    5  A    between atoms: N_13  and  C_14 
ROOT
HETATM    1  N   UNL     1     -42.933  56.660 -50.654  1.00  0.00    -0.246 N 
HETATM    2  C   UNL     1     -42.663  55.288 -50.552  1.00  0.00     0.250 C 
HETATM    3  O   UNL     1     -43.512  54.399 -50.544  1.00  0.00    -0.270 OA
HETATM    4  H   UNL     1     -42.340  57.267 -50.098  1.00  0.00     0.192 HD
ENDROOT
BRANCH   1   5
HETATM    5  N   UNL     1     -44.219  57.120 -50.771  1.00  0.00    -0.184 NA
HETATM    6  C   UNL     1     -44.677  57.387 -51.963  1.00  0.00     0.153 C 
BRANCH   6   7
HETATM    7  C   UNL     1     -43.911  57.468 -53.198  1.00  0.00     0.018 A 
HETATM    8  C   UNL     1     -43.294  58.629 -53.644  1.00  0.00     0.018 A 
HETATM    9  C   UNL     1     -43.252  59.993 -53.055  1.00  0.00     0.069 C 
HETATM   10  N   UNL     1     -42.718  58.356 -54.858  1.00  0.00    -0.358 N 
HETATM   11  H   UNL     1     -42.234  59.029 -55.437  1.00  0.00     0.166 HD
HETATM   12  C   UNL     1     -42.878  57.032 -55.185  1.00  0.00     0.043 A 
HETATM   13  C   UNL     1     -43.594  56.436 -54.146  1.00  0.00     0.004 A 
HETATM   14  C   UNL     1     -42.441  56.325 -56.312  1.00  0.00     0.030 A 
HETATM   15  C   UNL     1     -43.838  55.047 -54.224  1.00  0.00     0.014 A 
HETATM   16  C   UNL     1     -43.408  54.323 -55.342  1.00  0.00     0.001 A 
HETATM   17  C   UNL     1     -42.725  54.959 -56.375  1.00  0.00     0.002 A 
ENDBRANCH   6   7
ENDBRANCH   1   5
BRANCH   2  18
HETATM   18  C   UNL     1     -41.154  55.021 -50.451  1.00  0.00     0.197 C 
BRANCH  18  19
HETATM   19  N   UNL     1     -40.845  53.592 -50.540  1.00  0.00    -0.283 NA
HETATM   20  H   UNL     1     -40.241  53.276 -49.777  1.00  0.00     0.128 HD
BRANCH  19  21
HETATM   21  C   UNL     1     -40.458  53.077 -51.788  1.00  0.00     0.030 A 
HETATM   22  C   UNL     1     -40.052  51.734 -51.928  1.00  0.00     0.055 A 
HETATM   23 CL   UNL     1     -39.922  50.703 -50.544  1.00  0.00    -0.082 Cl
HETATM   24  C   UNL     1     -39.713  51.203 -53.177  1.00  0.00     0.026 A 
HETATM   25  C   UNL     1     -39.794  51.997 -54.318  1.00  0.00     0.002 A 
HETATM   26  C   UNL     1     -40.223  53.318 -54.208  1.00  0.00     0.002 A 
HETATM   27  C   UNL     1     -40.558  53.847 -52.958  1.00  0.00     0.025 A 
ENDBRANCH  19  21
ENDBRANCH  18  19
ENDBRANCH   2  18
TORSDOF 5
ENDMDL
MODEL 6
REMARK VINA RESULT:      -6.7      2.573      3.577
REMARK  5 active torsions:
REMARK  status: ('A' for Active; 'I' for Inactive)
REMARK    1  A    between atoms: C_7  and  C_8 
REMARK    2  A    between atoms: N_9  and  N_10 
REMARK       I    between atoms: N_10  and  C_11 
REMARK    3  A    between atoms: C_11  and  C_12 
REMARK    4  A    between atoms: C_12  and  N_13 
REMARK    5  A    between atoms: N_13  and  C_14 
ROOT
HETATM    1  N   UNL     1     -41.387  58.820 -54.239  1.00  0.00    -0.246 N 
HETATM    2  C   UNL     1     -41.304  58.873 -52.840  1.00  0.00     0.250 C 
HETATM    3  O   UNL     1     -41.488  59.879 -52.158  1.00  0.00    -0.270 OA
HETATM    4  H   UNL     1     -40.707  58.224 -54.698  1.00  0.00     0.192 HD
ENDROOT
BRANCH   1   5
HETATM    5  N   UNL     1     -41.709  59.935 -54.969  1.00  0.00    -0.184 NA
HETATM    6  C   UNL     1     -42.557  59.810 -55.952  1.00  0.00     0.153 C 
BRANCH   6   7
HETATM    7  C   UNL     1     -43.056  58.569 -56.527  1.00  0.00     0.018 A 
HETATM    8  C   UNL     1     -44.028  57.781 -55.924  1.00  0.00     0.018 A 
HETATM    9  C   UNL     1     -44.758  57.952 -54.641  1.00  0.00     0.069 C 
HETATM   10  N   UNL     1     -44.209  56.670 -56.708  1.00  0.00    -0.358 N 
HETATM   11  H   UNL     1     -44.829  55.901 -56.492  1.00  0.00     0.166 HD
HETATM   12  C   UNL     1     -43.437  56.744 -57.841  1.00  0.00     0.043 A 
HETATM   13  C   UNL     1     -42.726  57.942 -57.776  1.00  0.00     0.004 A 
HETATM   14  C   UNL     1     -43.323  55.847 -58.911  1.00  0.00     0.030 A 
HETATM   15  C   UNL     1     -41.894  58.277 -58.868  1.00  0.00     0.014 A 
HETATM   16  C   UNL     1     -41.767  57.394 -59.946  1.00  0.00     0.001 A 
HETATM   17  C   UNL     1     -42.468  56.192 -59.960  1.00  0.00     0.002 A 
ENDBRANCH   6   7
ENDBRANCH   1   5
BRANCH   2  18
HETATM   18  C   UNL     1     -40.950  57.501 -52.249  1.00  0.00     0.197 C 
BRANCH  18  19
HETATM   19  N   UNL     1     -41.830  56.444 -52.755  1.00  0.00    -0.283 NA
HETATM   20  H   UNL     1     -42.595  56.232 -52.109  1.00  0.00     0.128 HD
BRANCH  19  21
HETATM   21  C   UNL     1     -41.234  55.290 -53.290  1.00  0.00     0.030 A 
HETATM   22  C   UNL     1     -41.159  54.097 -52.543  1.00  0.00     0.055 A 
HETATM   23 CL   UNL     1     -41.709  54.046 -50.902  1.00  0.00    -0.082 Cl
HETATM   24  C   UNL     1     -40.611  52.930 -53.088  1.00  0.00     0.026 A 
HETATM   25  C   UNL     1     -40.148  52.926 -54.402  1.00  0.00     0.002 A 
HETATM   26  C   UNL     1     -40.242  54.084 -55.169  1.00  0.00     0.002 A 
HETATM   27  C   UNL     1     -40.786  55.249 -54.620  1.00  0.00     0.025 A 
ENDBRANCH  19  21
ENDBRANCH  18  19
ENDBRANCH   2  18
TORSDOF 5
ENDMDL
MODEL 7
REMARK VINA RESULT:      -6.6      2.187      4.308
REMARK  5 active torsions:
REMARK  status: ('A' for Active; 'I' for Inactive)
REMARK    1  A    between atoms: C_7  and  C_8 
REMARK    2  A    between atoms: N_9  and  N_10 
REMARK       I    between atoms: N_10  and  C_11 
REMARK    3  A    between atoms: C_11  and  C_12 
REMARK    4  A    between atoms: C_12  and  N_13 
REMARK    5  A    between atoms: N_13  and  C_14 
ROOT
HETATM    1  N   UNL     1     -42.344  56.901 -54.846  1.00  0.00    -0.246 N 
HETATM    2  C   UNL     1     -42.930  58.111 -55.244  1.00  0.00     0.250 C 
HETATM    3  O   UNL     1     -44.075  58.233 -55.674  1.00  0.00    -0.270 OA
HETATM    4  H   UNL     1     -41.362  56.791 -55.076  1.00  0.00     0.192 HD
ENDROOT
BRANCH   1   5
HETATM    5  N   UNL     1     -43.046  55.724 -54.899  1.00  0.00    -0.184 NA
HETATM    6  C   UNL     1     -43.419  55.173 -53.777  1.00  0.00     0.153 C 
BRANCH   6   7
HETATM    7  C   UNL     1     -42.990  55.539 -52.435  1.00  0.00     0.018 A 
HETATM    8  C   UNL     1     -43.564  56.567 -51.700  1.00  0.00     0.018 A 
HETATM    9  C   UNL     1     -44.665  57.506 -52.040  1.00  0.00     0.069 C 
HETATM   10  N   UNL     1     -42.879  56.668 -50.516  1.00  0.00    -0.358 N 
HETATM   11  H   UNL     1     -43.053  57.360 -49.800  1.00  0.00     0.166 HD
HETATM   12  C   UNL     1     -41.919  55.689 -50.426  1.00  0.00     0.043 A 
HETATM   13  C   UNL     1     -41.986  54.940 -51.600  1.00  0.00     0.004 A 
HETATM   14  C   UNL     1     -41.011  55.414 -49.396  1.00  0.00     0.030 A 
HETATM   15  C   UNL     1     -41.126  53.826 -51.723  1.00  0.00     0.014 A 
HETATM   16  C   UNL     1     -40.211  53.534 -50.704  1.00  0.00     0.001 A 
HETATM   17  C   UNL     1     -40.152  54.325 -49.561  1.00  0.00     0.002 A 
ENDBRANCH   6   7
ENDBRANCH   1   5
BRANCH   2  18
HETATM   18  C   UNL     1     -41.957  59.286 -55.076  1.00  0.00     0.197 C 
BRANCH  18  19
HETATM   19  N   UNL     1     -42.341  60.159 -53.964  1.00  0.00    -0.283 NA
HETATM   20  H   UNL     1     -42.329  61.149 -54.224  1.00  0.00     0.128 HD
BRANCH  19  21
HETATM   21  C   UNL     1     -41.762  59.920 -52.707  1.00  0.00     0.030 A 
HETATM   22  C   UNL     1     -42.346  60.425 -51.528  1.00  0.00     0.055 A 
HETATM   23 CL   UNL     1     -43.744  61.444 -51.602  1.00  0.00    -0.082 Cl
HETATM   24  C   UNL     1     -41.801  60.149 -50.269  1.00  0.00     0.026 A 
HETATM   25  C   UNL     1     -40.672  59.340 -50.161  1.00  0.00     0.002 A 
HETATM   26  C   UNL     1     -40.096  58.804 -51.310  1.00  0.00     0.002 A 
HETATM   27  C   UNL     1     -40.641  59.086 -52.567  1.00  0.00     0.025 A 
ENDBRANCH  19  21
ENDBRANCH  18  19
ENDBRANCH   2  18
TORSDOF 5
ENDMDL
MODEL 8
REMARK VINA RESULT:      -6.6      1.984      2.979
REMARK  5 active torsions:
REMARK  status: ('A' for Active; 'I' for Inactive)
REMARK    1  A    between atoms: C_7  and  C_8 
REMARK    2  A    between atoms: N_9  and  N_10 
REMARK       I    between atoms: N_10  and  C_11 
REMARK    3  A    between atoms: C_11  and  C_12 
REMARK    4  A    between atoms: C_12  and  N_13 
REMARK    5  A    between atoms: N_13  and  C_14 
ROOT
HETATM    1  N   UNL     1     -45.063  57.494 -53.373  1.00  0.00    -0.246 N 
HETATM    2  C   UNL     1     -44.879  58.512 -52.426  1.00  0.00     0.250 C 
HETATM    3  O   UNL     1     -44.674  59.695 -52.690  1.00  0.00    -0.270 OA
HETATM    4  H   UNL     1     -44.651  56.596 -53.139  1.00  0.00     0.192 HD
ENDROOT
BRANCH   1   5
HETATM    5  N   UNL     1     -45.039  57.767 -54.716  1.00  0.00    -0.184 NA
HETATM    6  C   UNL     1     -44.011  57.368 -55.413  1.00  0.00     0.153 C 
BRANCH   6   7
HETATM    7  C   UNL     1     -42.753  56.846 -54.898  1.00  0.00     0.018 A 
HETATM    8  C   UNL     1     -41.721  57.651 -54.434  1.00  0.00     0.018 A 
HETATM    9  C   UNL     1     -41.608  59.130 -54.349  1.00  0.00     0.069 C 
HETATM   10  N   UNL     1     -40.678  56.832 -54.085  1.00  0.00    -0.358 N 
HETATM   11  H   UNL     1     -39.776  57.147 -53.752  1.00  0.00     0.166 HD
HETATM   12  C   UNL     1     -41.024  55.512 -54.238  1.00  0.00     0.043 A 
HETATM   13  C   UNL     1     -42.335  55.484 -54.715  1.00  0.00     0.004 A 
HETATM   14  C   UNL     1     -40.280  54.353 -53.987  1.00  0.00     0.030 A 
HETATM   15  C   UNL     1     -42.944  54.223 -54.901  1.00  0.00     0.014 A 
HETATM   16  C   UNL     1     -42.216  53.053 -54.655  1.00  0.00     0.001 A 
HETATM   17  C   UNL     1     -40.899  53.121 -54.211  1.00  0.00     0.002 A 
ENDBRANCH   6   7
ENDBRANCH   1   5
BRANCH   2  18
HETATM   18  C   UNL     1     -44.967  57.966 -50.994  1.00  0.00     0.197 C 
BRANCH  18  19
HETATM   19  N   UNL     1     -44.773  56.514 -50.950  1.00  0.00    -0.283 NA
HETATM   20  H   UNL     1     -45.454  56.048 -50.344  1.00  0.00     0.128 HD
BRANCH  19  21
HETATM   21  C   UNL     1     -43.467  56.029 -50.774  1.00  0.00     0.030 A 
HETATM   22  C   UNL     1     -43.198  54.645 -50.777  1.00  0.00     0.055 A 
HETATM   23 CL   UNL     1     -44.486  53.495 -50.897  1.00  0.00    -0.082 Cl
HETATM   24  C   UNL     1     -41.892  54.157 -50.652  1.00  0.00     0.026 A 
HETATM   25  C   UNL     1     -40.824  55.045 -50.545  1.00  0.00     0.002 A 
HETATM   26  C   UNL     1     -41.063  56.416 -50.571  1.00  0.00     0.002 A 
HETATM   27  C   UNL     1     -42.369  56.900 -50.692  1.00  0.00     0.025 A 
ENDBRANCH  19  21
ENDBRANCH  18  19
ENDBRANCH   2  18
TORSDOF 5
ENDMDL
MODEL 9
REMARK VINA RESULT:      -6.6      3.203      5.233
REMARK  5 active torsions:
REMARK  status: ('A' for Active; 'I' for Inactive)
REMARK    1  A    between atoms: C_7  and  C_8 
REMARK    2  A    between atoms: N_9  and  N_10 
REMARK       I    between atoms: N_10  and  C_11 
REMARK    3  A    between atoms: C_11  and  C_12 
REMARK    4  A    between atoms: C_12  and  N_13 
REMARK    5  A    between atoms: N_13  and  C_14 
ROOT
HETATM    1  N   UNL     1     -41.528  59.518 -54.784  1.00  0.00    -0.246 N 
HETATM    2  C   UNL     1     -42.676  60.256 -55.110  1.00  0.00     0.250 C 
HETATM    3  O   UNL     1     -43.301  60.971 -54.330  1.00  0.00    -0.270 OA
HETATM    4  H   UNL     1     -41.455  58.604 -55.219  1.00  0.00     0.192 HD
ENDROOT
BRANCH   1   5
HETATM    5  N   UNL     1     -40.997  59.560 -53.521  1.00  0.00    -0.184 NA
HETATM    6  C   UNL     1     -41.116  58.506 -52.762  1.00  0.00     0.153 C 
BRANCH   6   7
HETATM    7  C   UNL     1     -41.949  57.338 -53.009  1.00  0.00     0.018 A 
HETATM    8  C   UNL     1     -43.279  57.248 -52.623  1.00  0.00     0.018 A 
HETATM    9  C   UNL     1     -44.149  58.217 -51.906  1.00  0.00     0.069 C 
HETATM   10  N   UNL     1     -43.729  55.998 -52.961  1.00  0.00    -0.358 N 
HETATM   11  H   UNL     1     -44.653  55.638 -52.762  1.00  0.00     0.166 HD
HETATM   12  C   UNL     1     -42.753  55.293 -53.622  1.00  0.00     0.043 A 
HETATM   13  C   UNL     1     -41.632  56.119 -53.700  1.00  0.00     0.004 A 
HETATM   14  C   UNL     1     -42.785  53.998 -54.154  1.00  0.00     0.030 A 
HETATM   15  C   UNL     1     -40.500  55.634 -54.394  1.00  0.00     0.014 A 
HETATM   16  C   UNL     1     -40.513  54.343 -54.933  1.00  0.00     0.001 A 
HETATM   17  C   UNL     1     -41.640  53.535 -54.807  1.00  0.00     0.002 A 
ENDBRANCH   6   7
ENDBRANCH   1   5
BRANCH   2  18
HETATM   18  C   UNL     1     -43.065  60.062 -56.582  1.00  0.00     0.197 C 
BRANCH  18  19
HETATM   19  N   UNL     1     -42.042  59.322 -57.326  1.00  0.00    -0.283 NA
HETATM   20  H   UNL     1     -41.507  59.924 -57.957  1.00  0.00     0.128 HD
BRANCH  19  21
HETATM   21  C   UNL     1     -42.412  58.104 -57.919  1.00  0.00     0.030 A 
HETATM   22  C   UNL     1     -42.375  57.936 -59.319  1.00  0.00     0.055 A 
HETATM   23 CL   UNL     1     -41.970  59.261 -60.357  1.00  0.00    -0.082 Cl
HETATM   24  C   UNL     1     -42.694  56.710 -59.913  1.00  0.00     0.026 A 
HETATM   25  C   UNL     1     -43.034  55.618 -59.119  1.00  0.00     0.002 A 
HETATM   26  C   UNL     1     -43.046  55.752 -57.732  1.00  0.00     0.002 A 
HETATM   27  C   UNL     1     -42.730  56.980 -57.142  1.00  0.00     0.025 A 
ENDBRANCH  19  21
ENDBRANCH  18  19
ENDBRANCH   2  18
TORSDOF 5
ENDMDL
MODEL 10
REMARK VINA RESULT:      -6.5      2.980      5.051
REMARK  5 active torsions:
REMARK  status: ('A' for Active; 'I' for Inactive)
REMARK    1  A    between atoms: C_7  and  C_8 
REMARK    2  A    between atoms: N_9  and  N_10 
REMARK       I    between atoms: N_10  and  C_11 
REMARK    3  A    between atoms: C_11  and  C_12 
REMARK    4  A    between atoms: C_12  and  N_13 
REMARK    5  A    between atoms: N_13  and  C_14 
ROOT
HETATM    1  N   UNL     1     -42.009  55.799 -56.356  1.00  0.00    -0.246 N 
HETATM    2  C   UNL     1     -42.023  54.679 -55.512  1.00  0.00     0.250 C 
HETATM    3  O   UNL     1     -43.032  54.069 -55.163  1.00  0.00    -0.270 OA
HETATM    4  H   UNL     1     -41.333  56.518 -56.121  1.00  0.00     0.192 HD
ENDROOT
BRANCH   1   5
HETATM    5  N   UNL     1     -43.171  56.300 -56.883  1.00  0.00    -0.184 NA
HETATM    6  C   UNL     1     -43.511  57.524 -56.586  1.00  0.00     0.153 C 
BRANCH   6   7
HETATM    7  C   UNL     1     -42.912  58.377 -55.569  1.00  0.00     0.018 A 
HETATM    8  C   UNL     1     -42.237  59.555 -55.857  1.00  0.00     0.018 A 
HETATM    9  C   UNL     1     -41.947  60.215 -57.156  1.00  0.00     0.069 C 
HETATM   10  N   UNL     1     -41.761  60.063 -54.675  1.00  0.00    -0.358 N 
HETATM   11  H   UNL     1     -41.194  60.895 -54.585  1.00  0.00     0.166 HD
HETATM   12  C   UNL     1     -42.166  59.288 -53.616  1.00  0.00     0.043 A 
HETATM   13  C   UNL     1     -42.922  58.239 -54.139  1.00  0.00     0.004 A 
HETATM   14  C   UNL     1     -41.925  59.444 -52.245  1.00  0.00     0.030 A 
HETATM   15  C   UNL     1     -43.506  57.327 -53.231  1.00  0.00     0.014 A 
HETATM   16  C   UNL     1     -43.276  57.466 -51.857  1.00  0.00     0.001 A 
HETATM   17  C   UNL     1     -42.489  58.508 -51.375  1.00  0.00     0.002 A 
ENDBRANCH   6   7
ENDBRANCH   1   5
BRANCH   2  18
HETATM   18  C   UNL     1     -40.605  54.296 -55.067  1.00  0.00     0.197 C 
BRANCH  18  19
HETATM   19  N   UNL     1     -40.578  53.810 -53.685  1.00  0.00    -0.283 NA
HETATM   20  H   UNL     1     -40.092  54.454 -53.055  1.00  0.00     0.128 HD
BRANCH  19  21
HETATM   21  C   UNL     1     -40.229  52.468 -53.465  1.00  0.00     0.030 A 
HETATM   22  C   UNL     1     -39.826  52.019 -52.190  1.00  0.00     0.055 A 
HETATM   23 CL   UNL     1     -39.651  53.134 -50.878  1.00  0.00    -0.082 Cl
HETATM   24  C   UNL     1     -39.525  50.673 -51.954  1.00  0.00     0.026 A 
HETATM   25  C   UNL     1     -39.644  49.742 -52.982  1.00  0.00     0.002 A 
HETATM   26  C   UNL     1     -40.071  50.156 -54.241  1.00  0.00     0.002 A 
HETATM   27  C   UNL     1     -40.367  51.503 -54.475  1.00  0.00     0.025 A 
ENDBRANCH  19  21
ENDBRANCH  18  19
ENDBRANCH   2  18
TORSDOF 5
ENDMDL
