MODEL 1
REMARK VINA RESULT:      -8.7      0.000      0.000
REMARK  6 active torsions:
REMARK  status: ('A' for Active; 'I' for Inactive)
REMARK    1  A    between atoms: C_2  and  O_3 
REMARK    2  A    between atoms: O_3  and  C_4 
REMARK    3  A    between atoms: C_7  and  C_8 
REMARK    4  A    between atoms: C_8  and  C_9 
REMARK       I    between atoms: C_9  and  N_10 
REMARK    5  A    between atoms: N_13  and  C_14 
REMARK    6  A    between atoms: C_18  and  C_19 
ROOT
HETATM    1  C   UNL     1     -45.127  61.151 -50.016  1.00  0.00     0.224 C 
HETATM    2  N   UNL     1     -44.379  60.242 -50.755  1.00  0.00    -0.349 N 
HETATM    3  C   UNL     1     -45.031  58.984 -51.157  1.00  0.00     0.145 C 
HETATM    4  C   UNL     1     -44.480  58.423 -52.479  1.00  0.00     0.144 C 
HETATM    5  N   UNL     1     -43.008  58.334 -52.432  1.00  0.00    -0.363 N 
HETATM    6  C   UNL     1     -42.377  59.636 -52.149  1.00  0.00     0.144 C 
HETATM    7  C   UNL     1     -42.910  60.232 -50.829  1.00  0.00     0.145 C 
HETATM    8  O   UNL     1     -46.342  61.006 -49.851  1.00  0.00    -0.273 OA
ENDROOT
BRANCH   5   9
HETATM    9  C   UNL     1     -42.385  57.136 -52.223  1.00  0.00     0.122 A 
HETATM   10  N   UNL     1     -41.727  56.816 -51.063  1.00  0.00    -0.262 N 
HETATM   11  H   UNL     1     -41.611  57.391 -50.240  1.00  0.00     0.191 HD
HETATM   12  N   UNL     1     -41.155  55.604 -51.058  1.00  0.00    -0.173 NA
HETATM   13  C   UNL     1     -41.399  55.110 -52.282  1.00  0.00     0.090 A 
HETATM   14  C   UNL     1     -42.180  56.037 -53.032  1.00  0.00     0.084 A 
BRANCH  13  15
HETATM   15  C   UNL     1     -40.876  53.803 -52.702  1.00  0.00    -0.005 A 
HETATM   16  C   UNL     1     -40.164  53.000 -51.794  1.00  0.00     0.015 A 
HETATM   17  C   UNL     1     -39.639  51.762 -52.182  1.00  0.00     0.024 A 
HETATM   18  C   UNL     1     -39.822  51.314 -53.486  1.00  0.00     0.034 A 
HETATM   19 CL   UNL     1     -39.171  49.797 -53.971  1.00  0.00    -0.084 Cl
HETATM   20  C   UNL     1     -40.527  52.091 -54.402  1.00  0.00     0.024 A 
HETATM   21  C   UNL     1     -41.051  53.330 -54.012  1.00  0.00     0.015 A 
ENDBRANCH  13  15
ENDBRANCH   5   9
BRANCH   1  22
HETATM   22  C   UNL     1     -44.428  62.361 -49.414  1.00  0.00     0.141 C 
BRANCH  22  23
HETATM   23  C   UNL     1     -44.724  62.594 -47.950  1.00  0.00    -0.049 A 
HETATM   24  C   UNL     1     -44.841  61.523 -47.053  1.00  0.00     0.010 A 
HETATM   25  C   UNL     1     -45.041  61.748 -45.686  1.00  0.00     0.037 A 
HETATM   26  C   UNL     1     -45.108  63.049 -45.192  1.00  0.00     0.068 A 
HETATM   27  C   UNL     1     -45.003  64.120 -46.080  1.00  0.00     0.037 A 
HETATM   28  C   UNL     1     -44.802  63.899 -47.445  1.00  0.00     0.010 A 
BRANCH  26  29
HETATM   29  O   UNL     1     -45.274  63.402 -43.881  1.00  0.00    -0.352 OA
BRANCH  29  30
HETATM   30  C   UNL     1     -44.154  64.005 -43.233  1.00  0.00     0.171 C 
HETATM   31  C   UNL     1     -43.254  62.894 -42.722  1.00  0.00     0.034 C 
ENDBRANCH  29  30
ENDBRANCH  26  29
ENDBRANCH  22  23
ENDBRANCH   1  22
TORSDOF 6
ENDMDL
MODEL 2
REMARK VINA RESULT:      -8.2      4.425     10.478
REMARK  6 active torsions:
REMARK  status: ('A' for Active; 'I' for Inactive)
REMARK    1  A    between atoms: C_2  and  O_3 
REMARK    2  A    between atoms: O_3  and  C_4 
REMARK    3  A    between atoms: C_7  and  C_8 
REMARK    4  A    between atoms: C_8  and  C_9 
REMARK       I    between atoms: C_9  and  N_10 
REMARK    5  A    between atoms: N_13  and  C_14 
REMARK    6  A    between atoms: C_18  and  C_19 
ROOT
HETATM    1  C   UNL     1     -41.610  57.892 -53.415  1.00  0.00     0.224 C 
HETATM    2  N   UNL     1     -42.577  58.721 -52.859  1.00  0.00    -0.349 N 
HETATM    3  C   UNL     1     -42.131  59.986 -52.254  1.00  0.00     0.145 C 
HETATM    4  C   UNL     1     -43.193  61.095 -52.341  1.00  0.00     0.144 C 
HETATM    5  N   UNL     1     -44.487  60.617 -51.817  1.00  0.00    -0.363 N 
HETATM    6  C   UNL     1     -44.969  59.419 -52.526  1.00  0.00     0.144 C 
HETATM    7  C   UNL     1     -43.925  58.284 -52.464  1.00  0.00     0.145 C 
HETATM    8  O   UNL     1     -40.444  58.269 -53.565  1.00  0.00    -0.273 OA
ENDROOT
BRANCH   5   9
HETATM    9  C   UNL     1     -44.913  60.973 -50.569  1.00  0.00     0.122 A 
HETATM   10  N   UNL     1     -46.194  61.372 -50.289  1.00  0.00    -0.262 N 
HETATM   11  H   UNL     1     -46.968  61.459 -50.933  1.00  0.00     0.191 HD
HETATM   12  N   UNL     1     -46.412  61.708 -49.010  1.00  0.00    -0.173 NA
HETATM   13  C   UNL     1     -45.214  61.573 -48.418  1.00  0.00     0.090 A 
HETATM   14  C   UNL     1     -44.256  61.101 -49.361  1.00  0.00     0.084 A 
BRANCH  13  15
HETATM   15  C   UNL     1     -45.016  61.911 -47.001  1.00  0.00    -0.005 A 
HETATM   16  C   UNL     1     -45.184  63.235 -46.558  1.00  0.00     0.015 A 
HETATM   17  C   UNL     1     -44.978  63.579 -45.217  1.00  0.00     0.024 A 
HETATM   18  C   UNL     1     -44.600  62.600 -44.304  1.00  0.00     0.034 A 
HETATM   19 CL   UNL     1     -44.338  63.019 -42.657  1.00  0.00    -0.084 Cl
HETATM   20  C   UNL     1     -44.432  61.281 -44.720  1.00  0.00     0.024 A 
HETATM   21  C   UNL     1     -44.639  60.938 -46.062  1.00  0.00     0.015 A 
ENDBRANCH  13  15
ENDBRANCH   5   9
BRANCH   1  22
HETATM   22  C   UNL     1     -42.008  56.493 -53.864  1.00  0.00     0.141 C 
BRANCH  22  23
HETATM   23  C   UNL     1     -41.433  55.376 -53.023  1.00  0.00    -0.049 A 
HETATM   24  C   UNL     1     -41.394  55.465 -51.624  1.00  0.00     0.010 A 
HETATM   25  C   UNL     1     -40.929  54.397 -50.848  1.00  0.00     0.037 A 
HETATM   26  C   UNL     1     -40.514  53.215 -51.459  1.00  0.00     0.068 A 
HETATM   27  C   UNL     1     -40.540  53.123 -52.851  1.00  0.00     0.037 A 
HETATM   28  C   UNL     1     -41.005  54.187 -53.629  1.00  0.00     0.010 A 
BRANCH  26  29
HETATM   29  O   UNL     1     -40.065  52.094 -50.816  1.00  0.00    -0.352 OA
BRANCH  29  30
HETATM   30  C   UNL     1     -39.502  51.068 -51.634  1.00  0.00     0.171 C 
HETATM   31  C   UNL     1     -39.547  49.768 -50.852  1.00  0.00     0.034 C 
ENDBRANCH  29  30
ENDBRANCH  26  29
ENDBRANCH  22  23
ENDBRANCH   1  22
TORSDOF 6
ENDMDL
MODEL 3
REMARK VINA RESULT:      -8.1      5.376      8.884
REMARK  6 active torsions:
REMARK  status: ('A' for Active; 'I' for Inactive)
REMARK    1  A    between atoms: C_2  and  O_3 
REMARK    2  A    between atoms: O_3  and  C_4 
REMARK    3  A    between atoms: C_7  and  C_8 
REMARK    4  A    between atoms: C_8  and  C_9 
REMARK       I    between atoms: C_9  and  N_10 
REMARK    5  A    between atoms: N_13  and  C_14 
REMARK    6  A    between atoms: C_18  and  C_19 
ROOT
HETATM    1  C   UNL     1     -44.345  60.268 -55.894  1.00  0.00     0.224 C 
HETATM    2  N   UNL     1     -43.987  59.481 -54.806  1.00  0.00    -0.349 N 
HETATM    3  C   UNL     1     -42.594  59.552 -54.337  1.00  0.00     0.145 C 
HETATM    4  C   UNL     1     -42.459  59.289 -52.828  1.00  0.00     0.144 C 
HETATM    5  N   UNL     1     -43.142  58.034 -52.456  1.00  0.00    -0.363 N 
HETATM    6  C   UNL     1     -44.568  58.042 -52.828  1.00  0.00     0.144 C 
HETATM    7  C   UNL     1     -44.742  58.308 -54.338  1.00  0.00     0.145 C 
HETATM    8  O   UNL     1     -43.585  61.129 -56.347  1.00  0.00    -0.273 OA
ENDROOT
BRANCH   5   9
HETATM    9  C   UNL     1     -42.431  56.889 -52.230  1.00  0.00     0.122 A 
HETATM   10  N   UNL     1     -41.648  56.689 -51.122  1.00  0.00    -0.262 N 
HETATM   11  H   UNL     1     -41.489  57.328 -50.355  1.00  0.00     0.191 HD
HETATM   12  N   UNL     1     -41.006  55.513 -51.093  1.00  0.00    -0.173 NA
HETATM   13  C   UNL     1     -41.336  54.920 -52.251  1.00  0.00     0.090 A 
HETATM   14  C   UNL     1     -42.239  55.747 -52.981  1.00  0.00     0.084 A 
BRANCH  13  15
HETATM   15  C   UNL     1     -40.777  53.615 -52.632  1.00  0.00    -0.005 A 
HETATM   16  C   UNL     1     -40.913  53.142 -53.949  1.00  0.00     0.015 A 
HETATM   17  C   UNL     1     -40.407  51.893 -54.324  1.00  0.00     0.024 A 
HETATM   18  C   UNL     1     -39.758  51.101 -53.382  1.00  0.00     0.034 A 
HETATM   19 CL   UNL     1     -39.141  49.561 -53.835  1.00  0.00    -0.084 Cl
HETATM   20  C   UNL     1     -39.608  51.550 -52.072  1.00  0.00     0.024 A 
HETATM   21  C   UNL     1     -40.115  52.802 -51.699  1.00  0.00     0.015 A 
ENDBRANCH  13  15
ENDBRANCH   5   9
BRANCH   1  22
HETATM   22  C   UNL     1     -45.713  60.068 -56.529  1.00  0.00     0.141 C 
BRANCH  22  23
HETATM   23  C   UNL     1     -45.749  59.040 -57.637  1.00  0.00    -0.049 A 
HETATM   24  C   UNL     1     -44.589  58.692 -58.343  1.00  0.00     0.010 A 
HETATM   25  C   UNL     1     -44.614  57.685 -59.315  1.00  0.00     0.037 A 
HETATM   26  C   UNL     1     -45.796  56.998 -59.584  1.00  0.00     0.068 A 
HETATM   27  C   UNL     1     -46.957  57.346 -58.892  1.00  0.00     0.037 A 
HETATM   28  C   UNL     1     -46.935  58.349 -57.919  1.00  0.00     0.010 A 
BRANCH  26  29
HETATM   29  O   UNL     1     -45.947  55.982 -60.486  1.00  0.00    -0.352 OA
BRANCH  29  30
HETATM   30  C   UNL     1     -44.787  55.200 -60.772  1.00  0.00     0.171 C 
HETATM   31  C   UNL     1     -44.702  54.092 -59.738  1.00  0.00     0.034 C 
ENDBRANCH  29  30
ENDBRANCH  26  29
ENDBRANCH  22  23
ENDBRANCH   1  22
TORSDOF 6
ENDMDL
MODEL 4
REMARK VINA RESULT:      -8.1      6.032     10.045
REMARK  6 active torsions:
REMARK  status: ('A' for Active; 'I' for Inactive)
REMARK    1  A    between atoms: C_2  and  O_3 
REMARK    2  A    between atoms: O_3  and  C_4 
REMARK    3  A    between atoms: C_7  and  C_8 
REMARK    4  A    between atoms: C_8  and  C_9 
REMARK       I    between atoms: C_9  and  N_10 
REMARK    5  A    between atoms: N_13  and  C_14 
REMARK    6  A    between atoms: C_18  and  C_19 
ROOT
HETATM    1  C   UNL     1     -42.879  56.624 -51.238  1.00  0.00     0.224 C 
HETATM    2  N   UNL     1     -42.711  57.587 -52.226  1.00  0.00    -0.349 N 
HETATM    3  C   UNL     1     -43.845  57.850 -53.127  1.00  0.00     0.145 C 
HETATM    4  C   UNL     1     -43.874  59.299 -53.641  1.00  0.00     0.144 C 
HETATM    5  N   UNL     1     -42.567  59.673 -54.215  1.00  0.00    -0.363 N 
HETATM    6  C   UNL     1     -41.465  59.516 -53.248  1.00  0.00     0.144 C 
HETATM    7  C   UNL     1     -41.408  58.072 -52.707  1.00  0.00     0.145 C 
HETATM    8  O   UNL     1     -43.985  56.129 -50.998  1.00  0.00    -0.273 OA
ENDROOT
BRANCH   5   9
HETATM    9  C   UNL     1     -42.379  59.707 -55.568  1.00  0.00     0.122 A 
HETATM   10  N   UNL     1     -42.372  58.589 -56.360  1.00  0.00    -0.262 N 
HETATM   11  H   UNL     1     -42.494  57.628 -56.073  1.00  0.00     0.191 HD
HETATM   12  N   UNL     1     -42.145  58.823 -57.660  1.00  0.00    -0.173 NA
HETATM   13  C   UNL     1     -41.945  60.149 -57.734  1.00  0.00     0.090 A 
HETATM   14  C   UNL     1     -42.099  60.736 -56.445  1.00  0.00     0.084 A 
BRANCH  13  15
HETATM   15  C   UNL     1     -41.600  60.803 -59.004  1.00  0.00    -0.005 A 
HETATM   16  C   UNL     1     -40.821  61.973 -59.011  1.00  0.00     0.015 A 
HETATM   17  C   UNL     1     -40.502  62.623 -60.208  1.00  0.00     0.024 A 
HETATM   18  C   UNL     1     -40.961  62.106 -61.415  1.00  0.00     0.034 A 
HETATM   19 CL   UNL     1     -40.578  62.905 -62.890  1.00  0.00    -0.084 Cl
HETATM   20  C   UNL     1     -41.731  60.946 -61.435  1.00  0.00     0.024 A 
HETATM   21  C   UNL     1     -42.050  60.298 -60.235  1.00  0.00     0.015 A 
ENDBRANCH  13  15
ENDBRANCH   5   9
BRANCH   1  22
HETATM   22  C   UNL     1     -41.670  56.184 -50.425  1.00  0.00     0.141 C 
BRANCH  22  23
HETATM   23  C   UNL     1     -41.074  54.861 -50.849  1.00  0.00    -0.049 A 
HETATM   24  C   UNL     1     -40.654  53.916 -49.903  1.00  0.00     0.010 A 
HETATM   25  C   UNL     1     -40.173  52.663 -50.302  1.00  0.00     0.037 A 
HETATM   26  C   UNL     1     -40.121  52.330 -51.653  1.00  0.00     0.068 A 
HETATM   27  C   UNL     1     -40.528  53.269 -52.602  1.00  0.00     0.037 A 
HETATM   28  C   UNL     1     -41.010  54.520 -52.207  1.00  0.00     0.010 A 
BRANCH  26  29
HETATM   29  O   UNL     1     -39.698  51.136 -52.170  1.00  0.00    -0.352 OA
BRANCH  29  30
HETATM   30  C   UNL     1     -39.359  51.123 -53.557  1.00  0.00     0.171 C 
HETATM   31  C   UNL     1     -40.130  49.994 -54.218  1.00  0.00     0.034 C 
ENDBRANCH  29  30
ENDBRANCH  26  29
ENDBRANCH  22  23
ENDBRANCH   1  22
TORSDOF 6
ENDMDL
MODEL 5
REMARK VINA RESULT:      -8.1     19.914     22.750
REMARK  6 active torsions:
REMARK  status: ('A' for Active; 'I' for Inactive)
REMARK    1  A    between atoms: C_2  and  O_3 
REMARK    2  A    between atoms: O_3  and  C_4 
REMARK    3  A    between atoms: C_7  and  C_8 
REMARK    4  A    between atoms: C_8  and  C_9 
REMARK       I    between atoms: C_9  and  N_10 
REMARK    5  A    between atoms: N_13  and  C_14 
REMARK    6  A    between atoms: C_18  and  C_19 
ROOT
HETATM    1  C   UNL     1     -35.588  41.873 -55.253  1.00  0.00     0.224 C 
HETATM    2  N   UNL     1     -35.026  41.052 -54.282  1.00  0.00    -0.349 N 
HETATM    3  C   UNL     1     -35.544  41.162 -52.908  1.00  0.00     0.145 C 
HETATM    4  C   UNL     1     -35.445  39.841 -52.126  1.00  0.00     0.144 C 
HETATM    5  N   UNL     1     -34.075  39.297 -52.198  1.00  0.00    -0.363 N 
HETATM    6  C   UNL     1     -33.629  39.081 -53.586  1.00  0.00     0.144 C 
HETATM    7  C   UNL     1     -33.720  40.387 -54.403  1.00  0.00     0.145 C 
HETATM    8  O   UNL     1     -36.601  42.542 -55.027  1.00  0.00    -0.273 OA
ENDROOT
BRANCH   5   9
HETATM    9  C   UNL     1     -33.214  39.425 -51.144  1.00  0.00     0.122 A 
HETATM   10  N   UNL     1     -31.914  39.841 -51.274  1.00  0.00    -0.262 N 
HETATM   11  H   UNL     1     -31.428  40.094 -52.123  1.00  0.00     0.191 HD
HETATM   12  N   UNL     1     -31.219  39.876 -50.129  1.00  0.00    -0.173 NA
HETATM   13  C   UNL     1     -32.075  39.421 -49.200  1.00  0.00     0.090 A 
HETATM   14  C   UNL     1     -33.338  39.144 -49.799  1.00  0.00     0.084 A 
BRANCH  13  15
HETATM   15  C   UNL     1     -31.667  39.249 -47.798  1.00  0.00    -0.005 A 
HETATM   16  C   UNL     1     -32.295  38.285 -46.991  1.00  0.00     0.015 A 
HETATM   17  C   UNL     1     -31.936  38.122 -45.648  1.00  0.00     0.024 A 
HETATM   18  C   UNL     1     -30.941  38.925 -45.099  1.00  0.00     0.034 A 
HETATM   19 CL   UNL     1     -30.501  38.735 -43.447  1.00  0.00    -0.084 Cl
HETATM   20  C   UNL     1     -30.302  39.884 -45.881  1.00  0.00     0.024 A 
HETATM   21  C   UNL     1     -30.664  40.045 -47.224  1.00  0.00     0.015 A 
ENDBRANCH  13  15
ENDBRANCH   5   9
BRANCH   1  22
HETATM   22  C   UNL     1     -34.943  41.931 -56.630  1.00  0.00     0.141 C 
BRANCH  22  23
HETATM   23  C   UNL     1     -35.787  41.354 -57.744  1.00  0.00    -0.049 A 
HETATM   24  C   UNL     1     -36.643  42.165 -58.502  1.00  0.00     0.010 A 
HETATM   25  C   UNL     1     -37.365  41.638 -59.580  1.00  0.00     0.037 A 
HETATM   26  C   UNL     1     -37.227  40.296 -59.928  1.00  0.00     0.068 A 
HETATM   27  C   UNL     1     -36.384  39.480 -59.171  1.00  0.00     0.037 A 
HETATM   28  C   UNL     1     -35.661  40.003 -58.095  1.00  0.00     0.010 A 
BRANCH  26  29
HETATM   29  O   UNL     1     -37.853  39.668 -60.969  1.00  0.00    -0.352 OA
BRANCH  29  30
HETATM   30  C   UNL     1     -37.148  38.589 -61.584  1.00  0.00     0.171 C 
HETATM   31  C   UNL     1     -37.266  38.749 -63.089  1.00  0.00     0.034 C 
ENDBRANCH  29  30
ENDBRANCH  26  29
ENDBRANCH  22  23
ENDBRANCH   1  22
TORSDOF 6
ENDMDL
MODEL 6
REMARK VINA RESULT:      -7.7     19.570     21.602
REMARK  6 active torsions:
REMARK  status: ('A' for Active; 'I' for Inactive)
REMARK    1  A    between atoms: C_2  and  O_3 
REMARK    2  A    between atoms: O_3  and  C_4 
REMARK    3  A    between atoms: C_7  and  C_8 
REMARK    4  A    between atoms: C_8  and  C_9 
REMARK       I    between atoms: C_9  and  N_10 
REMARK    5  A    between atoms: N_13  and  C_14 
REMARK    6  A    between atoms: C_18  and  C_19 
ROOT
HETATM    1  C   UNL     1     -36.077  39.835 -51.704  1.00  0.00     0.224 C 
HETATM    2  N   UNL     1     -35.821  40.212 -53.016  1.00  0.00    -0.349 N 
HETATM    3  C   UNL     1     -36.674  41.255 -53.610  1.00  0.00     0.145 C 
HETATM    4  C   UNL     1     -35.942  42.091 -54.672  1.00  0.00     0.144 C 
HETATM    5  N   UNL     1     -35.302  41.215 -55.673  1.00  0.00    -0.363 N 
HETATM    6  C   UNL     1     -34.358  40.263 -55.061  1.00  0.00     0.144 C 
HETATM    7  C   UNL     1     -35.058  39.407 -53.984  1.00  0.00     0.145 C 
HETATM    8  O   UNL     1     -36.866  40.464 -50.993  1.00  0.00    -0.273 OA
ENDROOT
BRANCH   5   9
HETATM    9  C   UNL     1     -35.865  41.028 -56.903  1.00  0.00     0.122 A 
HETATM   10  N   UNL     1     -36.027  42.032 -57.823  1.00  0.00    -0.262 N 
HETATM   11  H   UNL     1     -35.770  43.005 -57.728  1.00  0.00     0.191 HD
HETATM   12  N   UNL     1     -36.626  41.658 -58.962  1.00  0.00    -0.173 NA
HETATM   13  C   UNL     1     -36.920  40.361 -58.780  1.00  0.00     0.090 A 
HETATM   14  C   UNL     1     -36.444  39.930 -57.507  1.00  0.00     0.084 A 
BRANCH  13  15
HETATM   15  C   UNL     1     -37.648  39.588 -59.795  1.00  0.00    -0.005 A 
HETATM   16  C   UNL     1     -37.156  39.501 -61.109  1.00  0.00     0.015 A 
HETATM   17  C   UNL     1     -37.848  38.788 -62.094  1.00  0.00     0.024 A 
HETATM   18  C   UNL     1     -39.044  38.154 -61.774  1.00  0.00     0.034 A 
HETATM   19 CL   UNL     1     -39.903  37.283 -62.984  1.00  0.00    -0.084 Cl
HETATM   20  C   UNL     1     -39.549  38.222 -60.478  1.00  0.00     0.024 A 
HETATM   21  C   UNL     1     -38.855  38.936 -59.493  1.00  0.00     0.015 A 
ENDBRANCH  13  15
ENDBRANCH   5   9
BRANCH   1  22
HETATM   22  C   UNL     1     -35.352  38.626 -51.130  1.00  0.00     0.141 C 
BRANCH  22  23
HETATM   23  C   UNL     1     -34.168  38.962 -50.252  1.00  0.00    -0.049 A 
HETATM   24  C   UNL     1     -34.012  38.376 -48.987  1.00  0.00     0.010 A 
HETATM   25  C   UNL     1     -32.876  38.634 -48.210  1.00  0.00     0.037 A 
HETATM   26  C   UNL     1     -31.870  39.466 -48.694  1.00  0.00     0.068 A 
HETATM   27  C   UNL     1     -32.022  40.060 -49.948  1.00  0.00     0.037 A 
HETATM   28  C   UNL     1     -33.154  39.804 -50.727  1.00  0.00     0.010 A 
BRANCH  26  29
HETATM   29  O   UNL     1     -30.705  39.776 -48.049  1.00  0.00    -0.352 OA
BRANCH  29  30
HETATM   30  C   UNL     1     -30.697  39.622 -46.629  1.00  0.00     0.171 C 
HETATM   31  C   UNL     1     -29.799  40.697 -46.045  1.00  0.00     0.034 C 
ENDBRANCH  29  30
ENDBRANCH  26  29
ENDBRANCH  22  23
ENDBRANCH   1  22
TORSDOF 6
ENDMDL
MODEL 7
REMARK VINA RESULT:      -7.6      8.029     11.258
REMARK  6 active torsions:
REMARK  status: ('A' for Active; 'I' for Inactive)
REMARK    1  A    between atoms: C_2  and  O_3 
REMARK    2  A    between atoms: O_3  and  C_4 
REMARK    3  A    between atoms: C_7  and  C_8 
REMARK    4  A    between atoms: C_8  and  C_9 
REMARK       I    between atoms: C_9  and  N_10 
REMARK    5  A    between atoms: N_13  and  C_14 
REMARK    6  A    between atoms: C_18  and  C_19 
ROOT
HETATM    1  C   UNL     1     -43.238  55.331 -55.599  1.00  0.00     0.224 C 
HETATM    2  N   UNL     1     -43.235  56.617 -56.127  1.00  0.00    -0.349 N 
HETATM    3  C   UNL     1     -43.035  56.761 -57.578  1.00  0.00     0.145 C 
HETATM    4  C   UNL     1     -43.736  58.002 -58.156  1.00  0.00     0.144 C 
HETATM    5  N   UNL     1     -43.372  59.209 -57.388  1.00  0.00    -0.363 N 
HETATM    6  C   UNL     1     -43.699  59.082 -55.957  1.00  0.00     0.144 C 
HETATM    7  C   UNL     1     -43.015  57.842 -55.343  1.00  0.00     0.145 C 
HETATM    8  O   UNL     1     -43.253  54.334 -56.326  1.00  0.00    -0.273 OA
ENDROOT
BRANCH   5   9
HETATM    9  C   UNL     1     -42.454  60.098 -57.873  1.00  0.00     0.122 A 
HETATM   10  N   UNL     1     -41.663  60.882 -57.074  1.00  0.00    -0.262 N 
HETATM   11  H   UNL     1     -41.648  60.917 -56.064  1.00  0.00     0.191 HD
HETATM   12  N   UNL     1     -40.844  61.711 -57.735  1.00  0.00    -0.173 NA
HETATM   13  C   UNL     1     -41.132  61.508 -59.031  1.00  0.00     0.090 A 
HETATM   14  C   UNL     1     -42.125  60.493 -59.154  1.00  0.00     0.084 A 
BRANCH  13  15
HETATM   15  C   UNL     1     -40.478  62.285 -60.094  1.00  0.00    -0.005 A 
HETATM   16  C   UNL     1     -39.440  63.179 -59.782  1.00  0.00     0.015 A 
HETATM   17  C   UNL     1     -38.822  63.944 -60.778  1.00  0.00     0.024 A 
HETATM   18  C   UNL     1     -39.238  63.820 -62.099  1.00  0.00     0.034 A 
HETATM   19 CL   UNL     1     -38.488  64.763 -63.327  1.00  0.00    -0.084 Cl
HETATM   20  C   UNL     1     -40.263  62.937 -62.433  1.00  0.00     0.024 A 
HETATM   21  C   UNL     1     -40.880  62.173 -61.434  1.00  0.00     0.015 A 
ENDBRANCH  13  15
ENDBRANCH   5   9
BRANCH   1  22
HETATM   22  C   UNL     1     -43.239  55.156 -54.087  1.00  0.00     0.141 C 
BRANCH  22  23
HETATM   23  C   UNL     1     -42.201  54.188 -53.566  1.00  0.00    -0.049 A 
HETATM   24  C   UNL     1     -41.397  53.444 -54.441  1.00  0.00     0.010 A 
HETATM   25  C   UNL     1     -40.388  52.605 -53.953  1.00  0.00     0.037 A 
HETATM   26  C   UNL     1     -40.155  52.512 -52.582  1.00  0.00     0.068 A 
HETATM   27  C   UNL     1     -40.957  53.242 -51.705  1.00  0.00     0.037 A 
HETATM   28  C   UNL     1     -41.965  54.082 -52.189  1.00  0.00     0.010 A 
BRANCH  26  29
HETATM   29  O   UNL     1     -39.188  51.754 -51.982  1.00  0.00    -0.352 OA
BRANCH  29  30
HETATM   30  C   UNL     1     -39.636  50.730 -51.094  1.00  0.00     0.171 C 
HETATM   31  C   UNL     1     -39.577  49.406 -51.835  1.00  0.00     0.034 C 
ENDBRANCH  29  30
ENDBRANCH  26  29
ENDBRANCH  22  23
ENDBRANCH   1  22
TORSDOF 6
ENDMDL
MODEL 8
REMARK VINA RESULT:      -7.5     19.121     21.414
REMARK  6 active torsions:
REMARK  status: ('A' for Active; 'I' for Inactive)
REMARK    1  A    between atoms: C_2  and  O_3 
REMARK    2  A    between atoms: O_3  and  C_4 
REMARK    3  A    between atoms: C_7  and  C_8 
REMARK    4  A    between atoms: C_8  and  C_9 
REMARK       I    between atoms: C_9  and  N_10 
REMARK    5  A    between atoms: N_13  and  C_14 
REMARK    6  A    between atoms: C_18  and  C_19 
ROOT
HETATM    1  C   UNL     1     -35.646  39.345 -50.074  1.00  0.00     0.224 C 
HETATM    2  N   UNL     1     -35.477  39.993 -51.292  1.00  0.00    -0.349 N 
HETATM    3  C   UNL     1     -36.485  40.994 -51.682  1.00  0.00     0.145 C 
HETATM    4  C   UNL     1     -35.905  42.111 -52.565  1.00  0.00     0.144 C 
HETATM    5  N   UNL     1     -35.170  41.539 -53.710  1.00  0.00    -0.363 N 
HETATM    6  C   UNL     1     -34.086  40.636 -53.284  1.00  0.00     0.144 C 
HETATM    7  C   UNL     1     -34.631  39.502 -52.390  1.00  0.00     0.145 C 
HETATM    8  O   UNL     1     -36.500  39.710 -49.261  1.00  0.00    -0.273 OA
ENDROOT
BRANCH   5   9
HETATM    9  C   UNL     1     -35.730  41.505 -54.956  1.00  0.00     0.122 A 
HETATM   10  N   UNL     1     -36.806  42.270 -55.325  1.00  0.00    -0.262 N 
HETATM   11  H   UNL     1     -37.317  42.932 -54.757  1.00  0.00     0.191 HD
HETATM   12  N   UNL     1     -37.229  42.076 -56.581  1.00  0.00    -0.173 NA
HETATM   13  C   UNL     1     -36.432  41.107 -57.060  1.00  0.00     0.090 A 
HETATM   14  C   UNL     1     -35.472  40.737 -56.074  1.00  0.00     0.084 A 
BRANCH  13  15
HETATM   15  C   UNL     1     -36.617  40.558 -58.411  1.00  0.00    -0.005 A 
HETATM   16  C   UNL     1     -37.290  41.304 -59.393  1.00  0.00     0.015 A 
HETATM   17  C   UNL     1     -37.495  40.789 -60.678  1.00  0.00     0.024 A 
HETATM   18  C   UNL     1     -37.027  39.517 -60.993  1.00  0.00     0.034 A 
HETATM   19 CL   UNL     1     -37.283  38.875 -62.568  1.00  0.00    -0.084 Cl
HETATM   20  C   UNL     1     -36.353  38.761 -60.037  1.00  0.00     0.024 A 
HETATM   21  C   UNL     1     -36.149  39.279 -58.752  1.00  0.00     0.015 A 
ENDBRANCH  13  15
ENDBRANCH   5   9
BRANCH   1  22
HETATM   22  C   UNL     1     -34.743  38.168 -49.735  1.00  0.00     0.141 C 
BRANCH  22  23
HETATM   23  C   UNL     1     -33.602  38.501 -48.800  1.00  0.00    -0.049 A 
HETATM   24  C   UNL     1     -33.435  37.817 -47.587  1.00  0.00     0.010 A 
HETATM   25  C   UNL     1     -32.335  38.077 -46.761  1.00  0.00     0.037 A 
HETATM   26  C   UNL     1     -31.376  39.013 -47.143  1.00  0.00     0.068 A 
HETATM   27  C   UNL     1     -31.542  39.704 -48.344  1.00  0.00     0.037 A 
HETATM   28  C   UNL     1     -32.638  39.446 -49.172  1.00  0.00     0.010 A 
BRANCH  26  29
HETATM   29  O   UNL     1     -30.248  39.339 -46.442  1.00  0.00    -0.352 OA
BRANCH  29  30
HETATM   30  C   UNL     1     -30.074  40.717 -46.114  1.00  0.00     0.171 C 
HETATM   31  C   UNL     1     -29.907  40.823 -44.608  1.00  0.00     0.034 C 
ENDBRANCH  29  30
ENDBRANCH  26  29
ENDBRANCH  22  23
ENDBRANCH   1  22
TORSDOF 6
ENDMDL
MODEL 9
REMARK VINA RESULT:      -7.5      4.821     11.010
REMARK  6 active torsions:
REMARK  status: ('A' for Active; 'I' for Inactive)
REMARK    1  A    between atoms: C_2  and  O_3 
REMARK    2  A    between atoms: O_3  and  C_4 
REMARK    3  A    between atoms: C_7  and  C_8 
REMARK    4  A    between atoms: C_8  and  C_9 
REMARK       I    between atoms: C_9  and  N_10 
REMARK    5  A    between atoms: N_13  and  C_14 
REMARK    6  A    between atoms: C_18  and  C_19 
ROOT
HETATM    1  C   UNL     1     -42.143  56.271 -54.219  1.00  0.00     0.224 C 
HETATM    2  N   UNL     1     -42.898  57.302 -53.672  1.00  0.00    -0.349 N 
HETATM    3  C   UNL     1     -42.291  58.643 -53.620  1.00  0.00     0.145 C 
HETATM    4  C   UNL     1     -43.332  59.771 -53.713  1.00  0.00     0.144 C 
HETATM    5  N   UNL     1     -44.405  59.571 -52.718  1.00  0.00    -0.363 N 
HETATM    6  C   UNL     1     -45.076  58.269 -52.874  1.00  0.00     0.144 C 
HETATM    7  C   UNL     1     -44.060  57.111 -52.791  1.00  0.00     0.145 C 
HETATM    8  O   UNL     1     -41.079  56.490 -54.805  1.00  0.00    -0.273 OA
ENDROOT
BRANCH   5   9
HETATM    9  C   UNL     1     -44.431  60.296 -51.560  1.00  0.00     0.122 A 
HETATM   10  N   UNL     1     -43.304  60.668 -50.873  1.00  0.00    -0.262 N 
HETATM   11  H   UNL     1     -42.342  60.467 -51.109  1.00  0.00     0.191 HD
HETATM   12  N   UNL     1     -43.535  61.352 -49.744  1.00  0.00    -0.173 NA
HETATM   13  C   UNL     1     -44.873  61.400 -49.646  1.00  0.00     0.090 A 
HETATM   14  C   UNL     1     -45.466  60.762 -50.774  1.00  0.00     0.084 A 
BRANCH  13  15
HETATM   15  C   UNL     1     -45.537  62.023 -48.492  1.00  0.00    -0.005 A 
HETATM   16  C   UNL     1     -45.141  61.696 -47.184  1.00  0.00     0.015 A 
HETATM   17  C   UNL     1     -45.777  62.263 -46.074  1.00  0.00     0.024 A 
HETATM   18  C   UNL     1     -46.819  63.165 -46.262  1.00  0.00     0.034 A 
HETATM   19 CL   UNL     1     -47.609  63.858 -44.901  1.00  0.00    -0.084 Cl
HETATM   20  C   UNL     1     -47.226  63.507 -47.549  1.00  0.00     0.024 A 
HETATM   21  C   UNL     1     -46.588  62.939 -48.659  1.00  0.00     0.015 A 
ENDBRANCH  13  15
ENDBRANCH   5   9
BRANCH   1  22
HETATM   22  C   UNL     1     -42.655  54.843 -54.104  1.00  0.00     0.141 C 
BRANCH  22  23
HETATM   23  C   UNL     1     -41.624  53.841 -53.636  1.00  0.00    -0.049 A 
HETATM   24  C   UNL     1     -41.091  53.897 -52.340  1.00  0.00     0.010 A 
HETATM   25  C   UNL     1     -40.193  52.923 -51.889  1.00  0.00     0.037 A 
HETATM   26  C   UNL     1     -39.828  51.867 -52.721  1.00  0.00     0.068 A 
HETATM   27  C   UNL     1     -40.346  51.809 -54.015  1.00  0.00     0.037 A 
HETATM   28  C   UNL     1     -41.244  52.780 -54.469  1.00  0.00     0.010 A 
BRANCH  26  29
HETATM   29  O   UNL     1     -38.984  50.842 -52.393  1.00  0.00    -0.352 OA
BRANCH  29  30
HETATM   30  C   UNL     1     -39.590  49.590 -52.071  1.00  0.00     0.171 C 
HETATM   31  C   UNL     1     -39.912  49.593 -50.587  1.00  0.00     0.034 C 
ENDBRANCH  29  30
ENDBRANCH  26  29
ENDBRANCH  22  23
ENDBRANCH   1  22
TORSDOF 6
ENDMDL
MODEL 10
REMARK VINA RESULT:      -7.4     19.281     22.549
REMARK  6 active torsions:
REMARK  status: ('A' for Active; 'I' for Inactive)
REMARK    1  A    between atoms: C_2  and  O_3 
REMARK    2  A    between atoms: O_3  and  C_4 
REMARK    3  A    between atoms: C_7  and  C_8 
REMARK    4  A    between atoms: C_8  and  C_9 
REMARK       I    between atoms: C_9  and  N_10 
REMARK    5  A    between atoms: N_13  and  C_14 
REMARK    6  A    between atoms: C_18  and  C_19 
ROOT
HETATM    1  C   UNL     1     -36.867  41.694 -56.562  1.00  0.00     0.224 C 
HETATM    2  N   UNL     1     -36.676  41.546 -55.193  1.00  0.00    -0.349 N 
HETATM    3  C   UNL     1     -35.359  41.907 -54.642  1.00  0.00     0.145 C 
HETATM    4  C   UNL     1     -35.438  42.407 -53.190  1.00  0.00     0.144 C 
HETATM    5  N   UNL     1     -36.186  41.451 -52.350  1.00  0.00    -0.363 N 
HETATM    6  C   UNL     1     -37.546  41.204 -52.860  1.00  0.00     0.144 C 
HETATM    7  C   UNL     1     -37.507  40.704 -54.319  1.00  0.00     0.145 C 
HETATM    8  O   UNL     1     -36.038  42.271 -57.272  1.00  0.00    -0.273 OA
ENDROOT
BRANCH   5   9
HETATM    9  C   UNL     1     -35.531  40.595 -51.511  1.00  0.00     0.122 A 
HETATM   10  N   UNL     1     -35.915  39.295 -51.303  1.00  0.00    -0.262 N 
HETATM   11  H   UNL     1     -36.699  38.809 -51.716  1.00  0.00     0.191 HD
HETATM   12  N   UNL     1     -35.164  38.621 -50.422  1.00  0.00    -0.173 NA
HETATM   13  C   UNL     1     -34.267  39.520 -49.986  1.00  0.00     0.090 A 
HETATM   14  C   UNL     1     -34.459  40.762 -50.658  1.00  0.00     0.084 A 
BRANCH  13  15
HETATM   15  C   UNL     1     -33.284  39.183 -48.947  1.00  0.00    -0.005 A 
HETATM   16  C   UNL     1     -33.556  38.164 -48.017  1.00  0.00     0.015 A 
HETATM   17  C   UNL     1     -32.642  37.844 -47.007  1.00  0.00     0.024 A 
HETATM   18  C   UNL     1     -31.442  38.543 -46.917  1.00  0.00     0.034 A 
HETATM   19 CL   UNL     1     -30.318  38.160 -45.673  1.00  0.00    -0.084 Cl
HETATM   20  C   UNL     1     -31.149  39.554 -47.829  1.00  0.00     0.024 A 
HETATM   21  C   UNL     1     -32.066  39.872 -48.839  1.00  0.00     0.015 A 
ENDBRANCH  13  15
ENDBRANCH   5   9
BRANCH   1  22
HETATM   22  C   UNL     1     -38.138  41.143 -57.191  1.00  0.00     0.141 C 
BRANCH  22  23
HETATM   23  C   UNL     1     -37.909  40.233 -58.377  1.00  0.00    -0.049 A 
HETATM   24  C   UNL     1     -38.076  38.845 -58.271  1.00  0.00     0.010 A 
HETATM   25  C   UNL     1     -37.935  38.016 -59.391  1.00  0.00     0.037 A 
HETATM   26  C   UNL     1     -37.644  38.565 -60.638  1.00  0.00     0.068 A 
HETATM   27  C   UNL     1     -37.467  39.945 -60.749  1.00  0.00     0.037 A 
HETATM   28  C   UNL     1     -37.608  40.776 -59.634  1.00  0.00     0.010 A 
BRANCH  26  29
HETATM   29  O   UNL     1     -37.507  37.872 -61.808  1.00  0.00    -0.352 OA
BRANCH  29  30
HETATM   30  C   UNL     1     -37.417  38.645 -63.005  1.00  0.00     0.171 C 
HETATM   31  C   UNL     1     -36.601  37.856 -64.013  1.00  0.00     0.034 C 
ENDBRANCH  29  30
ENDBRANCH  26  29
ENDBRANCH  22  23
ENDBRANCH   1  22
TORSDOF 6
ENDMDL
