MODEL 1
REMARK VINA RESULT:      -8.7      0.000      0.000
REMARK  7 active torsions:
REMARK  status: ('A' for Active; 'I' for Inactive)
REMARK    1  A    between atoms: N_7  and  C_8 
REMARK    2  A    between atoms: C_8  and  C_9 
REMARK       I    between atoms: C_9  and  N_10 
REMARK    3  A    between atoms: N_10  and  C_11 
REMARK    4  A    between atoms: C_11  and  C_12 
REMARK    5  A    between atoms: C_12  and  C_13 
REMARK    6  A    between atoms: C_12  and  C_23 
REMARK    7  A    between atoms: C_26  and  O_27 
ROOT
HETATM    1  C   UNL     1     -44.914  59.960 -57.123  1.00  0.00     0.136 C 
ENDROOT
BRANCH   1   2
HETATM    2  N   UNL     1     -45.193  58.903 -56.166  1.00  0.00    -0.359 N 
HETATM    3  C   UNL     1     -44.410  58.750 -55.036  1.00  0.00     0.236 C 
HETATM    4  O   UNL     1     -43.415  59.435 -54.815  1.00  0.00    -0.272 OA
HETATM    5  H   UNL     1     -46.116  58.477 -56.170  1.00  0.00     0.162 HD
BRANCH   3   6
HETATM    6  C   UNL     1     -44.830  57.608 -54.114  1.00  0.00     0.239 C 
BRANCH   6   7
HETATM    7  N   UNL     1     -43.671  56.904 -53.606  1.00  0.00    -0.259 N 
HETATM    8  C   UNL     1     -43.119  57.125 -52.391  1.00  0.00     0.326 A 
HETATM    9  N   UNL     1     -42.052  56.282 -52.230  1.00  0.00    -0.324 N 
HETATM   10  O   UNL     1     -43.470  57.957 -51.572  1.00  0.00    -0.247 OA
HETATM   11  C   UNL     1     -41.847  55.396 -53.364  1.00  0.00     0.119 A 
HETATM   12  H   UNL     1     -41.487  56.310 -51.393  1.00  0.00     0.165 HD
HETATM   13  C   UNL     1     -42.090  53.916 -52.982  1.00  0.00     0.019 C 
HETATM   14  C   UNL     1     -42.993  55.922 -54.270  1.00  0.00     0.257 A 
HETATM   15  C   UNL     1     -40.477  55.661 -54.003  1.00  0.00     0.041 C 
HETATM   16  C   UNL     1     -41.346  53.509 -51.700  1.00  0.00     0.013 C 
HETATM   17  C   UNL     1     -41.707  52.967 -54.133  1.00  0.00     0.007 C 
HETATM   18  C   UNL     1     -40.304  53.224 -54.676  1.00  0.00     0.001 C 
HETATM   19  C   UNL     1     -40.128  54.673 -55.115  1.00  0.00     0.003 C 
HETATM   20  O   UNL     1     -43.263  55.503 -55.388  1.00  0.00    -0.270 OA
ENDBRANCH   6   7
ENDBRANCH   3   6
ENDBRANCH   1   2
BRANCH   1  21
HETATM   21  C   UNL     1     -44.112  59.595 -58.395  1.00  0.00     0.071 C 
BRANCH  21  22
HETATM   22  C   UNL     1     -43.642  58.161 -58.496  1.00  0.00    -0.020 A 
HETATM   23  C   UNL     1     -44.367  57.087 -59.133  1.00  0.00    -0.001 A 
HETATM   24  C   UNL     1     -43.603  55.925 -59.012  1.00  0.00     0.042 A 
HETATM   25  C   UNL     1     -45.602  57.001 -59.811  1.00  0.00     0.014 A 
HETATM   26  C   UNL     1     -44.011  54.689 -59.525  1.00  0.00     0.030 A 
HETATM   27  N   UNL     1     -42.457  56.267 -58.340  1.00  0.00    -0.365 N 
HETATM   28  C   UNL     1     -45.237  54.634 -60.191  1.00  0.00     0.002 A 
HETATM   29  C   UNL     1     -46.023  55.773 -60.334  1.00  0.00     0.001 A 
HETATM   30  H   UNL     1     -41.707  55.626 -58.124  1.00  0.00     0.165 HD
HETATM   31  C   UNL     1     -42.465  57.599 -58.031  1.00  0.00     0.097 A 
ENDBRANCH  21  22
BRANCH  21  32
HETATM   32  C   UNL     1     -42.924  60.473 -58.760  1.00  0.00    -0.048 A 
HETATM   33  C   UNL     1     -42.623  60.687 -60.116  1.00  0.00     0.011 A 
HETATM   34  C   UNL     1     -41.541  61.487 -60.498  1.00  0.00     0.037 A 
HETATM   35  C   UNL     1     -40.729  62.089 -59.539  1.00  0.00     0.068 A 
HETATM   36  C   UNL     1     -41.006  61.879 -58.190  1.00  0.00     0.037 A 
HETATM   37  C   UNL     1     -42.091  61.080 -57.807  1.00  0.00     0.011 A 
BRANCH  35  38
HETATM   38  O   UNL     1     -39.707  62.844 -60.045  1.00  0.00    -0.356 OA
HETATM   39  C   UNL     1     -39.636  62.961 -61.460  1.00  0.00     0.210 C 
ENDBRANCH  35  38
ENDBRANCH  21  32
ENDBRANCH   1  21
TORSDOF 7
ENDMDL
MODEL 2
REMARK VINA RESULT:      -8.4      3.484      7.376
REMARK  7 active torsions:
REMARK  status: ('A' for Active; 'I' for Inactive)
REMARK    1  A    between atoms: N_7  and  C_8 
REMARK    2  A    between atoms: C_8  and  C_9 
REMARK       I    between atoms: C_9  and  N_10 
REMARK    3  A    between atoms: N_10  and  C_11 
REMARK    4  A    between atoms: C_11  and  C_12 
REMARK    5  A    between atoms: C_12  and  C_13 
REMARK    6  A    between atoms: C_12  and  C_23 
REMARK    7  A    between atoms: C_26  and  O_27 
ROOT
HETATM    1  C   UNL     1     -43.098  55.789 -50.666  1.00  0.00     0.136 C 
ENDROOT
BRANCH   1   2
HETATM    2  N   UNL     1     -42.635  57.161 -50.785  1.00  0.00    -0.359 N 
HETATM    3  C   UNL     1     -41.399  57.534 -50.292  1.00  0.00     0.236 C 
HETATM    4  O   UNL     1     -40.664  56.764 -49.678  1.00  0.00    -0.272 OA
HETATM    5  H   UNL     1     -43.077  57.763 -51.476  1.00  0.00     0.162 HD
BRANCH   3   6
HETATM    6  C   UNL     1     -41.040  59.003 -50.501  1.00  0.00     0.239 C 
BRANCH   6   7
HETATM    7  N   UNL     1     -41.604  59.500 -51.737  1.00  0.00    -0.259 N 
HETATM    8  C   UNL     1     -40.965  59.478 -52.929  1.00  0.00     0.326 A 
HETATM    9  N   UNL     1     -41.789  60.011 -53.884  1.00  0.00    -0.324 N 
HETATM   10  O   UNL     1     -39.829  59.087 -53.139  1.00  0.00    -0.247 OA
HETATM   11  C   UNL     1     -43.087  60.406 -53.363  1.00  0.00     0.119 A 
HETATM   12  H   UNL     1     -41.482  60.107 -54.842  1.00  0.00     0.165 HD
HETATM   13  C   UNL     1     -44.226  59.545 -53.960  1.00  0.00     0.019 C 
HETATM   14  C   UNL     1     -42.851  60.042 -51.872  1.00  0.00     0.257 A 
HETATM   15  C   UNL     1     -43.289  61.917 -53.533  1.00  0.00     0.041 C 
HETATM   16  C   UNL     1     -44.147  59.444 -55.493  1.00  0.00     0.013 C 
HETATM   17  C   UNL     1     -45.611  60.074 -53.542  1.00  0.00     0.007 C 
HETATM   18  C   UNL     1     -45.783  61.567 -53.808  1.00  0.00     0.001 C 
HETATM   19  C   UNL     1     -44.688  62.388 -53.139  1.00  0.00     0.003 C 
HETATM   20  O   UNL     1     -43.663  60.189 -50.969  1.00  0.00    -0.270 OA
ENDBRANCH   6   7
ENDBRANCH   3   6
ENDBRANCH   1   2
BRANCH   1  21
HETATM   21  C   UNL     1     -42.738  54.799 -51.798  1.00  0.00     0.071 C 
BRANCH  21  22
HETATM   22  C   UNL     1     -41.569  53.877 -51.530  1.00  0.00    -0.020 A 
HETATM   23  C   UNL     1     -41.018  52.931 -52.470  1.00  0.00    -0.001 A 
HETATM   24  C   UNL     1     -39.959  52.274 -51.844  1.00  0.00     0.042 A 
HETATM   25  C   UNL     1     -41.320  52.582 -53.804  1.00  0.00     0.014 A 
HETATM   26  C   UNL     1     -39.194  51.287 -52.476  1.00  0.00     0.030 A 
HETATM   27  N   UNL     1     -39.854  52.795 -50.579  1.00  0.00    -0.365 N 
HETATM   28  C   UNL     1     -39.515  50.962 -53.796  1.00  0.00     0.002 A 
HETATM   29  C   UNL     1     -40.563  51.600 -54.454  1.00  0.00     0.001 A 
HETATM   30  H   UNL     1     -39.159  52.518 -49.902  1.00  0.00     0.165 HD
HETATM   31  C   UNL     1     -40.807  53.756 -50.380  1.00  0.00     0.097 A 
ENDBRANCH  21  22
BRANCH  21  32
HETATM   32  C   UNL     1     -42.538  55.365 -53.197  1.00  0.00    -0.048 A 
HETATM   33  C   UNL     1     -43.607  55.330 -54.108  1.00  0.00     0.011 A 
HETATM   34  C   UNL     1     -43.469  55.838 -55.404  1.00  0.00     0.037 A 
HETATM   35  C   UNL     1     -42.261  56.390 -55.826  1.00  0.00     0.068 A 
HETATM   36  C   UNL     1     -41.187  56.424 -54.939  1.00  0.00     0.037 A 
HETATM   37  C   UNL     1     -41.326  55.916 -53.640  1.00  0.00     0.011 A 
BRANCH  35  38
HETATM   38  O   UNL     1     -42.259  56.850 -57.114  1.00  0.00    -0.356 OA
HETATM   39  C   UNL     1     -43.154  56.220 -58.021  1.00  0.00     0.210 C 
ENDBRANCH  35  38
ENDBRANCH  21  32
ENDBRANCH   1  21
TORSDOF 7
ENDMDL
MODEL 3
REMARK VINA RESULT:      -8.3      2.251      7.900
REMARK  7 active torsions:
REMARK  status: ('A' for Active; 'I' for Inactive)
REMARK    1  A    between atoms: N_7  and  C_8 
REMARK    2  A    between atoms: C_8  and  C_9 
REMARK       I    between atoms: C_9  and  N_10 
REMARK    3  A    between atoms: N_10  and  C_11 
REMARK    4  A    between atoms: C_11  and  C_12 
REMARK    5  A    between atoms: C_12  and  C_13 
REMARK    6  A    between atoms: C_12  and  C_23 
REMARK    7  A    between atoms: C_26  and  O_27 
ROOT
HETATM    1  C   UNL     1     -42.907  54.626 -54.733  1.00  0.00     0.136 C 
ENDROOT
BRANCH   1   2
HETATM    2  N   UNL     1     -42.996  54.732 -56.180  1.00  0.00    -0.359 N 
HETATM    3  C   UNL     1     -43.326  55.933 -56.780  1.00  0.00     0.236 C 
HETATM    4  O   UNL     1     -43.624  56.940 -56.141  1.00  0.00    -0.272 OA
HETATM    5  H   UNL     1     -42.537  54.024 -56.746  1.00  0.00     0.162 HD
BRANCH   3   6
HETATM    6  C   UNL     1     -43.367  55.899 -58.306  1.00  0.00     0.239 C 
BRANCH   6   7
HETATM    7  N   UNL     1     -43.701  57.202 -58.840  1.00  0.00    -0.259 N 
HETATM    8  C   UNL     1     -44.954  57.595 -59.162  1.00  0.00     0.326 A 
HETATM    9  N   UNL     1     -44.910  58.883 -59.624  1.00  0.00    -0.324 N 
HETATM   10  O   UNL     1     -45.968  56.921 -59.097  1.00  0.00    -0.247 OA
HETATM   11  C   UNL     1     -43.572  59.452 -59.606  1.00  0.00     0.119 A 
HETATM   12  H   UNL     1     -45.747  59.352 -59.942  1.00  0.00     0.165 HD
HETATM   13  C   UNL     1     -43.466  60.624 -58.600  1.00  0.00     0.019 C 
HETATM   14  C   UNL     1     -42.807  58.208 -59.078  1.00  0.00     0.257 A 
HETATM   15  C   UNL     1     -43.127  59.806 -61.030  1.00  0.00     0.041 C 
HETATM   16  C   UNL     1     -44.602  61.647 -58.765  1.00  0.00     0.013 C 
HETATM   17  C   UNL     1     -42.103  61.333 -58.705  1.00  0.00     0.007 C 
HETATM   18  C   UNL     1     -41.748  61.734 -60.134  1.00  0.00     0.001 C 
HETATM   19  C   UNL     1     -41.787  60.540 -61.079  1.00  0.00     0.003 C 
HETATM   20  O   UNL     1     -41.601  58.148 -58.879  1.00  0.00    -0.270 OA
ENDBRANCH   6   7
ENDBRANCH   3   6
ENDBRANCH   1   2
BRANCH   1  21
HETATM   21  C   UNL     1     -41.615  55.125 -54.046  1.00  0.00     0.071 C 
BRANCH  21  22
HETATM   22  C   UNL     1     -41.007  54.196 -53.018  1.00  0.00    -0.020 A 
HETATM   23  C   UNL     1     -40.567  52.845 -53.269  1.00  0.00    -0.001 A 
HETATM   24  C   UNL     1     -40.073  52.326 -52.072  1.00  0.00     0.042 A 
HETATM   25  C   UNL     1     -40.537  52.018 -54.413  1.00  0.00     0.014 A 
HETATM   26  C   UNL     1     -39.558  51.030 -51.958  1.00  0.00     0.030 A 
HETATM   27  N   UNL     1     -40.194  53.314 -51.127  1.00  0.00    -0.365 N 
HETATM   28  C   UNL     1     -39.540  50.234 -53.106  1.00  0.00     0.002 A 
HETATM   29  C   UNL     1     -40.021  50.720 -54.319  1.00  0.00     0.001 A 
HETATM   30  H   UNL     1     -39.897  53.225 -50.166  1.00  0.00     0.165 HD
HETATM   31  C   UNL     1     -40.745  54.437 -51.680  1.00  0.00     0.097 A 
ENDBRANCH  21  22
BRANCH  21  32
HETATM   32  C   UNL     1     -41.633  56.515 -53.425  1.00  0.00    -0.048 A 
HETATM   33  C   UNL     1     -42.753  56.914 -52.676  1.00  0.00     0.011 A 
HETATM   34  C   UNL     1     -42.814  58.181 -52.087  1.00  0.00     0.037 A 
HETATM   35  C   UNL     1     -41.763  59.084 -52.234  1.00  0.00     0.068 A 
HETATM   36  C   UNL     1     -40.650  58.709 -52.982  1.00  0.00     0.037 A 
HETATM   37  C   UNL     1     -40.587  57.439 -53.570  1.00  0.00     0.011 A 
BRANCH  35  38
HETATM   38  O   UNL     1     -41.948  60.286 -51.609  1.00  0.00    -0.356 OA
HETATM   39  C   UNL     1     -42.997  60.357 -50.651  1.00  0.00     0.210 C 
ENDBRANCH  35  38
ENDBRANCH  21  32
ENDBRANCH   1  21
TORSDOF 7
ENDMDL
MODEL 4
REMARK VINA RESULT:      -8.2      3.635      8.399
REMARK  7 active torsions:
REMARK  status: ('A' for Active; 'I' for Inactive)
REMARK    1  A    between atoms: N_7  and  C_8 
REMARK    2  A    between atoms: C_8  and  C_9 
REMARK       I    between atoms: C_9  and  N_10 
REMARK    3  A    between atoms: N_10  and  C_11 
REMARK    4  A    between atoms: C_11  and  C_12 
REMARK    5  A    between atoms: C_12  and  C_13 
REMARK    6  A    between atoms: C_12  and  C_23 
REMARK    7  A    between atoms: C_26  and  O_27 
ROOT
HETATM    1  C   UNL     1     -43.416  55.649 -54.974  1.00  0.00     0.136 C 
ENDROOT
BRANCH   1   2
HETATM    2  N   UNL     1     -44.454  56.657 -55.108  1.00  0.00    -0.359 N 
HETATM    3  C   UNL     1     -44.183  57.874 -55.705  1.00  0.00     0.236 C 
HETATM    4  O   UNL     1     -43.060  58.196 -56.086  1.00  0.00    -0.272 OA
HETATM    5  H   UNL     1     -45.425  56.364 -55.037  1.00  0.00     0.162 HD
BRANCH   3   6
HETATM    6  C   UNL     1     -45.372  58.828 -55.790  1.00  0.00     0.239 C 
BRANCH   6   7
HETATM    7  N   UNL     1     -45.149  60.002 -54.975  1.00  0.00    -0.259 N 
HETATM    8  C   UNL     1     -44.897  61.236 -55.469  1.00  0.00     0.326 A 
HETATM    9  N   UNL     1     -44.751  62.110 -54.425  1.00  0.00    -0.324 N 
HETATM   10  O   UNL     1     -44.779  61.539 -56.644  1.00  0.00    -0.247 OA
HETATM   11  C   UNL     1     -44.934  61.485 -53.126  1.00  0.00     0.119 A 
HETATM   12  H   UNL     1     -44.531  63.083 -54.587  1.00  0.00     0.165 HD
HETATM   13  C   UNL     1     -46.188  62.033 -52.403  1.00  0.00     0.019 C 
HETATM   14  C   UNL     1     -45.175  60.029 -53.609  1.00  0.00     0.257 A 
HETATM   15  C   UNL     1     -43.643  61.584 -52.303  1.00  0.00     0.041 C 
HETATM   16  C   UNL     1     -46.239  63.570 -52.395  1.00  0.00     0.013 C 
HETATM   17  C   UNL     1     -46.285  61.499 -50.961  1.00  0.00     0.007 C 
HETATM   18  C   UNL     1     -44.999  61.696 -50.165  1.00  0.00     0.001 C 
HETATM   19  C   UNL     1     -43.800  61.075 -50.871  1.00  0.00     0.003 C 
HETATM   20  O   UNL     1     -45.383  59.066 -52.883  1.00  0.00    -0.270 OA
ENDBRANCH   6   7
ENDBRANCH   3   6
ENDBRANCH   1   2
BRANCH   1  21
HETATM   21  C   UNL     1     -43.163  55.049 -53.571  1.00  0.00     0.071 C 
BRANCH  21  22
HETATM   22  C   UNL     1     -42.944  56.043 -52.452  1.00  0.00    -0.020 A 
HETATM   23  C   UNL     1     -41.923  57.063 -52.428  1.00  0.00    -0.001 A 
HETATM   24  C   UNL     1     -42.049  57.766 -51.230  1.00  0.00     0.042 A 
HETATM   25  C   UNL     1     -40.907  57.458 -53.325  1.00  0.00     0.014 A 
HETATM   26  C   UNL     1     -41.214  58.833 -50.882  1.00  0.00     0.030 A 
HETATM   27  N   UNL     1     -43.104  57.212 -50.549  1.00  0.00    -0.365 N 
HETATM   28  C   UNL     1     -40.218  59.202 -51.788  1.00  0.00     0.002 A 
HETATM   29  C   UNL     1     -40.065  58.526 -52.995  1.00  0.00     0.001 A 
HETATM   30  H   UNL     1     -43.438  57.534 -49.652  1.00  0.00     0.165 HD
HETATM   31  C   UNL     1     -43.649  56.186 -51.269  1.00  0.00     0.097 A 
ENDBRANCH  21  22
BRANCH  21  32
HETATM   32  C   UNL     1     -42.076  53.992 -53.438  1.00  0.00    -0.048 A 
HETATM   33  C   UNL     1     -41.729  53.224 -54.563  1.00  0.00     0.011 A 
HETATM   34  C   UNL     1     -40.736  52.241 -54.487  1.00  0.00     0.037 A 
HETATM   35  C   UNL     1     -40.068  51.996 -53.289  1.00  0.00     0.068 A 
HETATM   36  C   UNL     1     -40.408  52.740 -52.162  1.00  0.00     0.037 A 
HETATM   37  C   UNL     1     -41.401  53.726 -52.237  1.00  0.00     0.011 A 
BRANCH  35  38
HETATM   38  O   UNL     1     -39.122  51.011 -53.351  1.00  0.00    -0.356 OA
HETATM   39  C   UNL     1     -39.416  49.890 -54.175  1.00  0.00     0.210 C 
ENDBRANCH  35  38
ENDBRANCH  21  32
ENDBRANCH   1  21
TORSDOF 7
ENDMDL
MODEL 5
REMARK VINA RESULT:      -8.2      1.444      2.299
REMARK  7 active torsions:
REMARK  status: ('A' for Active; 'I' for Inactive)
REMARK    1  A    between atoms: N_7  and  C_8 
REMARK    2  A    between atoms: C_8  and  C_9 
REMARK       I    between atoms: C_9  and  N_10 
REMARK    3  A    between atoms: N_10  and  C_11 
REMARK    4  A    between atoms: C_11  and  C_12 
REMARK    5  A    between atoms: C_12  and  C_13 
REMARK    6  A    between atoms: C_12  and  C_23 
REMARK    7  A    between atoms: C_26  and  O_27 
ROOT
HETATM    1  C   UNL     1     -42.221  60.127 -56.783  1.00  0.00     0.136 C 
ENDROOT
BRANCH   1   2
HETATM    2  N   UNL     1     -42.967  59.618 -55.645  1.00  0.00    -0.359 N 
HETATM    3  C   UNL     1     -42.342  59.403 -54.431  1.00  0.00     0.236 C 
HETATM    4  O   UNL     1     -41.135  59.559 -54.264  1.00  0.00    -0.272 OA
HETATM    5  H   UNL     1     -43.980  59.701 -55.654  1.00  0.00     0.162 HD
BRANCH   3   6
HETATM    6  C   UNL     1     -43.252  58.879 -53.323  1.00  0.00     0.239 C 
BRANCH   6   7
HETATM    7  N   UNL     1     -43.293  57.433 -53.330  1.00  0.00    -0.259 N 
HETATM    8  C   UNL     1     -44.180  56.699 -54.039  1.00  0.00     0.326 A 
HETATM    9  N   UNL     1     -43.927  55.371 -53.827  1.00  0.00    -0.324 N 
HETATM   10  O   UNL     1     -45.088  57.126 -54.732  1.00  0.00    -0.247 OA
HETATM   11  C   UNL     1     -42.790  55.138 -52.952  1.00  0.00     0.119 A 
HETATM   12  H   UNL     1     -44.501  54.656 -54.253  1.00  0.00     0.165 HD
HETATM   13  C   UNL     1     -41.624  54.450 -53.703  1.00  0.00     0.019 C 
HETATM   14  C   UNL     1     -42.441  56.618 -52.639  1.00  0.00     0.257 A 
HETATM   15  C   UNL     1     -43.240  54.401 -51.684  1.00  0.00     0.041 C 
HETATM   16  C   UNL     1     -42.084  53.223 -54.507  1.00  0.00     0.013 C 
HETATM   17  C   UNL     1     -40.492  54.050 -52.739  1.00  0.00     0.007 C 
HETATM   18  C   UNL     1     -40.987  53.250 -51.537  1.00  0.00     0.001 C 
HETATM   19  C   UNL     1     -42.079  53.994 -50.778  1.00  0.00     0.003 C 
HETATM   20  O   UNL     1     -41.530  56.994 -51.914  1.00  0.00    -0.270 OA
ENDBRANCH   6   7
ENDBRANCH   3   6
ENDBRANCH   1   2
BRANCH   1  21
HETATM   21  C   UNL     1     -42.797  59.886 -58.197  1.00  0.00     0.071 C 
BRANCH  21  22
HETATM   22  C   UNL     1     -42.892  58.442 -58.639  1.00  0.00    -0.020 A 
HETATM   23  C   UNL     1     -44.089  57.792 -59.118  1.00  0.00    -0.001 A 
HETATM   24  C   UNL     1     -43.765  56.469 -59.419  1.00  0.00     0.042 A 
HETATM   25  C   UNL     1     -45.419  58.215 -59.332  1.00  0.00     0.014 A 
HETATM   26  C   UNL     1     -44.698  55.550 -59.915  1.00  0.00     0.030 A 
HETATM   27  N   UNL     1     -42.430  56.310 -59.147  1.00  0.00    -0.365 N 
HETATM   28  C   UNL     1     -46.005  55.997 -60.117  1.00  0.00     0.002 A 
HETATM   29  C   UNL     1     -46.364  57.311 -59.832  1.00  0.00     0.001 A 
HETATM   30  H   UNL     1     -41.914  55.453 -59.289  1.00  0.00     0.165 HD
HETATM   31  C   UNL     1     -41.896  57.482 -58.685  1.00  0.00     0.097 A 
ENDBRANCH  21  22
BRANCH  21  32
HETATM   32  C   UNL     1     -42.182  60.659 -59.355  1.00  0.00    -0.048 A 
HETATM   33  C   UNL     1     -41.206  61.633 -59.085  1.00  0.00     0.011 A 
HETATM   34  C   UNL     1     -40.614  62.368 -60.116  1.00  0.00     0.037 A 
HETATM   35  C   UNL     1     -40.982  62.154 -61.444  1.00  0.00     0.068 A 
HETATM   36  C   UNL     1     -41.955  61.200 -61.729  1.00  0.00     0.037 A 
HETATM   37  C   UNL     1     -42.548  60.462 -60.695  1.00  0.00     0.011 A 
BRANCH  35  38
HETATM   38  O   UNL     1     -40.328  62.937 -62.354  1.00  0.00    -0.356 OA
HETATM   39  C   UNL     1     -39.006  63.341 -62.020  1.00  0.00     0.210 C 
ENDBRANCH  35  38
ENDBRANCH  21  32
ENDBRANCH   1  21
TORSDOF 7
ENDMDL
MODEL 6
REMARK VINA RESULT:      -8.0      2.416      8.985
REMARK  7 active torsions:
REMARK  status: ('A' for Active; 'I' for Inactive)
REMARK    1  A    between atoms: N_7  and  C_8 
REMARK    2  A    between atoms: C_8  and  C_9 
REMARK       I    between atoms: C_9  and  N_10 
REMARK    3  A    between atoms: N_10  and  C_11 
REMARK    4  A    between atoms: C_11  and  C_12 
REMARK    5  A    between atoms: C_12  and  C_13 
REMARK    6  A    between atoms: C_12  and  C_23 
REMARK    7  A    between atoms: C_26  and  O_27 
ROOT
HETATM    1  C   UNL     1     -42.636  54.931 -55.782  1.00  0.00     0.136 C 
ENDROOT
BRANCH   1   2
HETATM    2  N   UNL     1     -43.665  55.795 -56.334  1.00  0.00    -0.359 N 
HETATM    3  C   UNL     1     -43.329  56.978 -56.966  1.00  0.00     0.236 C 
HETATM    4  O   UNL     1     -42.174  57.393 -57.037  1.00  0.00    -0.272 OA
HETATM    5  H   UNL     1     -44.583  55.399 -56.516  1.00  0.00     0.162 HD
BRANCH   3   6
HETATM    6  C   UNL     1     -44.512  57.776 -57.508  1.00  0.00     0.239 C 
BRANCH   6   7
HETATM    7  N   UNL     1     -44.189  58.368 -58.789  1.00  0.00    -0.259 N 
HETATM    8  C   UNL     1     -44.387  57.761 -59.981  1.00  0.00     0.326 A 
HETATM    9  N   UNL     1     -43.986  58.605 -60.980  1.00  0.00    -0.324 N 
HETATM   10  O   UNL     1     -44.816  56.633 -60.161  1.00  0.00    -0.247 OA
HETATM   11  C   UNL     1     -43.507  59.887 -60.489  1.00  0.00     0.119 A 
HETATM   12  H   UNL     1     -44.031  58.323 -61.950  1.00  0.00     0.165 HD
HETATM   13  C   UNL     1     -44.433  61.047 -60.930  1.00  0.00     0.019 C 
HETATM   14  C   UNL     1     -43.659  59.615 -58.968  1.00  0.00     0.257 A 
HETATM   15  C   UNL     1     -42.034  60.083 -60.868  1.00  0.00     0.041 C 
HETATM   16  C   UNL     1     -44.751  61.008 -62.434  1.00  0.00     0.013 C 
HETATM   17  C   UNL     1     -43.835  62.417 -60.557  1.00  0.00     0.007 C 
HETATM   18  C   UNL     1     -42.393  62.586 -61.028  1.00  0.00     0.001 C 
HETATM   19  C   UNL     1     -41.497  61.468 -60.509  1.00  0.00     0.003 C 
HETATM   20  O   UNL     1     -43.376  60.402 -58.075  1.00  0.00    -0.270 OA
ENDBRANCH   6   7
ENDBRANCH   3   6
ENDBRANCH   1   2
BRANCH   1  21
HETATM   21  C   UNL     1     -42.419  54.944 -54.251  1.00  0.00     0.071 C 
BRANCH  21  22
HETATM   22  C   UNL     1     -41.991  56.266 -53.651  1.00  0.00    -0.020 A 
HETATM   23  C   UNL     1     -42.815  57.113 -52.822  1.00  0.00    -0.001 A 
HETATM   24  C   UNL     1     -42.062  58.235 -52.475  1.00  0.00     0.042 A 
HETATM   25  C   UNL     1     -44.134  57.020 -52.327  1.00  0.00     0.014 A 
HETATM   26  C   UNL     1     -42.557  59.265 -51.669  1.00  0.00     0.030 A 
HETATM   27  N   UNL     1     -40.827  58.084 -53.056  1.00  0.00    -0.365 N 
HETATM   28  C   UNL     1     -43.865  59.147 -51.193  1.00  0.00     0.002 A 
HETATM   29  C   UNL     1     -44.645  58.040 -51.516  1.00  0.00     0.001 A 
HETATM   30  H   UNL     1     -40.066  58.740 -52.959  1.00  0.00     0.165 HD
HETATM   31  C   UNL     1     -40.771  56.911 -53.756  1.00  0.00     0.097 A 
ENDBRANCH  21  22
BRANCH  21  32
HETATM   32  C   UNL     1     -41.512  53.878 -53.654  1.00  0.00    -0.048 A 
HETATM   33  C   UNL     1     -41.379  53.797 -52.257  1.00  0.00     0.011 A 
HETATM   34  C   UNL     1     -40.557  52.833 -51.665  1.00  0.00     0.037 A 
HETATM   35  C   UNL     1     -39.843  51.928 -52.448  1.00  0.00     0.068 A 
HETATM   36  C   UNL     1     -39.955  52.001 -53.835  1.00  0.00     0.037 A 
HETATM   37  C   UNL     1     -40.780  52.965 -54.429  1.00  0.00     0.011 A 
BRANCH  35  38
HETATM   38  O   UNL     1     -39.078  51.039 -51.746  1.00  0.00    -0.356 OA
HETATM   39  C   UNL     1     -39.754  50.219 -50.801  1.00  0.00     0.210 C 
ENDBRANCH  35  38
ENDBRANCH  21  32
ENDBRANCH   1  21
TORSDOF 7
ENDMDL
MODEL 7
REMARK VINA RESULT:      -8.0      3.411      8.014
REMARK  7 active torsions:
REMARK  status: ('A' for Active; 'I' for Inactive)
REMARK    1  A    between atoms: N_7  and  C_8 
REMARK    2  A    between atoms: C_8  and  C_9 
REMARK       I    between atoms: C_9  and  N_10 
REMARK    3  A    between atoms: N_10  and  C_11 
REMARK    4  A    between atoms: C_11  and  C_12 
REMARK    5  A    between atoms: C_12  and  C_13 
REMARK    6  A    between atoms: C_12  and  C_23 
REMARK    7  A    between atoms: C_26  and  O_27 
ROOT
HETATM    1  C   UNL     1     -41.386  56.795 -51.385  1.00  0.00     0.136 C 
ENDROOT
BRANCH   1   2
HETATM    2  N   UNL     1     -42.413  57.762 -51.039  1.00  0.00    -0.359 N 
HETATM    3  C   UNL     1     -42.202  59.114 -51.230  1.00  0.00     0.236 C 
HETATM    4  O   UNL     1     -41.135  59.574 -51.628  1.00  0.00    -0.272 OA
HETATM    5  H   UNL     1     -43.371  57.436 -50.940  1.00  0.00     0.162 HD
BRANCH   3   6
HETATM    6  C   UNL     1     -43.374  60.010 -50.835  1.00  0.00     0.239 C 
BRANCH   6   7
HETATM    7  N   UNL     1     -44.153  60.380 -51.996  1.00  0.00    -0.259 N 
HETATM    8  C   UNL     1     -45.080  59.585 -52.577  1.00  0.00     0.326 A 
HETATM    9  N   UNL     1     -45.632  60.249 -53.638  1.00  0.00    -0.324 N 
HETATM   10  O   UNL     1     -45.368  58.445 -52.251  1.00  0.00    -0.247 OA
HETATM   11  C   UNL     1     -45.103  61.592 -53.811  1.00  0.00     0.119 A 
HETATM   12  H   UNL     1     -46.332  59.810 -54.221  1.00  0.00     0.165 HD
HETATM   13  C   UNL     1     -46.188  62.668 -53.561  1.00  0.00     0.019 C 
HETATM   14  C   UNL     1     -44.071  61.577 -52.651  1.00  0.00     0.257 A 
HETATM   15  C   UNL     1     -44.400  61.715 -55.169  1.00  0.00     0.041 C 
HETATM   16  C   UNL     1     -47.489  62.382 -54.328  1.00  0.00     0.013 C 
HETATM   17  C   UNL     1     -45.673  64.077 -53.910  1.00  0.00     0.007 C 
HETATM   18  C   UNL     1     -45.057  64.158 -55.303  1.00  0.00     0.001 C 
HETATM   19  C   UNL     1     -43.940  63.137 -55.485  1.00  0.00     0.003 C 
HETATM   20  O   UNL     1     -43.325  62.500 -52.353  1.00  0.00    -0.270 OA
ENDBRANCH   6   7
ENDBRANCH   3   6
ENDBRANCH   1   2
BRANCH   1  21
HETATM   21  C   UNL     1     -41.377  56.226 -52.823  1.00  0.00     0.071 C 
BRANCH  21  22
HETATM   22  C   UNL     1     -42.663  56.378 -53.606  1.00  0.00    -0.020 A 
HETATM   23  C   UNL     1     -42.855  57.260 -54.732  1.00  0.00    -0.001 A 
HETATM   24  C   UNL     1     -44.171  57.111 -55.172  1.00  0.00     0.042 A 
HETATM   25  C   UNL     1     -42.024  58.166 -55.425  1.00  0.00     0.014 A 
HETATM   26  C   UNL     1     -44.698  57.821 -56.256  1.00  0.00     0.030 A 
HETATM   27  N   UNL     1     -44.762  56.175 -54.360  1.00  0.00    -0.365 N 
HETATM   28  C   UNL     1     -43.852  58.710 -56.923  1.00  0.00     0.002 A 
HETATM   29  C   UNL     1     -42.532  58.882 -56.516  1.00  0.00     0.001 A 
HETATM   30  H   UNL     1     -45.714  55.853 -54.457  1.00  0.00     0.165 HD
HETATM   31  C   UNL     1     -43.870  55.726 -53.425  1.00  0.00     0.097 A 
ENDBRANCH  21  22
BRANCH  21  32
HETATM   32  C   UNL     1     -40.914  54.789 -53.014  1.00  0.00    -0.048 A 
HETATM   33  C   UNL     1     -40.697  53.984 -51.883  1.00  0.00     0.011 A 
HETATM   34  C   UNL     1     -40.272  52.658 -52.011  1.00  0.00     0.037 A 
HETATM   35  C   UNL     1     -40.047  52.101 -53.268  1.00  0.00     0.068 A 
HETATM   36  C   UNL     1     -40.247  52.888 -54.401  1.00  0.00     0.037 A 
HETATM   37  C   UNL     1     -40.675  54.216 -54.273  1.00  0.00     0.011 A 
BRANCH  35  38
HETATM   38  O   UNL     1     -39.634  50.798 -53.254  1.00  0.00    -0.356 OA
HETATM   39  C   UNL     1     -39.890  50.031 -54.423  1.00  0.00     0.210 C 
ENDBRANCH  35  38
ENDBRANCH  21  32
ENDBRANCH   1  21
TORSDOF 7
ENDMDL
MODEL 8
REMARK VINA RESULT:      -8.0      2.498      9.135
REMARK  7 active torsions:
REMARK  status: ('A' for Active; 'I' for Inactive)
REMARK    1  A    between atoms: N_7  and  C_8 
REMARK    2  A    between atoms: C_8  and  C_9 
REMARK       I    between atoms: C_9  and  N_10 
REMARK    3  A    between atoms: N_10  and  C_11 
REMARK    4  A    between atoms: C_11  and  C_12 
REMARK    5  A    between atoms: C_12  and  C_13 
REMARK    6  A    between atoms: C_12  and  C_23 
REMARK    7  A    between atoms: C_26  and  O_27 
ROOT
HETATM    1  C   UNL     1     -41.293  55.582 -55.476  1.00  0.00     0.136 C 
ENDROOT
BRANCH   1   2
HETATM    2  N   UNL     1     -42.109  55.760 -56.665  1.00  0.00    -0.359 N 
HETATM    3  C   UNL     1     -42.895  56.887 -56.819  1.00  0.00     0.236 C 
HETATM    4  O   UNL     1     -43.002  57.751 -55.951  1.00  0.00    -0.272 OA
HETATM    5  H   UNL     1     -41.880  55.219 -57.495  1.00  0.00     0.162 HD
BRANCH   3   6
HETATM    6  C   UNL     1     -43.686  56.946 -58.123  1.00  0.00     0.239 C 
BRANCH   6   7
HETATM    7  N   UNL     1     -43.124  57.931 -59.022  1.00  0.00    -0.259 N 
HETATM    8  C   UNL     1     -42.283  57.641 -60.041  1.00  0.00     0.326 A 
HETATM    9  N   UNL     1     -41.959  58.801 -60.692  1.00  0.00    -0.324 N 
HETATM   10  O   UNL     1     -41.843  56.541 -60.331  1.00  0.00    -0.247 OA
HETATM   11  C   UNL     1     -42.617  59.972 -60.137  1.00  0.00     0.119 A 
HETATM   12  H   UNL     1     -41.316  58.798 -61.472  1.00  0.00     0.165 HD
HETATM   13  C   UNL     1     -43.617  60.593 -61.142  1.00  0.00     0.019 C 
HETATM   14  C   UNL     1     -43.374  59.274 -58.974  1.00  0.00     0.257 A 
HETATM   15  C   UNL     1     -41.575  60.960 -59.598  1.00  0.00     0.041 C 
HETATM   16  C   UNL     1     -43.001  60.796 -62.536  1.00  0.00     0.013 C 
HETATM   17  C   UNL     1     -44.184  61.926 -60.621  1.00  0.00     0.007 C 
HETATM   18  C   UNL     1     -43.099  62.901 -60.174  1.00  0.00     0.001 C 
HETATM   19  C   UNL     1     -42.183  62.281 -59.126  1.00  0.00     0.003 C 
HETATM   20  O   UNL     1     -44.100  59.833 -58.164  1.00  0.00    -0.270 OA
ENDBRANCH   6   7
ENDBRANCH   3   6
ENDBRANCH   1   2
BRANCH   1  21
HETATM   21  C   UNL     1     -41.940  54.903 -54.246  1.00  0.00     0.071 C 
BRANCH  21  22
HETATM   22  C   UNL     1     -42.384  55.826 -53.133  1.00  0.00    -0.020 A 
HETATM   23  C   UNL     1     -41.717  57.045 -52.742  1.00  0.00    -0.001 A 
HETATM   24  C   UNL     1     -42.431  57.602 -51.681  1.00  0.00     0.042 A 
HETATM   25  C   UNL     1     -40.571  57.730 -53.203  1.00  0.00     0.014 A 
HETATM   26  C   UNL     1     -42.059  58.798 -51.057  1.00  0.00     0.030 A 
HETATM   27  N   UNL     1     -43.495  56.772 -51.434  1.00  0.00    -0.365 N 
HETATM   28  C   UNL     1     -40.922  59.455 -51.535  1.00  0.00     0.002 A 
HETATM   29  C   UNL     1     -40.187  58.930 -52.594  1.00  0.00     0.001 A 
HETATM   30  H   UNL     1     -44.197  56.936 -50.727  1.00  0.00     0.165 HD
HETATM   31  C   UNL     1     -43.481  55.711 -52.297  1.00  0.00     0.097 A 
ENDBRANCH  21  22
BRANCH  21  32
HETATM   32  C   UNL     1     -41.183  53.757 -53.590  1.00  0.00    -0.048 A 
HETATM   33  C   UNL     1     -40.883  52.613 -54.348  1.00  0.00     0.011 A 
HETATM   34  C   UNL     1     -40.190  51.536 -53.787  1.00  0.00     0.037 A 
HETATM   35  C   UNL     1     -39.782  51.569 -52.455  1.00  0.00     0.068 A 
HETATM   36  C   UNL     1     -40.080  52.691 -51.685  1.00  0.00     0.037 A 
HETATM   37  C   UNL     1     -40.773  53.772 -52.248  1.00  0.00     0.011 A 
BRANCH  35  38
HETATM   38  O   UNL     1     -39.114  50.454 -52.031  1.00  0.00    -0.356 OA
HETATM   39  C   UNL     1     -39.563  49.859 -50.820  1.00  0.00     0.210 C 
ENDBRANCH  35  38
ENDBRANCH  21  32
ENDBRANCH   1  21
TORSDOF 7
ENDMDL
MODEL 9
REMARK VINA RESULT:      -8.0      2.207      5.071
REMARK  7 active torsions:
REMARK  status: ('A' for Active; 'I' for Inactive)
REMARK    1  A    between atoms: N_7  and  C_8 
REMARK    2  A    between atoms: C_8  and  C_9 
REMARK       I    between atoms: C_9  and  N_10 
REMARK    3  A    between atoms: N_10  and  C_11 
REMARK    4  A    between atoms: C_11  and  C_12 
REMARK    5  A    between atoms: C_12  and  C_13 
REMARK    6  A    between atoms: C_12  and  C_23 
REMARK    7  A    between atoms: C_26  and  O_27 
ROOT
HETATM    1  C   UNL     1     -42.778  60.636 -56.106  1.00  0.00     0.136 C 
ENDROOT
BRANCH   1   2
HETATM    2  N   UNL     1     -42.327  59.845 -54.973  1.00  0.00    -0.359 N 
HETATM    3  C   UNL     1     -42.959  59.945 -53.747  1.00  0.00     0.236 C 
HETATM    4  O   UNL     1     -43.872  60.738 -53.528  1.00  0.00    -0.272 OA
HETATM    5  H   UNL     1     -41.758  59.023 -55.152  1.00  0.00     0.162 HD
BRANCH   3   6
HETATM    6  C   UNL     1     -42.387  59.046 -52.654  1.00  0.00     0.239 C 
BRANCH   6   7
HETATM    7  N   UNL     1     -42.644  57.653 -52.947  1.00  0.00    -0.259 N 
HETATM    8  C   UNL     1     -43.869  57.080 -52.911  1.00  0.00     0.326 A 
HETATM    9  N   UNL     1     -43.752  55.760 -53.253  1.00  0.00    -0.324 N 
HETATM   10  O   UNL     1     -44.916  57.620 -52.594  1.00  0.00    -0.247 OA
HETATM   11  C   UNL     1     -42.390  55.372 -53.578  1.00  0.00     0.119 A 
HETATM   12  H   UNL     1     -44.558  55.150 -53.260  1.00  0.00     0.165 HD
HETATM   13  C   UNL     1     -42.250  54.976 -55.068  1.00  0.00     0.019 C 
HETATM   14  C   UNL     1     -41.698  56.736 -53.309  1.00  0.00     0.257 A 
HETATM   15  C   UNL     1     -41.894  54.303 -52.597  1.00  0.00     0.041 C 
HETATM   16  C   UNL     1     -43.332  53.978 -55.515  1.00  0.00     0.013 C 
HETATM   17  C   UNL     1     -40.853  54.404 -55.371  1.00  0.00     0.007 C 
HETATM   18  C   UNL     1     -40.445  53.289 -54.412  1.00  0.00     0.001 C 
HETATM   19  C   UNL     1     -40.520  53.741 -52.959  1.00  0.00     0.003 C 
HETATM   20  O   UNL     1     -40.501  56.961 -53.431  1.00  0.00    -0.270 OA
ENDBRANCH   6   7
ENDBRANCH   3   6
ENDBRANCH   1   2
BRANCH   1  21
HETATM   21  C   UNL     1     -42.180  60.320 -57.497  1.00  0.00     0.071 C 
BRANCH  21  22
HETATM   22  C   UNL     1     -42.383  61.373 -58.563  1.00  0.00    -0.020 A 
HETATM   23  C   UNL     1     -41.346  62.206 -59.123  1.00  0.00    -0.001 A 
HETATM   24  C   UNL     1     -41.935  63.046 -60.068  1.00  0.00     0.042 A 
HETATM   25  C   UNL     1     -39.953  62.314 -58.915  1.00  0.00     0.014 A 
HETATM   26  C   UNL     1     -41.210  63.986 -60.809  1.00  0.00     0.030 A 
HETATM   27  N   UNL     1     -43.272  62.740 -60.098  1.00  0.00    -0.365 N 
HETATM   28  C   UNL     1     -39.834  64.070 -60.584  1.00  0.00     0.002 A 
HETATM   29  C   UNL     1     -39.212  63.246 -59.651  1.00  0.00     0.001 A 
HETATM   30  H   UNL     1     -43.946  63.181 -60.707  1.00  0.00     0.165 HD
HETATM   31  C   UNL     1     -43.552  61.740 -59.208  1.00  0.00     0.097 A 
ENDBRANCH  21  22
BRANCH  21  32
HETATM   32  C   UNL     1     -42.530  58.981 -58.131  1.00  0.00    -0.048 A 
HETATM   33  C   UNL     1     -41.815  58.553 -59.262  1.00  0.00     0.011 A 
HETATM   34  C   UNL     1     -42.101  57.330 -59.878  1.00  0.00     0.037 A 
HETATM   35  C   UNL     1     -43.111  56.505 -59.385  1.00  0.00     0.068 A 
HETATM   36  C   UNL     1     -43.836  56.918 -58.270  1.00  0.00     0.037 A 
HETATM   37  C   UNL     1     -43.548  58.143 -57.652  1.00  0.00     0.011 A 
BRANCH  35  38
HETATM   38  O   UNL     1     -43.289  55.340 -60.077  1.00  0.00    -0.356 OA
HETATM   39  C   UNL     1     -44.462  54.593 -59.785  1.00  0.00     0.210 C 
ENDBRANCH  35  38
ENDBRANCH  21  32
ENDBRANCH   1  21
TORSDOF 7
ENDMDL
MODEL 10
REMARK VINA RESULT:      -8.0      2.492      8.954
REMARK  7 active torsions:
REMARK  status: ('A' for Active; 'I' for Inactive)
REMARK    1  A    between atoms: N_7  and  C_8 
REMARK    2  A    between atoms: C_8  and  C_9 
REMARK       I    between atoms: C_9  and  N_10 
REMARK    3  A    between atoms: N_10  and  C_11 
REMARK    4  A    between atoms: C_11  and  C_12 
REMARK    5  A    between atoms: C_12  and  C_13 
REMARK    6  A    between atoms: C_12  and  C_23 
REMARK    7  A    between atoms: C_26  and  O_27 
ROOT
HETATM    1  C   UNL     1     -41.279  55.421 -55.416  1.00  0.00     0.136 C 
ENDROOT
BRANCH   1   2
HETATM    2  N   UNL     1     -42.061  55.484 -56.640  1.00  0.00    -0.359 N 
HETATM    3  C   UNL     1     -42.953  56.517 -56.854  1.00  0.00     0.236 C 
HETATM    4  O   UNL     1     -43.185  57.385 -56.016  1.00  0.00    -0.272 OA
HETATM    5  H   UNL     1     -41.743  54.950 -57.445  1.00  0.00     0.162 HD
BRANCH   3   6
HETATM    6  C   UNL     1     -43.693  56.461 -58.188  1.00  0.00     0.239 C 
BRANCH   6   7
HETATM    7  N   UNL     1     -43.873  57.789 -58.733  1.00  0.00    -0.259 N 
HETATM    8  C   UNL     1     -45.045  58.464 -58.724  1.00  0.00     0.326 A 
HETATM    9  N   UNL     1     -44.856  59.689 -59.305  1.00  0.00    -0.324 N 
HETATM   10  O   UNL     1     -46.117  58.057 -58.306  1.00  0.00    -0.247 OA
HETATM   11  C   UNL     1     -43.483  59.918 -59.724  1.00  0.00     0.119 A 
HETATM   12  H   UNL     1     -45.624  60.337 -59.417  1.00  0.00     0.165 HD
HETATM   13  C   UNL     1     -42.823  61.058 -58.911  1.00  0.00     0.019 C 
HETATM   14  C   UNL     1     -42.892  58.542 -59.314  1.00  0.00     0.257 A 
HETATM   15  C   UNL     1     -43.418  60.112 -61.244  1.00  0.00     0.041 C 
HETATM   16  C   UNL     1     -43.699  62.320 -58.848  1.00  0.00     0.013 C 
HETATM   17  C   UNL     1     -41.432  61.414 -59.469  1.00  0.00     0.007 C 
HETATM   18  C   UNL     1     -41.442  61.675 -60.972  1.00  0.00     0.001 C 
HETATM   19  C   UNL     1     -42.026  60.498 -61.744  1.00  0.00     0.003 C 
HETATM   20  O   UNL     1     -41.726  58.199 -59.461  1.00  0.00    -0.270 OA
ENDBRANCH   6   7
ENDBRANCH   3   6
ENDBRANCH   1   2
BRANCH   1  21
HETATM   21  C   UNL     1     -41.923  54.760 -54.175  1.00  0.00     0.071 C 
BRANCH  21  22
HETATM   22  C   UNL     1     -42.368  55.699 -53.076  1.00  0.00    -0.020 A 
HETATM   23  C   UNL     1     -41.748  56.963 -52.755  1.00  0.00    -0.001 A 
HETATM   24  C   UNL     1     -42.447  57.522 -51.685  1.00  0.00     0.042 A 
HETATM   25  C   UNL     1     -40.659  57.686 -53.287  1.00  0.00     0.014 A 
HETATM   26  C   UNL     1     -42.111  58.756 -51.118  1.00  0.00     0.030 A 
HETATM   27  N   UNL     1     -43.456  56.649 -51.364  1.00  0.00    -0.365 N 
HETATM   28  C   UNL     1     -41.029  59.450 -51.664  1.00  0.00     0.002 A 
HETATM   29  C   UNL     1     -40.312  58.925 -52.735  1.00  0.00     0.001 A 
HETATM   30  H   UNL     1     -44.136  56.804 -50.635  1.00  0.00     0.165 HD
HETATM   31  C   UNL     1     -43.423  55.560 -52.191  1.00  0.00     0.097 A 
ENDBRANCH  21  22
BRANCH  21  32
HETATM   32  C   UNL     1     -41.163  53.626 -53.502  1.00  0.00    -0.048 A 
HETATM   33  C   UNL     1     -40.733  52.536 -54.278  1.00  0.00     0.011 A 
HETATM   34  C   UNL     1     -40.032  51.472 -53.702  1.00  0.00     0.037 A 
HETATM   35  C   UNL     1     -39.745  51.464 -52.338  1.00  0.00     0.068 A 
HETATM   36  C   UNL     1     -40.173  52.532 -51.552  1.00  0.00     0.037 A 
HETATM   37  C   UNL     1     -40.874  53.599 -52.129  1.00  0.00     0.011 A 
BRANCH  35  38
HETATM   38  O   UNL     1     -39.055  50.367 -51.903  1.00  0.00    -0.356 OA
HETATM   39  C   UNL     1     -39.524  49.744 -50.714  1.00  0.00     0.210 C 
ENDBRANCH  35  38
ENDBRANCH  21  32
ENDBRANCH   1  21
TORSDOF 7
ENDMDL
