MODEL 1
REMARK VINA RESULT:      -8.2      0.000      0.000
REMARK  6 active torsions:
REMARK  status: ('A' for Active; 'I' for Inactive)
REMARK    1  A    between atoms: C_3  and  C_4 
REMARK    2  A    between atoms: C_9  and  O_10 
REMARK    3  A    between atoms: O_10  and  C_11 
REMARK    4  A    between atoms: C_11  and  C_12 
REMARK       I    between atoms: C_12  and  N_13 
REMARK    5  A    between atoms: N_13  and  C_14 
REMARK    6  A    between atoms: C_21  and  C_22 
REMARK       I    between atoms: C_22  and  N_23 
ROOT
HETATM    1  C   UNL     1     -43.831  57.598 -54.994  1.00  0.00     0.246 C 
HETATM    2  N   UNL     1     -43.694  57.988 -56.317  1.00  0.00    -0.325 N 
HETATM    3  O   UNL     1     -44.821  57.084 -54.483  1.00  0.00    -0.271 OA
HETATM    4  H   UNL     1     -42.792  58.381 -56.562  1.00  0.00     0.169 HD
ENDROOT
BRANCH   2   5
HETATM    5  C   UNL     1     -44.654  57.881 -57.345  1.00  0.00     0.035 A 
HETATM    6  C   UNL     1     -44.610  56.901 -58.347  1.00  0.00     0.046 A 
HETATM    7  C   UNL     1     -45.605  56.877 -59.349  1.00  0.00     0.030 A 
HETATM    8  C   UNL     1     -46.606  57.838 -59.320  1.00  0.00     0.063 A 
HETATM    9  C   UNL     1     -45.900  56.065 -60.486  1.00  0.00     0.156 A 
HETATM   10  N   UNL     1     -47.396  57.569 -60.404  1.00  0.00    -0.277 N 
HETATM   11  C   UNL     1     -46.686  58.826 -58.337  1.00  0.00     0.034 A 
HETATM   12  H   UNL     1     -48.222  58.075 -60.702  1.00  0.00     0.189 HD
HETATM   13  N   UNL     1     -47.007  56.507 -61.128  1.00  0.00    -0.168 NA
HETATM   14  C   UNL     1     -45.694  58.820 -57.347  1.00  0.00     0.032 A 
BRANCH   9  15
HETATM   15  C   UNL     1     -45.161  54.887 -60.963  1.00  0.00     0.270 C 
HETATM   16  N   UNL     1     -44.840  53.991 -59.978  1.00  0.00    -0.365 N 
HETATM   17  H   UNL     1     -45.113  54.199 -59.025  1.00  0.00     0.159 HD
HETATM   18  H   UNL     1     -44.317  53.163 -60.211  1.00  0.00     0.159 HD
HETATM   19  O   UNL     1     -44.836  54.688 -62.126  1.00  0.00    -0.266 OA
ENDBRANCH   9  15
ENDBRANCH   2   5
BRANCH   1  20
HETATM   20  C   UNL     1     -42.543  57.751 -54.186  1.00  0.00     0.278 C 
BRANCH  20  21
HETATM   21  O   UNL     1     -41.441  57.079 -54.792  1.00  0.00    -0.342 OA
BRANCH  21  22
HETATM   22  C   UNL     1     -41.228  55.812 -54.312  1.00  0.00     0.069 A 
HETATM   23  C   UNL     1     -40.550  54.942 -55.157  1.00  0.00     0.037 A 
HETATM   24  C   UNL     1     -40.265  53.636 -54.745  1.00  0.00     0.011 A 
HETATM   25  C   UNL     1     -40.657  53.166 -53.477  1.00  0.00    -0.049 A 
HETATM   26  C   UNL     1     -41.392  54.037 -52.641  1.00  0.00    -0.053 A 
HETATM   27  C   UNL     1     -41.895  53.613 -51.285  1.00  0.00     0.049 C 
HETATM   28  C   UNL     1     -41.668  55.350 -53.071  1.00  0.00     0.044 A 
BRANCH  25  29
HETATM   29  C   UNL     1     -40.329  51.739 -53.047  1.00  0.00     0.011 C 
HETATM   30  C   UNL     1     -40.099  50.850 -54.271  1.00  0.00     0.015 C 
HETATM   31  C   UNL     1     -39.142  51.636 -52.081  1.00  0.00     0.015 C 
ENDBRANCH  25  29
ENDBRANCH  21  22
ENDBRANCH  20  21
ENDBRANCH   1  20
TORSDOF 6
ENDMDL
MODEL 2
REMARK VINA RESULT:      -8.1      3.953      8.300
REMARK  6 active torsions:
REMARK  status: ('A' for Active; 'I' for Inactive)
REMARK    1  A    between atoms: C_3  and  C_4 
REMARK    2  A    between atoms: C_9  and  O_10 
REMARK    3  A    between atoms: O_10  and  C_11 
REMARK    4  A    between atoms: C_11  and  C_12 
REMARK       I    between atoms: C_12  and  N_13 
REMARK    5  A    between atoms: N_13  and  C_14 
REMARK    6  A    between atoms: C_21  and  C_22 
REMARK       I    between atoms: C_22  and  N_23 
ROOT
HETATM    1  C   UNL     1     -42.339  55.347 -55.941  1.00  0.00     0.246 C 
HETATM    2  N   UNL     1     -41.193  55.287 -55.164  1.00  0.00    -0.325 N 
HETATM    3  O   UNL     1     -43.259  54.536 -55.948  1.00  0.00    -0.271 OA
HETATM    4  H   UNL     1     -40.548  56.061 -55.282  1.00  0.00     0.169 HD
ENDROOT
BRANCH   2   5
HETATM    5  C   UNL     1     -40.843  54.290 -54.229  1.00  0.00     0.035 A 
HETATM    6  C   UNL     1     -41.062  54.410 -52.849  1.00  0.00     0.046 A 
HETATM    7  C   UNL     1     -40.665  53.368 -51.982  1.00  0.00     0.030 A 
HETATM    8  C   UNL     1     -40.056  52.245 -52.523  1.00  0.00     0.063 A 
HETATM    9  C   UNL     1     -40.724  53.122 -50.577  1.00  0.00     0.156 A 
HETATM   10  N   UNL     1     -39.780  51.435 -51.455  1.00  0.00    -0.277 N 
HETATM   11  C   UNL     1     -39.825  52.086 -53.891  1.00  0.00     0.034 A 
HETATM   12  H   UNL     1     -39.327  50.528 -51.474  1.00  0.00     0.189 HD
HETATM   13  N   UNL     1     -40.170  51.926 -50.268  1.00  0.00    -0.168 NA
HETATM   14  C   UNL     1     -40.240  53.129 -54.731  1.00  0.00     0.032 A 
BRANCH   9  15
HETATM   15  C   UNL     1     -41.294  53.990 -49.537  1.00  0.00     0.270 C 
HETATM   16  N   UNL     1     -40.496  54.142 -48.435  1.00  0.00    -0.365 N 
HETATM   17  H   UNL     1     -39.609  53.654 -48.408  1.00  0.00     0.159 HD
HETATM   18  H   UNL     1     -40.815  54.706 -47.665  1.00  0.00     0.159 HD
HETATM   19  O   UNL     1     -42.384  54.544 -49.608  1.00  0.00    -0.266 OA
ENDBRANCH   9  15
ENDBRANCH   2   5
BRANCH   1  20
HETATM   20  C   UNL     1     -42.446  56.635 -56.756  1.00  0.00     0.278 C 
BRANCH  20  21
HETATM   21  O   UNL     1     -43.326  57.584 -56.155  1.00  0.00    -0.342 OA
BRANCH  21  22
HETATM   22  C   UNL     1     -42.981  57.929 -54.873  1.00  0.00     0.069 A 
HETATM   23  C   UNL     1     -41.873  58.758 -54.738  1.00  0.00     0.037 A 
HETATM   24  C   UNL     1     -41.460  59.183 -53.472  1.00  0.00     0.011 A 
HETATM   25  C   UNL     1     -42.142  58.785 -52.306  1.00  0.00    -0.049 A 
HETATM   26  C   UNL     1     -43.236  57.900 -52.443  1.00  0.00    -0.053 A 
HETATM   27  C   UNL     1     -44.002  57.381 -51.254  1.00  0.00     0.049 C 
HETATM   28  C   UNL     1     -43.640  57.484 -53.727  1.00  0.00     0.044 A 
BRANCH  25  29
HETATM   29  C   UNL     1     -41.676  59.266 -50.935  1.00  0.00     0.011 C 
HETATM   30  C   UNL     1     -40.148  59.246 -50.851  1.00  0.00     0.015 C 
HETATM   31  C   UNL     1     -42.214  60.649 -50.545  1.00  0.00     0.015 C 
ENDBRANCH  25  29
ENDBRANCH  21  22
ENDBRANCH  20  21
ENDBRANCH   1  20
TORSDOF 6
ENDMDL
MODEL 3
REMARK VINA RESULT:      -7.9      2.113      2.683
REMARK  6 active torsions:
REMARK  status: ('A' for Active; 'I' for Inactive)
REMARK    1  A    between atoms: C_3  and  C_4 
REMARK    2  A    between atoms: C_9  and  O_10 
REMARK    3  A    between atoms: O_10  and  C_11 
REMARK    4  A    between atoms: C_11  and  C_12 
REMARK       I    between atoms: C_12  and  N_13 
REMARK    5  A    between atoms: N_13  and  C_14 
REMARK    6  A    between atoms: C_21  and  C_22 
REMARK       I    between atoms: C_22  and  N_23 
ROOT
HETATM    1  C   UNL     1     -43.543  57.857 -53.907  1.00  0.00     0.246 C 
HETATM    2  N   UNL     1     -42.587  57.479 -54.836  1.00  0.00    -0.325 N 
HETATM    3  O   UNL     1     -44.630  58.373 -54.147  1.00  0.00    -0.271 OA
HETATM    4  H   UNL     1     -41.753  57.049 -54.450  1.00  0.00     0.169 HD
ENDROOT
BRANCH   2   5
HETATM    5  C   UNL     1     -42.657  57.609 -56.239  1.00  0.00     0.035 A 
HETATM    6  C   UNL     1     -43.336  56.705 -57.068  1.00  0.00     0.046 A 
HETATM    7  C   UNL     1     -43.341  56.903 -58.467  1.00  0.00     0.030 A 
HETATM    8  C   UNL     1     -42.662  57.995 -58.990  1.00  0.00     0.063 A 
HETATM    9  C   UNL     1     -43.905  56.238 -59.597  1.00  0.00     0.156 A 
HETATM   10  N   UNL     1     -42.834  57.912 -60.344  1.00  0.00    -0.277 N 
HETATM   11  C   UNL     1     -41.979  58.919 -58.196  1.00  0.00     0.034 A 
HETATM   12  H   UNL     1     -42.468  58.542 -61.049  1.00  0.00     0.189 HD
HETATM   13  N   UNL     1     -43.580  56.871 -60.749  1.00  0.00    -0.168 NA
HETATM   14  C   UNL     1     -41.999  58.707 -56.811  1.00  0.00     0.032 A 
BRANCH   9  15
HETATM   15  C   UNL     1     -44.740  55.028 -59.602  1.00  0.00     0.270 C 
HETATM   16  N   UNL     1     -46.048  55.253 -59.940  1.00  0.00    -0.365 N 
HETATM   17  H   UNL     1     -46.341  56.201 -60.143  1.00  0.00     0.159 HD
HETATM   18  H   UNL     1     -46.697  54.484 -59.951  1.00  0.00     0.159 HD
HETATM   19  O   UNL     1     -44.344  53.903 -59.328  1.00  0.00    -0.266 OA
ENDBRANCH   9  15
ENDBRANCH   2   5
BRANCH   1  20
HETATM   20  C   UNL     1     -43.185  57.454 -52.477  1.00  0.00     0.278 C 
BRANCH  20  21
HETATM   21  O   UNL     1     -43.662  56.151 -52.146  1.00  0.00    -0.342 OA
BRANCH  21  22
HETATM   22  C   UNL     1     -42.671  55.209 -52.030  1.00  0.00     0.069 A 
HETATM   23  C   UNL     1     -42.625  54.242 -53.027  1.00  0.00     0.037 A 
HETATM   24  C   UNL     1     -41.636  53.254 -53.006  1.00  0.00     0.011 A 
HETATM   25  C   UNL     1     -40.669  53.205 -51.984  1.00  0.00    -0.049 A 
HETATM   26  C   UNL     1     -40.751  54.159 -50.943  1.00  0.00    -0.053 A 
HETATM   27  C   UNL     1     -39.792  54.163 -49.781  1.00  0.00     0.049 C 
HETATM   28  C   UNL     1     -41.753  55.149 -50.981  1.00  0.00     0.044 A 
BRANCH  25  29
HETATM   29  C   UNL     1     -39.595  52.121 -51.986  1.00  0.00     0.011 C 
HETATM   30  C   UNL     1     -39.929  51.034 -50.963  1.00  0.00     0.015 C 
HETATM   31  C   UNL     1     -39.343  51.498 -53.364  1.00  0.00     0.015 C 
ENDBRANCH  25  29
ENDBRANCH  21  22
ENDBRANCH  20  21
ENDBRANCH   1  20
TORSDOF 6
ENDMDL
MODEL 4
REMARK VINA RESULT:      -7.8      3.821      8.176
REMARK  6 active torsions:
REMARK  status: ('A' for Active; 'I' for Inactive)
REMARK    1  A    between atoms: C_3  and  C_4 
REMARK    2  A    between atoms: C_9  and  O_10 
REMARK    3  A    between atoms: O_10  and  C_11 
REMARK    4  A    between atoms: C_11  and  C_12 
REMARK       I    between atoms: C_12  and  N_13 
REMARK    5  A    between atoms: N_13  and  C_14 
REMARK    6  A    between atoms: C_21  and  C_22 
REMARK       I    between atoms: C_22  and  N_23 
ROOT
HETATM    1  C   UNL     1     -41.467  58.930 -53.654  1.00  0.00     0.246 C 
HETATM    2  N   UNL     1     -42.161  57.811 -53.224  1.00  0.00    -0.325 N 
HETATM    3  O   UNL     1     -40.291  59.194 -53.422  1.00  0.00    -0.271 OA
HETATM    4  H   UNL     1     -43.127  57.755 -53.531  1.00  0.00     0.169 HD
ENDROOT
BRANCH   2   5
HETATM    5  C   UNL     1     -41.671  56.750 -52.434  1.00  0.00     0.035 A 
HETATM    6  C   UNL     1     -41.283  55.509 -52.958  1.00  0.00     0.046 A 
HETATM    7  C   UNL     1     -40.819  54.495 -52.090  1.00  0.00     0.030 A 
HETATM    8  C   UNL     1     -40.765  54.754 -50.727  1.00  0.00     0.063 A 
HETATM    9  C   UNL     1     -40.340  53.158 -52.235  1.00  0.00     0.156 A 
HETATM   10  N   UNL     1     -40.297  53.601 -50.160  1.00  0.00    -0.277 N 
HETATM   11  C   UNL     1     -41.138  55.978 -50.169  1.00  0.00     0.034 A 
HETATM   12  H   UNL     1     -40.137  53.424 -49.174  1.00  0.00     0.189 HD
HETATM   13  N   UNL     1     -40.025  52.619 -51.034  1.00  0.00    -0.168 NA
HETATM   14  C   UNL     1     -41.584  56.971 -51.052  1.00  0.00     0.032 A 
BRANCH   9  15
HETATM   15  C   UNL     1     -40.174  52.394 -53.480  1.00  0.00     0.270 C 
HETATM   16  N   UNL     1     -39.688  51.127 -53.299  1.00  0.00    -0.365 N 
HETATM   17  H   UNL     1     -39.473  50.820 -52.359  1.00  0.00     0.159 HD
HETATM   18  H   UNL     1     -39.526  50.539 -54.100  1.00  0.00     0.159 HD
HETATM   19  O   UNL     1     -40.431  52.818 -54.600  1.00  0.00    -0.266 OA
ENDBRANCH   9  15
ENDBRANCH   2   5
BRANCH   1  20
HETATM   20  C   UNL     1     -42.279  59.816 -54.598  1.00  0.00     0.278 C 
BRANCH  20  21
HETATM   21  O   UNL     1     -41.695  59.902 -55.896  1.00  0.00    -0.342 OA
BRANCH  21  22
HETATM   22  C   UNL     1     -42.315  59.122 -56.839  1.00  0.00     0.069 A 
HETATM   23  C   UNL     1     -43.541  58.578 -56.474  1.00  0.00     0.037 A 
HETATM   24  C   UNL     1     -44.260  57.789 -57.377  1.00  0.00     0.011 A 
HETATM   25  C   UNL     1     -43.767  57.519 -58.668  1.00  0.00    -0.049 A 
HETATM   26  C   UNL     1     -42.497  58.030 -59.017  1.00  0.00    -0.053 A 
HETATM   27  C   UNL     1     -41.863  57.760 -60.358  1.00  0.00     0.049 C 
HETATM   28  C   UNL     1     -41.787  58.826 -58.096  1.00  0.00     0.044 A 
BRANCH  25  29
HETATM   29  C   UNL     1     -44.573  56.660 -59.639  1.00  0.00     0.011 C 
HETATM   30  C   UNL     1     -44.242  55.179 -59.445  1.00  0.00     0.015 C 
HETATM   31  C   UNL     1     -46.088  56.884 -59.558  1.00  0.00     0.015 C 
ENDBRANCH  25  29
ENDBRANCH  21  22
ENDBRANCH  20  21
ENDBRANCH   1  20
TORSDOF 6
ENDMDL
MODEL 5
REMARK VINA RESULT:      -7.7      1.565      2.435
REMARK  6 active torsions:
REMARK  status: ('A' for Active; 'I' for Inactive)
REMARK    1  A    between atoms: C_3  and  C_4 
REMARK    2  A    between atoms: C_9  and  O_10 
REMARK    3  A    between atoms: O_10  and  C_11 
REMARK    4  A    between atoms: C_11  and  C_12 
REMARK       I    between atoms: C_12  and  N_13 
REMARK    5  A    between atoms: N_13  and  C_14 
REMARK    6  A    between atoms: C_21  and  C_22 
REMARK       I    between atoms: C_22  and  N_23 
ROOT
HETATM    1  C   UNL     1     -43.205  57.061 -54.985  1.00  0.00     0.246 C 
HETATM    2  N   UNL     1     -42.845  57.296 -56.303  1.00  0.00    -0.325 N 
HETATM    3  O   UNL     1     -44.239  56.528 -54.595  1.00  0.00    -0.271 OA
HETATM    4  H   UNL     1     -41.940  57.735 -56.433  1.00  0.00     0.169 HD
ENDROOT
BRANCH   2   5
HETATM    5  C   UNL     1     -43.584  56.979 -57.462  1.00  0.00     0.035 A 
HETATM    6  C   UNL     1     -44.663  57.743 -57.927  1.00  0.00     0.046 A 
HETATM    7  C   UNL     1     -45.358  57.342 -59.089  1.00  0.00     0.030 A 
HETATM    8  C   UNL     1     -44.956  56.186 -59.743  1.00  0.00     0.063 A 
HETATM    9  C   UNL     1     -46.457  57.840 -59.854  1.00  0.00     0.156 A 
HETATM   10  N   UNL     1     -45.811  56.055 -60.803  1.00  0.00    -0.277 N 
HETATM   11  C   UNL     1     -43.883  55.402 -59.314  1.00  0.00     0.034 A 
HETATM   12  H   UNL     1     -45.818  55.316 -61.497  1.00  0.00     0.189 HD
HETATM   13  N   UNL     1     -46.726  57.032 -60.906  1.00  0.00    -0.168 NA
HETATM   14  C   UNL     1     -43.203  55.828 -58.166  1.00  0.00     0.032 A 
BRANCH   9  15
HETATM   15  C   UNL     1     -47.242  59.058 -59.606  1.00  0.00     0.270 C 
HETATM   16  N   UNL     1     -47.736  59.156 -58.333  1.00  0.00    -0.365 N 
HETATM   17  H   UNL     1     -47.545  58.407 -57.679  1.00  0.00     0.159 HD
HETATM   18  H   UNL     1     -48.302  59.949 -58.080  1.00  0.00     0.159 HD
HETATM   19  O   UNL     1     -47.464  59.929 -60.438  1.00  0.00    -0.266 OA
ENDBRANCH   9  15
ENDBRANCH   2   5
BRANCH   1  20
HETATM   20  C   UNL     1     -42.106  57.426 -53.987  1.00  0.00     0.278 C 
BRANCH  20  21
HETATM   21  O   UNL     1     -40.853  56.835 -54.323  1.00  0.00    -0.342 OA
BRANCH  21  22
HETATM   22  C   UNL     1     -40.741  55.519 -53.952  1.00  0.00     0.069 A 
HETATM   23  C   UNL     1     -40.315  54.638 -54.940  1.00  0.00     0.037 A 
HETATM   24  C   UNL     1     -40.148  53.280 -54.650  1.00  0.00     0.011 A 
HETATM   25  C   UNL     1     -40.407  52.768 -53.364  1.00  0.00    -0.049 A 
HETATM   26  C   UNL     1     -40.890  53.657 -52.377  1.00  0.00    -0.053 A 
HETATM   27  C   UNL     1     -41.239  53.198 -50.985  1.00  0.00     0.049 C 
HETATM   28  C   UNL     1     -41.050  55.022 -52.686  1.00  0.00     0.044 A 
BRANCH  25  29
HETATM   29  C   UNL     1     -40.211  51.283 -53.070  1.00  0.00     0.011 C 
HETATM   30  C   UNL     1     -40.059  50.494 -54.372  1.00  0.00     0.015 C 
HETATM   31  C   UNL     1     -39.040  50.985 -52.125  1.00  0.00     0.015 C 
ENDBRANCH  25  29
ENDBRANCH  21  22
ENDBRANCH  20  21
ENDBRANCH   1  20
TORSDOF 6
ENDMDL
MODEL 6
REMARK VINA RESULT:      -7.7      2.886      5.008
REMARK  6 active torsions:
REMARK  status: ('A' for Active; 'I' for Inactive)
REMARK    1  A    between atoms: C_3  and  C_4 
REMARK    2  A    between atoms: C_9  and  O_10 
REMARK    3  A    between atoms: O_10  and  C_11 
REMARK    4  A    between atoms: C_11  and  C_12 
REMARK       I    between atoms: C_12  and  N_13 
REMARK    5  A    between atoms: N_13  and  C_14 
REMARK    6  A    between atoms: C_21  and  C_22 
REMARK       I    between atoms: C_22  and  N_23 
ROOT
HETATM    1  C   UNL     1     -41.962  56.109 -50.367  1.00  0.00     0.246 C 
HETATM    2  N   UNL     1     -43.155  55.958 -51.056  1.00  0.00    -0.325 N 
HETATM    3  O   UNL     1     -41.268  57.119 -50.323  1.00  0.00    -0.271 OA
HETATM    4  H   UNL     1     -43.599  55.050 -50.962  1.00  0.00     0.169 HD
ENDROOT
BRANCH   2   5
HETATM    5  C   UNL     1     -43.816  56.922 -51.847  1.00  0.00     0.035 A 
HETATM    6  C   UNL     1     -43.746  56.956 -53.247  1.00  0.00     0.046 A 
HETATM    7  C   UNL     1     -44.426  57.969 -53.959  1.00  0.00     0.030 A 
HETATM    8  C   UNL     1     -45.149  58.916 -53.247  1.00  0.00     0.063 A 
HETATM    9  C   UNL     1     -44.600  58.320 -55.332  1.00  0.00     0.156 A 
HETATM   10  N   UNL     1     -45.673  59.754 -54.192  1.00  0.00    -0.277 N 
HETATM   11  C   UNL     1     -45.246  58.912 -51.854  1.00  0.00     0.034 A 
HETATM   12  H   UNL     1     -46.254  60.570 -54.034  1.00  0.00     0.189 HD
HETATM   13  N   UNL     1     -45.370  59.426 -55.459  1.00  0.00    -0.168 NA
HETATM   14  C   UNL     1     -44.572  57.890 -51.172  1.00  0.00     0.032 A 
BRANCH   9  15
HETATM   15  C   UNL     1     -44.058  57.628 -56.510  1.00  0.00     0.270 C 
HETATM   16  N   UNL     1     -44.969  57.438 -57.515  1.00  0.00    -0.365 N 
HETATM   17  H   UNL     1     -45.918  57.763 -57.378  1.00  0.00     0.159 HD
HETATM   18  H   UNL     1     -44.689  56.957 -58.354  1.00  0.00     0.159 HD
HETATM   19  O   UNL     1     -42.904  57.236 -56.622  1.00  0.00    -0.266 OA
ENDBRANCH   9  15
ENDBRANCH   2   5
BRANCH   1  20
HETATM   20  C   UNL     1     -41.603  54.893 -49.513  1.00  0.00     0.278 C 
BRANCH  20  21
HETATM   21  O   UNL     1     -40.294  54.402 -49.795  1.00  0.00    -0.342 OA
BRANCH  21  22
HETATM   22  C   UNL     1     -40.224  53.617 -50.917  1.00  0.00     0.069 A 
HETATM   23  C   UNL     1     -39.912  52.278 -50.709  1.00  0.00     0.037 A 
HETATM   24  C   UNL     1     -39.841  51.394 -51.791  1.00  0.00     0.011 A 
HETATM   25  C   UNL     1     -40.076  51.829 -53.109  1.00  0.00    -0.049 A 
HETATM   26  C   UNL     1     -40.340  53.201 -53.322  1.00  0.00    -0.053 A 
HETATM   27  C   UNL     1     -40.560  53.772 -54.699  1.00  0.00     0.049 C 
HETATM   28  C   UNL     1     -40.411  54.077 -52.221  1.00  0.00     0.044 A 
BRANCH  25  29
HETATM   29  C   UNL     1     -39.998  50.844 -54.273  1.00  0.00     0.011 C 
HETATM   30  C   UNL     1     -38.900  49.808 -54.026  1.00  0.00     0.015 C 
HETATM   31  C   UNL     1     -41.328  50.148 -54.588  1.00  0.00     0.015 C 
ENDBRANCH  25  29
ENDBRANCH  21  22
ENDBRANCH  20  21
ENDBRANCH   1  20
TORSDOF 6
ENDMDL
MODEL 7
REMARK VINA RESULT:      -7.6     15.901     19.543
REMARK  6 active torsions:
REMARK  status: ('A' for Active; 'I' for Inactive)
REMARK    1  A    between atoms: C_3  and  C_4 
REMARK    2  A    between atoms: C_9  and  O_10 
REMARK    3  A    between atoms: O_10  and  C_11 
REMARK    4  A    between atoms: C_11  and  C_12 
REMARK       I    between atoms: C_12  and  N_13 
REMARK    5  A    between atoms: N_13  and  C_14 
REMARK    6  A    between atoms: C_21  and  C_22 
REMARK       I    between atoms: C_22  and  N_23 
ROOT
HETATM    1  C   UNL     1     -35.835  41.973 -53.439  1.00  0.00     0.246 C 
HETATM    2  N   UNL     1     -35.974  40.633 -53.112  1.00  0.00    -0.325 N 
HETATM    3  O   UNL     1     -35.441  42.867 -52.697  1.00  0.00    -0.271 OA
HETATM    4  H   UNL     1     -36.299  40.036 -53.865  1.00  0.00     0.169 HD
ENDROOT
BRANCH   2   5
HETATM    5  C   UNL     1     -35.700  40.020 -51.872  1.00  0.00     0.035 A 
HETATM    6  C   UNL     1     -34.440  40.046 -51.257  1.00  0.00     0.046 A 
HETATM    7  C   UNL     1     -34.249  39.390 -50.020  1.00  0.00     0.030 A 
HETATM    8  C   UNL     1     -35.322  38.726 -49.443  1.00  0.00     0.063 A 
HETATM    9  C   UNL     1     -33.164  39.207 -49.111  1.00  0.00     0.156 A 
HETATM   10  N   UNL     1     -34.834  38.191 -48.284  1.00  0.00    -0.277 N 
HETATM   11  C   UNL     1     -36.592  38.683 -50.022  1.00  0.00     0.034 A 
HETATM   12  H   UNL     1     -35.339  37.630 -47.606  1.00  0.00     0.189 HD
HETATM   13  N   UNL     1     -33.540  38.462 -48.045  1.00  0.00    -0.168 NA
HETATM   14  C   UNL     1     -36.759  39.351 -51.243  1.00  0.00     0.032 A 
BRANCH   9  15
HETATM   15  C   UNL     1     -31.794  39.726 -49.233  1.00  0.00     0.270 C 
HETATM   16  N   UNL     1     -31.242  40.132 -48.048  1.00  0.00    -0.365 N 
HETATM   17  H   UNL     1     -31.798  40.062 -47.204  1.00  0.00     0.159 HD
HETATM   18  H   UNL     1     -30.312  40.519 -48.039  1.00  0.00     0.159 HD
HETATM   19  O   UNL     1     -31.168  39.810 -50.282  1.00  0.00    -0.266 OA
ENDBRANCH   9  15
ENDBRANCH   2   5
BRANCH   1  20
HETATM   20  C   UNL     1     -36.108  42.265 -54.914  1.00  0.00     0.278 C 
BRANCH  20  21
HETATM   21  O   UNL     1     -37.404  41.829 -55.320  1.00  0.00    -0.342 OA
BRANCH  21  22
HETATM   22  C   UNL     1     -37.453  41.350 -56.605  1.00  0.00     0.069 A 
HETATM   23  C   UNL     1     -37.579  39.973 -56.741  1.00  0.00     0.037 A 
HETATM   24  C   UNL     1     -37.661  39.395 -58.012  1.00  0.00     0.011 A 
HETATM   25  C   UNL     1     -37.614  40.180 -59.179  1.00  0.00    -0.049 A 
HETATM   26  C   UNL     1     -37.433  41.575 -59.038  1.00  0.00    -0.053 A 
HETATM   27  C   UNL     1     -37.325  42.495 -60.226  1.00  0.00     0.049 C 
HETATM   28  C   UNL     1     -37.355  42.141 -57.750  1.00  0.00     0.044 A 
BRANCH  25  29
HETATM   29  C   UNL     1     -37.712  39.527 -60.555  1.00  0.00     0.011 C 
HETATM   30  C   UNL     1     -36.363  38.931 -60.962  1.00  0.00     0.015 C 
HETATM   31  C   UNL     1     -38.818  38.470 -60.665  1.00  0.00     0.015 C 
ENDBRANCH  25  29
ENDBRANCH  21  22
ENDBRANCH  20  21
ENDBRANCH   1  20
TORSDOF 6
ENDMDL
MODEL 8
REMARK VINA RESULT:      -7.6     16.028     19.633
REMARK  6 active torsions:
REMARK  status: ('A' for Active; 'I' for Inactive)
REMARK    1  A    between atoms: C_3  and  C_4 
REMARK    2  A    between atoms: C_9  and  O_10 
REMARK    3  A    between atoms: O_10  and  C_11 
REMARK    4  A    between atoms: C_11  and  C_12 
REMARK       I    between atoms: C_12  and  N_13 
REMARK    5  A    between atoms: N_13  and  C_14 
REMARK    6  A    between atoms: C_21  and  C_22 
REMARK       I    between atoms: C_22  and  N_23 
ROOT
HETATM    1  C   UNL     1     -35.309  41.953 -53.608  1.00  0.00     0.246 C 
HETATM    2  N   UNL     1     -34.424  40.896 -53.462  1.00  0.00    -0.325 N 
HETATM    3  O   UNL     1     -35.758  42.658 -52.710  1.00  0.00    -0.271 OA
HETATM    4  H   UNL     1     -34.149  40.439 -54.324  1.00  0.00     0.169 HD
ENDROOT
BRANCH   2   5
HETATM    5  C   UNL     1     -33.861  40.410 -52.263  1.00  0.00     0.035 A 
HETATM    6  C   UNL     1     -34.610  39.796 -51.249  1.00  0.00     0.046 A 
HETATM    7  C   UNL     1     -33.966  39.353 -50.072  1.00  0.00     0.030 A 
HETATM    8  C   UNL     1     -32.597  39.545 -49.946  1.00  0.00     0.063 A 
HETATM    9  C   UNL     1     -34.363  38.698 -48.868  1.00  0.00     0.156 A 
HETATM   10  N   UNL     1     -32.273  39.034 -48.719  1.00  0.00    -0.277 N 
HETATM   11  C   UNL     1     -31.818  40.147 -50.936  1.00  0.00     0.034 A 
HETATM   12  H   UNL     1     -31.356  39.010 -48.288  1.00  0.00     0.189 HD
HETATM   13  N   UNL     1     -33.307  38.511 -48.041  1.00  0.00    -0.168 NA
HETATM   14  C   UNL     1     -32.478  40.567 -52.098  1.00  0.00     0.032 A 
BRANCH   9  15
HETATM   15  C   UNL     1     -35.712  38.247 -48.495  1.00  0.00     0.270 C 
HETATM   16  N   UNL     1     -36.133  37.129 -49.163  1.00  0.00    -0.365 N 
HETATM   17  H   UNL     1     -35.516  36.713 -49.851  1.00  0.00     0.159 HD
HETATM   18  H   UNL     1     -37.053  36.760 -48.984  1.00  0.00     0.159 HD
HETATM   19  O   UNL     1     -36.431  38.796 -47.669  1.00  0.00    -0.266 OA
ENDBRANCH   9  15
ENDBRANCH   2   5
BRANCH   1  20
HETATM   20  C   UNL     1     -35.617  42.282 -55.068  1.00  0.00     0.278 C 
BRANCH  20  21
HETATM   21  O   UNL     1     -36.983  42.042 -55.400  1.00  0.00    -0.342 OA
BRANCH  21  22
HETATM   22  C   UNL     1     -37.168  41.522 -56.656  1.00  0.00     0.069 A 
HETATM   23  C   UNL     1     -37.352  40.146 -56.729  1.00  0.00     0.037 A 
HETATM   24  C   UNL     1     -37.572  39.528 -57.964  1.00  0.00     0.011 A 
HETATM   25  C   UNL     1     -37.609  40.271 -59.159  1.00  0.00    -0.049 A 
HETATM   26  C   UNL     1     -37.370  41.662 -59.087  1.00  0.00    -0.053 A 
HETATM   27  C   UNL     1     -37.344  42.537 -60.314  1.00  0.00     0.049 C 
HETATM   28  C   UNL     1     -37.152  42.269 -57.834  1.00  0.00     0.044 A 
BRANCH  25  29
HETATM   29  C   UNL     1     -37.857  39.575 -60.494  1.00  0.00     0.011 C 
HETATM   30  C   UNL     1     -36.551  39.006 -61.052  1.00  0.00     0.015 C 
HETATM   31  C   UNL     1     -38.934  38.484 -60.437  1.00  0.00     0.015 C 
ENDBRANCH  25  29
ENDBRANCH  21  22
ENDBRANCH  20  21
ENDBRANCH   1  20
TORSDOF 6
ENDMDL
MODEL 9
REMARK VINA RESULT:      -7.5      3.697      8.793
REMARK  6 active torsions:
REMARK  status: ('A' for Active; 'I' for Inactive)
REMARK    1  A    between atoms: C_3  and  C_4 
REMARK    2  A    between atoms: C_9  and  O_10 
REMARK    3  A    between atoms: O_10  and  C_11 
REMARK    4  A    between atoms: C_11  and  C_12 
REMARK       I    between atoms: C_12  and  N_13 
REMARK    5  A    between atoms: N_13  and  C_14 
REMARK    6  A    between atoms: C_21  and  C_22 
REMARK       I    between atoms: C_22  and  N_23 
ROOT
HETATM    1  C   UNL     1     -41.280  58.728 -54.036  1.00  0.00     0.246 C 
HETATM    2  N   UNL     1     -41.894  57.500 -54.222  1.00  0.00    -0.325 N 
HETATM    3  O   UNL     1     -40.200  58.929 -53.488  1.00  0.00    -0.271 OA
HETATM    4  H   UNL     1     -42.781  57.529 -54.714  1.00  0.00     0.169 HD
ENDROOT
BRANCH   2   5
HETATM    5  C   UNL     1     -41.417  56.234 -53.822  1.00  0.00     0.035 A 
HETATM    6  C   UNL     1     -41.376  55.807 -52.487  1.00  0.00     0.046 A 
HETATM    7  C   UNL     1     -40.866  54.528 -52.175  1.00  0.00     0.030 A 
HETATM    8  C   UNL     1     -40.407  53.721 -53.207  1.00  0.00     0.063 A 
HETATM    9  C   UNL     1     -40.677  53.758 -50.988  1.00  0.00     0.156 A 
HETATM   10  N   UNL     1     -39.971  52.575 -52.602  1.00  0.00    -0.277 N 
HETATM   11  C   UNL     1     -40.436  54.109 -54.548  1.00  0.00     0.034 A 
HETATM   12  H   UNL     1     -39.563  51.762 -53.050  1.00  0.00     0.189 HD
HETATM   13  N   UNL     1     -40.121  52.556 -51.268  1.00  0.00    -0.168 NA
HETATM   14  C   UNL     1     -40.958  55.378 -54.833  1.00  0.00     0.032 A 
BRANCH   9  15
HETATM   15  C   UNL     1     -41.016  54.139 -49.609  1.00  0.00     0.270 C 
HETATM   16  N   UNL     1     -39.960  54.091 -48.739  1.00  0.00    -0.365 N 
HETATM   17  H   UNL     1     -39.056  53.796 -49.089  1.00  0.00     0.159 HD
HETATM   18  H   UNL     1     -40.104  54.319 -47.769  1.00  0.00     0.159 HD
HETATM   19  O   UNL     1     -42.132  54.471 -49.228  1.00  0.00    -0.266 OA
ENDBRANCH   9  15
ENDBRANCH   2   5
BRANCH   1  20
HETATM   20  C   UNL     1     -42.025  59.882 -54.707  1.00  0.00     0.278 C 
BRANCH  20  21
HETATM   21  O   UNL     1     -41.535  60.153 -56.019  1.00  0.00    -0.342 OA
BRANCH  21  22
HETATM   22  C   UNL     1     -42.305  59.622 -57.022  1.00  0.00     0.069 A 
HETATM   23  C   UNL     1     -43.682  59.712 -56.850  1.00  0.00     0.037 A 
HETATM   24  C   UNL     1     -44.549  59.220 -57.831  1.00  0.00     0.011 A 
HETATM   25  C   UNL     1     -44.060  58.622 -59.008  1.00  0.00    -0.049 A 
HETATM   26  C   UNL     1     -42.661  58.485 -59.155  1.00  0.00    -0.053 A 
HETATM   27  C   UNL     1     -42.041  57.819 -60.357  1.00  0.00     0.049 C 
HETATM   28  C   UNL     1     -41.802  58.988 -58.158  1.00  0.00     0.044 A 
BRANCH  25  29
HETATM   29  C   UNL     1     -45.026  58.098 -60.067  1.00  0.00     0.011 C 
HETATM   30  C   UNL     1     -45.698  56.810 -59.589  1.00  0.00     0.015 C 
HETATM   31  C   UNL     1     -46.082  59.120 -60.506  1.00  0.00     0.015 C 
ENDBRANCH  25  29
ENDBRANCH  21  22
ENDBRANCH  20  21
ENDBRANCH   1  20
TORSDOF 6
ENDMDL
MODEL 10
REMARK VINA RESULT:      -7.5      3.270      4.684
REMARK  6 active torsions:
REMARK  status: ('A' for Active; 'I' for Inactive)
REMARK    1  A    between atoms: C_3  and  C_4 
REMARK    2  A    between atoms: C_9  and  O_10 
REMARK    3  A    between atoms: O_10  and  C_11 
REMARK    4  A    between atoms: C_11  and  C_12 
REMARK       I    between atoms: C_12  and  N_13 
REMARK    5  A    between atoms: N_13  and  C_14 
REMARK    6  A    between atoms: C_21  and  C_22 
REMARK       I    between atoms: C_22  and  N_23 
ROOT
HETATM    1  C   UNL     1     -44.194  57.361 -55.513  1.00  0.00     0.246 C 
HETATM    2  N   UNL     1     -42.966  57.373 -56.156  1.00  0.00    -0.325 N 
HETATM    3  O   UNL     1     -45.246  57.826 -55.941  1.00  0.00    -0.271 OA
HETATM    4  H   UNL     1     -42.209  56.923 -55.653  1.00  0.00     0.169 HD
ENDROOT
BRANCH   2   5
HETATM    5  C   UNL     1     -42.667  57.920 -57.422  1.00  0.00     0.035 A 
HETATM    6  C   UNL     1     -42.286  59.255 -57.619  1.00  0.00     0.046 A 
HETATM    7  C   UNL     1     -42.021  59.723 -58.925  1.00  0.00     0.030 A 
HETATM    8  C   UNL     1     -42.153  58.844 -59.990  1.00  0.00     0.063 A 
HETATM    9  C   UNL     1     -41.613  60.960 -59.510  1.00  0.00     0.156 A 
HETATM   10  N   UNL     1     -41.849  59.578 -61.103  1.00  0.00    -0.277 N 
HETATM   11  C   UNL     1     -42.525  57.507 -59.833  1.00  0.00     0.034 A 
HETATM   12  H   UNL     1     -41.848  59.260 -62.066  1.00  0.00     0.189 HD
HETATM   13  N   UNL     1     -41.514  60.855 -60.856  1.00  0.00    -0.168 NA
HETATM   14  C   UNL     1     -42.771  57.064 -58.527  1.00  0.00     0.032 A 
BRANCH   9  15
HETATM   15  C   UNL     1     -41.314  62.223 -58.820  1.00  0.00     0.270 C 
HETATM   16  N   UNL     1     -40.035  62.674 -59.006  1.00  0.00    -0.365 N 
HETATM   17  H   UNL     1     -39.403  62.121 -59.573  1.00  0.00     0.159 HD
HETATM   18  H   UNL     1     -39.736  63.523 -58.555  1.00  0.00     0.159 HD
HETATM   19  O   UNL     1     -42.107  62.847 -58.126  1.00  0.00    -0.266 OA
ENDBRANCH   9  15
ENDBRANCH   2   5
BRANCH   1  20
HETATM   20  C   UNL     1     -44.180  56.573 -54.204  1.00  0.00     0.278 C 
BRANCH  20  21
HETATM   21  O   UNL     1     -44.018  55.172 -54.417  1.00  0.00    -0.342 OA
BRANCH  21  22
HETATM   22  C   UNL     1     -43.002  54.611 -53.685  1.00  0.00     0.069 A 
HETATM   23  C   UNL     1     -42.950  54.961 -52.341  1.00  0.00     0.037 A 
HETATM   24  C   UNL     1     -41.964  54.421 -51.509  1.00  0.00     0.011 A 
HETATM   25  C   UNL     1     -41.001  53.520 -52.003  1.00  0.00    -0.049 A 
HETATM   26  C   UNL     1     -41.026  53.208 -53.381  1.00  0.00    -0.053 A 
HETATM   27  C   UNL     1     -40.012  52.289 -54.014  1.00  0.00     0.049 C 
HETATM   28  C   UNL     1     -42.027  53.758 -54.204  1.00  0.00     0.044 A 
BRANCH  25  29
HETATM   29  C   UNL     1     -39.939  52.939 -51.074  1.00  0.00     0.011 C 
HETATM   30  C   UNL     1     -39.547  53.959 -50.003  1.00  0.00     0.015 C 
HETATM   31  C   UNL     1     -40.340  51.609 -50.424  1.00  0.00     0.015 C 
ENDBRANCH  25  29
ENDBRANCH  21  22
ENDBRANCH  20  21
ENDBRANCH   1  20
TORSDOF 6
ENDMDL
