MODEL 1
REMARK VINA RESULT:      -8.8      0.000      0.000
REMARK  9 active torsions:
REMARK  status: ('A' for Active; 'I' for Inactive)
REMARK    1  A    between atoms: C_4  and  C_5 
REMARK    2  A    between atoms: C_5  and  N_6 
REMARK    3  A    between atoms: C_11  and  C_12 
REMARK       I    between atoms: C_12  and  N_13 
REMARK    4  A    between atoms: C_15  and  N_16 
REMARK       I    between atoms: N_16  and  C_17 
REMARK    5  A    between atoms: C_17  and  C_18 
REMARK    6  A    between atoms: C_18  and  C_19 
REMARK    7  A    between atoms: C_19  and  C_20 
REMARK    8  A    between atoms: C_20  and  S_21 
REMARK    9  A    between atoms: S_21  and  C_22 
ROOT
HETATM    1  N   UNL     1     -42.033  53.788 -53.434  1.00  0.00    -0.063 N 
HETATM    2  H   UNL     1     -42.419  52.860 -53.633  1.00  0.00     0.280 HD
HETATM    3  C   UNL     1     -42.968  54.409 -52.397  1.00  0.00     0.282 C 
HETATM    4  C   UNL     1     -42.802  55.888 -52.342  1.00  0.00     0.018 C 
HETATM    5  C   UNL     1     -42.148  56.656 -53.285  1.00  0.00    -0.023 C 
HETATM    6  C   UNL     1     -42.044  58.035 -52.865  1.00  0.00     0.073 C 
HETATM    7  C   UNL     1     -42.874  58.267 -51.776  1.00  0.00     0.093 C 
HETATM    8  S   UNL     1     -43.471  56.823 -51.101  1.00  0.00    -0.074 SA
HETATM    9  C   UNL     1     -41.579  56.038 -54.534  1.00  0.00     0.068 C 
HETATM   10  C   UNL     1     -42.074  54.590 -54.734  1.00  0.00     0.240 C 
ENDROOT
BRANCH   7  11
HETATM   11  N   UNL     1     -43.184  59.495 -51.209  1.00  0.00    -0.320 N 
HETATM   12  C   UNL     1     -44.061  60.433 -51.739  1.00  0.00     0.222 C 
HETATM   13  O   UNL     1     -44.675  60.342 -52.795  1.00  0.00    -0.273 OA
HETATM   14  H   UNL     1     -42.517  59.843 -50.526  1.00  0.00     0.169 HD
BRANCH  12  15
HETATM   15  C   UNL     1     -44.196  61.649 -50.830  1.00  0.00     0.104 C 
BRANCH  15  16
HETATM   16  C   UNL     1     -44.120  61.313 -49.342  1.00  0.00     0.020 C 
BRANCH  16  17
HETATM   17  C   UNL     1     -45.429  60.985 -48.615  1.00  0.00     0.080 C 
BRANCH  17  18
HETATM   18  S   UNL     1     -46.259  62.351 -47.728  1.00  0.00    -0.130 SA
BRANCH  18  19
HETATM   19  C   UNL     1     -45.412  62.417 -46.159  1.00  0.00     0.000 A 
HETATM   20  C   UNL     1     -45.285  63.578 -45.388  1.00  0.00     0.021 A 
HETATM   21  C   UNL     1     -44.592  63.546 -44.174  1.00  0.00     0.043 A 
HETATM   22  C   UNL     1     -44.049  62.350 -43.721  1.00  0.00     0.116 A 
HETATM   23  F   UNL     1     -43.384  62.323 -42.560  1.00  0.00    -0.206 F 
HETATM   24  C   UNL     1     -44.191  61.182 -44.456  1.00  0.00     0.043 A 
HETATM   25  C   UNL     1     -44.874  61.215 -45.673  1.00  0.00     0.021 A 
ENDBRANCH  18  19
ENDBRANCH  17  18
ENDBRANCH  16  17
ENDBRANCH  15  16
ENDBRANCH  12  15
ENDBRANCH   7  11
BRANCH   6  26
HETATM   26  C   UNL     1     -41.248  59.051 -53.548  1.00  0.00     0.252 C 
HETATM   27  N   UNL     1     -41.920  59.831 -54.448  1.00  0.00    -0.366 N 
HETATM   28  H   UNL     1     -42.920  59.963 -54.345  1.00  0.00     0.159 HD
HETATM   29  H   UNL     1     -41.402  60.639 -54.775  1.00  0.00     0.159 HD
HETATM   30  O   UNL     1     -40.073  59.266 -53.278  1.00  0.00    -0.268 OA
ENDBRANCH   6  26
BRANCH   1  31
HETATM   31  C   UNL     1     -40.616  53.565 -52.958  1.00  0.00     0.273 C 
BRANCH  31  32
HETATM   32  C   UNL     1     -40.177  52.131 -52.837  1.00  0.00    -0.033 A 
HETATM   33  C   UNL     1     -39.847  51.556 -51.601  1.00  0.00     0.009 A 
HETATM   34  C   UNL     1     -39.474  50.212 -51.529  1.00  0.00     0.001 A 
HETATM   35  C   UNL     1     -39.445  49.427 -52.678  1.00  0.00     0.000 A 
HETATM   36  C   UNL     1     -39.789  49.981 -53.908  1.00  0.00     0.001 A 
HETATM   37  C   UNL     1     -40.152  51.324 -53.988  1.00  0.00     0.009 A 
ENDBRANCH  31  32
ENDBRANCH   1  31
TORSDOF 9
ENDMDL
MODEL 2
REMARK VINA RESULT:      -8.5      6.023     10.374
REMARK  9 active torsions:
REMARK  status: ('A' for Active; 'I' for Inactive)
REMARK    1  A    between atoms: C_4  and  C_5 
REMARK    2  A    between atoms: C_5  and  N_6 
REMARK    3  A    between atoms: C_11  and  C_12 
REMARK       I    between atoms: C_12  and  N_13 
REMARK    4  A    between atoms: C_15  and  N_16 
REMARK       I    between atoms: N_16  and  C_17 
REMARK    5  A    between atoms: C_17  and  C_18 
REMARK    6  A    between atoms: C_18  and  C_19 
REMARK    7  A    between atoms: C_19  and  C_20 
REMARK    8  A    between atoms: C_20  and  S_21 
REMARK    9  A    between atoms: S_21  and  C_22 
ROOT
HETATM    1  N   UNL     1     -44.612  57.910 -59.473  1.00  0.00    -0.063 N 
HETATM    2  H   UNL     1     -44.715  58.609 -60.215  1.00  0.00     0.280 HD
HETATM    3  C   UNL     1     -44.647  58.693 -58.162  1.00  0.00     0.282 C 
HETATM    4  C   UNL     1     -44.074  57.893 -57.044  1.00  0.00     0.018 C 
HETATM    5  C   UNL     1     -43.324  56.741 -57.185  1.00  0.00    -0.023 C 
HETATM    6  C   UNL     1     -43.041  56.134 -55.905  1.00  0.00     0.073 C 
HETATM    7  C   UNL     1     -43.345  57.018 -54.878  1.00  0.00     0.093 C 
HETATM    8  S   UNL     1     -44.239  58.359 -55.427  1.00  0.00    -0.074 SA
HETATM    9  C   UNL     1     -42.957  56.213 -58.546  1.00  0.00     0.068 C 
HETATM   10  C   UNL     1     -43.251  57.242 -59.658  1.00  0.00     0.240 C 
ENDROOT
BRANCH   7  11
HETATM   11  N   UNL     1     -43.044  56.870 -53.532  1.00  0.00    -0.320 N 
HETATM   12  C   UNL     1     -41.835  57.200 -52.932  1.00  0.00     0.222 C 
HETATM   13  O   UNL     1     -40.841  57.645 -53.493  1.00  0.00    -0.273 OA
HETATM   14  H   UNL     1     -43.634  56.222 -53.019  1.00  0.00     0.169 HD
BRANCH  12  15
HETATM   15  C   UNL     1     -41.868  56.948 -51.430  1.00  0.00     0.104 C 
BRANCH  15  16
HETATM   16  C   UNL     1     -40.889  55.870 -50.968  1.00  0.00     0.020 C 
BRANCH  16  17
HETATM   17  C   UNL     1     -41.375  54.416 -50.969  1.00  0.00     0.080 C 
BRANCH  17  18
HETATM   18  S   UNL     1     -40.173  53.132 -50.469  1.00  0.00    -0.130 SA
BRANCH  18  19
HETATM   19  C   UNL     1     -40.066  52.069 -51.898  1.00  0.00     0.000 A 
HETATM   20  C   UNL     1     -40.347  52.485 -53.203  1.00  0.00     0.021 A 
HETATM   21  C   UNL     1     -40.251  51.583 -54.268  1.00  0.00     0.043 A 
HETATM   22  C   UNL     1     -39.852  50.274 -54.027  1.00  0.00     0.116 A 
HETATM   23  F   UNL     1     -39.763  49.411 -55.047  1.00  0.00    -0.206 F 
HETATM   24  C   UNL     1     -39.538  49.850 -52.744  1.00  0.00     0.043 A 
HETATM   25  C   UNL     1     -39.643  50.748 -51.680  1.00  0.00     0.021 A 
ENDBRANCH  18  19
ENDBRANCH  17  18
ENDBRANCH  16  17
ENDBRANCH  15  16
ENDBRANCH  12  15
ENDBRANCH   7  11
BRANCH   6  26
HETATM   26  C   UNL     1     -42.437  54.816 -55.729  1.00  0.00     0.252 C 
HETATM   27  N   UNL     1     -41.074  54.766 -55.826  1.00  0.00    -0.366 N 
HETATM   28  H   UNL     1     -40.529  55.597 -55.629  1.00  0.00     0.159 HD
HETATM   29  H   UNL     1     -40.662  53.890 -55.525  1.00  0.00     0.159 HD
HETATM   30  O   UNL     1     -43.086  53.824 -55.423  1.00  0.00    -0.268 OA
ENDBRANCH   6  26
BRANCH   1  31
HETATM   31  C   UNL     1     -45.748  56.928 -59.656  1.00  0.00     0.273 C 
BRANCH  31  32
HETATM   32  C   UNL     1     -46.851  57.359 -60.583  1.00  0.00    -0.033 A 
HETATM   33  C   UNL     1     -47.188  58.709 -60.762  1.00  0.00     0.009 A 
HETATM   34  C   UNL     1     -48.199  59.068 -61.655  1.00  0.00     0.001 A 
HETATM   35  C   UNL     1     -48.868  58.093 -62.390  1.00  0.00     0.000 A 
HETATM   36  C   UNL     1     -48.530  56.752 -62.236  1.00  0.00     0.001 A 
HETATM   37  C   UNL     1     -47.529  56.386 -61.338  1.00  0.00     0.009 A 
ENDBRANCH  31  32
ENDBRANCH   1  31
TORSDOF 9
ENDMDL
MODEL 3
REMARK VINA RESULT:      -8.4      5.733      7.961
REMARK  9 active torsions:
REMARK  status: ('A' for Active; 'I' for Inactive)
REMARK    1  A    between atoms: C_4  and  C_5 
REMARK    2  A    between atoms: C_5  and  N_6 
REMARK    3  A    between atoms: C_11  and  C_12 
REMARK       I    between atoms: C_12  and  N_13 
REMARK    4  A    between atoms: C_15  and  N_16 
REMARK       I    between atoms: N_16  and  C_17 
REMARK    5  A    between atoms: C_17  and  C_18 
REMARK    6  A    between atoms: C_18  and  C_19 
REMARK    7  A    between atoms: C_19  and  C_20 
REMARK    8  A    between atoms: C_20  and  S_21 
REMARK    9  A    between atoms: S_21  and  C_22 
ROOT
HETATM    1  N   UNL     1     -41.071  54.057 -50.830  1.00  0.00    -0.063 N 
HETATM    2  H   UNL     1     -40.849  53.596 -49.942  1.00  0.00     0.280 HD
HETATM    3  C   UNL     1     -41.095  55.553 -50.522  1.00  0.00     0.282 C 
HETATM    4  C   UNL     1     -41.827  56.305 -51.579  1.00  0.00     0.018 C 
HETATM    5  C   UNL     1     -42.647  55.746 -52.540  1.00  0.00    -0.023 C 
HETATM    6  C   UNL     1     -43.090  56.733 -53.497  1.00  0.00     0.073 C 
HETATM    7  C   UNL     1     -42.813  58.011 -53.030  1.00  0.00     0.093 C 
HETATM    8  S   UNL     1     -41.773  57.993 -51.682  1.00  0.00    -0.074 SA
HETATM    9  C   UNL     1     -42.929  54.268 -52.558  1.00  0.00     0.068 C 
HETATM   10  C   UNL     1     -42.458  53.579 -51.259  1.00  0.00     0.240 C 
ENDROOT
BRANCH   7  11
HETATM   11  N   UNL     1     -43.245  59.212 -53.575  1.00  0.00    -0.320 N 
HETATM   12  C   UNL     1     -42.560  59.966 -54.519  1.00  0.00     0.222 C 
HETATM   13  O   UNL     1     -41.462  59.709 -54.999  1.00  0.00    -0.273 OA
HETATM   14  H   UNL     1     -43.957  59.704 -53.042  1.00  0.00     0.169 HD
BRANCH  12  15
HETATM   15  C   UNL     1     -43.348  61.204 -54.926  1.00  0.00     0.104 C 
BRANCH  15  16
HETATM   16  C   UNL     1     -44.798  60.911 -55.307  1.00  0.00     0.020 C 
BRANCH  16  17
HETATM   17  C   UNL     1     -45.117  60.692 -56.791  1.00  0.00     0.080 C 
BRANCH  17  18
HETATM   18  S   UNL     1     -45.867  59.092 -57.258  1.00  0.00    -0.130 SA
BRANCH  18  19
HETATM   19  C   UNL     1     -44.590  58.285 -58.209  1.00  0.00     0.000 A 
HETATM   20  C   UNL     1     -44.820  57.199 -59.060  1.00  0.00     0.021 A 
HETATM   21  C   UNL     1     -43.759  56.615 -59.760  1.00  0.00     0.043 A 
HETATM   22  C   UNL     1     -42.477  57.133 -59.627  1.00  0.00     0.116 A 
HETATM   23  F   UNL     1     -41.463  56.571 -60.296  1.00  0.00    -0.206 F 
HETATM   24  C   UNL     1     -42.235  58.230 -58.812  1.00  0.00     0.043 A 
HETATM   25  C   UNL     1     -43.291  58.807 -58.105  1.00  0.00     0.021 A 
ENDBRANCH  18  19
ENDBRANCH  17  18
ENDBRANCH  16  17
ENDBRANCH  15  16
ENDBRANCH  12  15
ENDBRANCH   7  11
BRANCH   6  26
HETATM   26  C   UNL     1     -43.807  56.426 -54.732  1.00  0.00     0.252 C 
HETATM   27  N   UNL     1     -45.171  56.479 -54.659  1.00  0.00    -0.366 N 
HETATM   28  H   UNL     1     -45.611  57.062 -53.957  1.00  0.00     0.159 HD
HETATM   29  H   UNL     1     -45.642  56.443 -55.557  1.00  0.00     0.159 HD
HETATM   30  O   UNL     1     -43.237  56.221 -55.796  1.00  0.00    -0.268 OA
ENDBRANCH   6  26
BRANCH   1  31
HETATM   31  C   UNL     1     -40.003  53.627 -51.810  1.00  0.00     0.273 C 
BRANCH  31  32
HETATM   32  C   UNL     1     -39.909  52.150 -52.080  1.00  0.00    -0.033 A 
HETATM   33  C   UNL     1     -39.904  51.632 -53.384  1.00  0.00     0.009 A 
HETATM   34  C   UNL     1     -39.785  50.257 -53.593  1.00  0.00     0.001 A 
HETATM   35  C   UNL     1     -39.650  49.390 -52.511  1.00  0.00     0.000 A 
HETATM   36  C   UNL     1     -39.634  49.893 -51.213  1.00  0.00     0.001 A 
HETATM   37  C   UNL     1     -39.763  51.264 -50.999  1.00  0.00     0.009 A 
ENDBRANCH  31  32
ENDBRANCH   1  31
TORSDOF 9
ENDMDL
MODEL 4
REMARK VINA RESULT:      -8.4      1.256      1.707
REMARK  9 active torsions:
REMARK  status: ('A' for Active; 'I' for Inactive)
REMARK    1  A    between atoms: C_4  and  C_5 
REMARK    2  A    between atoms: C_5  and  N_6 
REMARK    3  A    between atoms: C_11  and  C_12 
REMARK       I    between atoms: C_12  and  N_13 
REMARK    4  A    between atoms: C_15  and  N_16 
REMARK       I    between atoms: N_16  and  C_17 
REMARK    5  A    between atoms: C_17  and  C_18 
REMARK    6  A    between atoms: C_18  and  C_19 
REMARK    7  A    between atoms: C_19  and  C_20 
REMARK    8  A    between atoms: C_20  and  S_21 
REMARK    9  A    between atoms: S_21  and  C_22 
ROOT
HETATM    1  N   UNL     1     -41.897  53.803 -54.026  1.00  0.00    -0.063 N 
HETATM    2  H   UNL     1     -42.273  52.896 -54.318  1.00  0.00     0.280 HD
HETATM    3  C   UNL     1     -42.809  54.283 -52.898  1.00  0.00     0.282 C 
HETATM    4  C   UNL     1     -42.665  55.749 -52.680  1.00  0.00     0.018 C 
HETATM    5  C   UNL     1     -42.053  56.633 -53.548  1.00  0.00    -0.023 C 
HETATM    6  C   UNL     1     -41.958  57.956 -52.977  1.00  0.00     0.073 C 
HETATM    7  C   UNL     1     -42.758  58.047 -51.845  1.00  0.00     0.093 C 
HETATM    8  S   UNL     1     -43.310  56.524 -51.322  1.00  0.00    -0.074 SA
HETATM    9  C   UNL     1     -41.513  56.172 -54.875  1.00  0.00     0.068 C 
HETATM   10  C   UNL     1     -41.991  54.746 -55.224  1.00  0.00     0.240 C 
ENDROOT
BRANCH   7  11
HETATM   11  N   UNL     1     -43.070  59.197 -51.133  1.00  0.00    -0.320 N 
HETATM   12  C   UNL     1     -42.192  59.917 -50.332  1.00  0.00     0.222 C 
HETATM   13  O   UNL     1     -41.019  59.642 -50.106  1.00  0.00    -0.273 OA
HETATM   14  H   UNL     1     -44.059  59.350 -50.959  1.00  0.00     0.169 HD
BRANCH  12  15
HETATM   15  C   UNL     1     -42.860  61.148 -49.735  1.00  0.00     0.104 C 
BRANCH  15  16
HETATM   16  C   UNL     1     -43.208  62.219 -50.768  1.00  0.00     0.020 C 
BRANCH  16  17
HETATM   17  C   UNL     1     -44.202  63.312 -50.358  1.00  0.00     0.080 C 
BRANCH  17  18
HETATM   18  S   UNL     1     -45.793  62.768 -49.642  1.00  0.00    -0.130 SA
BRANCH  18  19
HETATM   19  C   UNL     1     -45.497  62.787 -47.882  1.00  0.00     0.000 A 
HETATM   20  C   UNL     1     -45.448  61.637 -47.087  1.00  0.00     0.021 A 
HETATM   21  C   UNL     1     -45.223  61.740 -45.710  1.00  0.00     0.043 A 
HETATM   22  C   UNL     1     -45.023  62.990 -45.137  1.00  0.00     0.116 A 
HETATM   23  F   UNL     1     -44.810  63.086 -43.819  1.00  0.00    -0.206 F 
HETATM   24  C   UNL     1     -45.036  64.139 -45.914  1.00  0.00     0.043 A 
HETATM   25  C   UNL     1     -45.270  64.037 -47.286  1.00  0.00     0.021 A 
ENDBRANCH  18  19
ENDBRANCH  17  18
ENDBRANCH  16  17
ENDBRANCH  15  16
ENDBRANCH  12  15
ENDBRANCH   7  11
BRANCH   6  26
HETATM   26  C   UNL     1     -41.200  59.059 -53.561  1.00  0.00     0.252 C 
HETATM   27  N   UNL     1     -41.913  59.924 -54.345  1.00  0.00    -0.366 N 
HETATM   28  H   UNL     1     -42.910  60.025 -54.197  1.00  0.00     0.159 HD
HETATM   29  H   UNL     1     -41.418  60.774 -54.592  1.00  0.00     0.159 HD
HETATM   30  O   UNL     1     -40.021  59.263 -53.304  1.00  0.00    -0.268 OA
ENDBRANCH   6  26
BRANCH   1  31
HETATM   31  C   UNL     1     -40.462  53.555 -53.620  1.00  0.00     0.273 C 
BRANCH  31  32
HETATM   32  C   UNL     1     -40.113  52.137 -53.258  1.00  0.00    -0.033 A 
HETATM   33  C   UNL     1     -39.783  51.763 -51.947  1.00  0.00     0.009 A 
HETATM   34  C   UNL     1     -39.495  50.430 -51.648  1.00  0.00     0.001 A 
HETATM   35  C   UNL     1     -39.551  49.458 -52.643  1.00  0.00     0.000 A 
HETATM   36  C   UNL     1     -39.897  49.812 -53.944  1.00  0.00     0.001 A 
HETATM   37  C   UNL     1     -40.175  51.143 -54.250  1.00  0.00     0.009 A 
ENDBRANCH  31  32
ENDBRANCH   1  31
TORSDOF 9
ENDMDL
MODEL 5
REMARK VINA RESULT:      -8.3      1.727      2.291
REMARK  9 active torsions:
REMARK  status: ('A' for Active; 'I' for Inactive)
REMARK    1  A    between atoms: C_4  and  C_5 
REMARK    2  A    between atoms: C_5  and  N_6 
REMARK    3  A    between atoms: C_11  and  C_12 
REMARK       I    between atoms: C_12  and  N_13 
REMARK    4  A    between atoms: C_15  and  N_16 
REMARK       I    between atoms: N_16  and  C_17 
REMARK    5  A    between atoms: C_17  and  C_18 
REMARK    6  A    between atoms: C_18  and  C_19 
REMARK    7  A    between atoms: C_19  and  C_20 
REMARK    8  A    between atoms: C_20  and  S_21 
REMARK    9  A    between atoms: S_21  and  C_22 
ROOT
HETATM    1  N   UNL     1     -42.192  55.540 -54.080  1.00  0.00    -0.063 N 
HETATM    2  H   UNL     1     -42.071  54.993 -54.937  1.00  0.00     0.280 HD
HETATM    3  C   UNL     1     -43.472  56.348 -54.283  1.00  0.00     0.282 C 
HETATM    4  C   UNL     1     -43.536  57.498 -53.338  1.00  0.00     0.018 C 
HETATM    5  C   UNL     1     -42.479  57.983 -52.594  1.00  0.00    -0.023 C 
HETATM    6  C   UNL     1     -42.908  59.013 -51.675  1.00  0.00     0.073 C 
HETATM    7  C   UNL     1     -44.193  59.432 -51.992  1.00  0.00     0.093 C 
HETATM    8  S   UNL     1     -44.951  58.398 -53.112  1.00  0.00    -0.074 SA
HETATM    9  C   UNL     1     -41.098  57.402 -52.732  1.00  0.00     0.068 C 
HETATM   10  C   UNL     1     -40.987  56.473 -53.959  1.00  0.00     0.240 C 
ENDROOT
BRANCH   7  11
HETATM   11  N   UNL     1     -44.873  60.519 -51.460  1.00  0.00    -0.320 N 
HETATM   12  C   UNL     1     -45.700  60.489 -50.344  1.00  0.00     0.222 C 
HETATM   13  O   UNL     1     -45.982  59.504 -49.672  1.00  0.00    -0.273 OA
HETATM   14  H   UNL     1     -44.999  61.307 -52.088  1.00  0.00     0.169 HD
BRANCH  12  15
HETATM   15  C   UNL     1     -46.247  61.872 -50.015  1.00  0.00     0.104 C 
BRANCH  15  16
HETATM   16  C   UNL     1     -45.208  62.816 -49.412  1.00  0.00     0.020 C 
BRANCH  16  17
HETATM   17  C   UNL     1     -45.663  63.760 -48.293  1.00  0.00     0.080 C 
BRANCH  17  18
HETATM   18  S   UNL     1     -46.722  63.052 -46.981  1.00  0.00    -0.130 SA
BRANCH  18  19
HETATM   19  C   UNL     1     -45.586  62.732 -45.643  1.00  0.00     0.000 A 
HETATM   20  C   UNL     1     -44.929  61.512 -45.453  1.00  0.00     0.021 A 
HETATM   21  C   UNL     1     -44.063  61.338 -44.368  1.00  0.00     0.043 A 
HETATM   22  C   UNL     1     -43.837  62.393 -43.491  1.00  0.00     0.116 A 
HETATM   23  F   UNL     1     -43.010  62.224 -42.453  1.00  0.00    -0.206 F 
HETATM   24  C   UNL     1     -44.455  63.620 -43.681  1.00  0.00     0.043 A 
HETATM   25  C   UNL     1     -45.327  63.790 -44.758  1.00  0.00     0.021 A 
ENDBRANCH  18  19
ENDBRANCH  17  18
ENDBRANCH  16  17
ENDBRANCH  15  16
ENDBRANCH  12  15
ENDBRANCH   7  11
BRANCH   6  26
HETATM   26  C   UNL     1     -42.071  59.587 -50.625  1.00  0.00     0.252 C 
HETATM   27  N   UNL     1     -41.418  58.690 -49.824  1.00  0.00    -0.366 N 
HETATM   28  H   UNL     1     -41.212  57.764 -50.178  1.00  0.00     0.159 HD
HETATM   29  H   UNL     1     -40.709  59.099 -49.225  1.00  0.00     0.159 HD
HETATM   30  O   UNL     1     -41.884  60.791 -50.510  1.00  0.00    -0.268 OA
ENDBRANCH   6  26
BRANCH   1  31
HETATM   31  C   UNL     1     -42.244  54.543 -52.944  1.00  0.00     0.273 C 
BRANCH  31  32
HETATM   32  C   UNL     1     -41.269  53.401 -53.023  1.00  0.00    -0.033 A 
HETATM   33  C   UNL     1     -40.507  52.996 -51.917  1.00  0.00     0.009 A 
HETATM   34  C   UNL     1     -39.635  51.911 -52.023  1.00  0.00     0.001 A 
HETATM   35  C   UNL     1     -39.529  51.208 -53.221  1.00  0.00     0.000 A 
HETATM   36  C   UNL     1     -40.295  51.587 -54.320  1.00  0.00     0.001 A 
HETATM   37  C   UNL     1     -41.158  52.677 -54.223  1.00  0.00     0.009 A 
ENDBRANCH  31  32
ENDBRANCH   1  31
TORSDOF 9
ENDMDL
MODEL 6
REMARK VINA RESULT:      -8.2      5.758      9.317
REMARK  9 active torsions:
REMARK  status: ('A' for Active; 'I' for Inactive)
REMARK    1  A    between atoms: C_4  and  C_5 
REMARK    2  A    between atoms: C_5  and  N_6 
REMARK    3  A    between atoms: C_11  and  C_12 
REMARK       I    between atoms: C_12  and  N_13 
REMARK    4  A    between atoms: C_15  and  N_16 
REMARK       I    between atoms: N_16  and  C_17 
REMARK    5  A    between atoms: C_17  and  C_18 
REMARK    6  A    between atoms: C_18  and  C_19 
REMARK    7  A    between atoms: C_19  and  C_20 
REMARK    8  A    between atoms: C_20  and  S_21 
REMARK    9  A    between atoms: S_21  and  C_22 
ROOT
HETATM    1  N   UNL     1     -45.869  59.291 -57.894  1.00  0.00    -0.063 N 
HETATM    2  H   UNL     1     -46.761  59.334 -58.395  1.00  0.00     0.280 HD
HETATM    3  C   UNL     1     -46.061  58.240 -56.801  1.00  0.00     0.282 C 
HETATM    4  C   UNL     1     -45.031  58.383 -55.734  1.00  0.00     0.018 C 
HETATM    5  C   UNL     1     -44.207  59.477 -55.556  1.00  0.00    -0.023 C 
HETATM    6  C   UNL     1     -43.228  59.239 -54.521  1.00  0.00     0.073 C 
HETATM    7  C   UNL     1     -43.564  58.103 -53.796  1.00  0.00     0.093 C 
HETATM    8  S   UNL     1     -44.793  57.198 -54.550  1.00  0.00    -0.074 SA
HETATM    9  C   UNL     1     -44.333  60.696 -56.429  1.00  0.00     0.068 C 
HETATM   10  C   UNL     1     -45.625  60.666 -57.274  1.00  0.00     0.240 C 
ENDROOT
BRANCH   7  11
HETATM   11  N   UNL     1     -42.976  57.657 -52.621  1.00  0.00    -0.320 N 
HETATM   12  C   UNL     1     -41.941  56.735 -52.532  1.00  0.00     0.222 C 
HETATM   13  O   UNL     1     -41.404  56.151 -53.466  1.00  0.00    -0.273 OA
HETATM   14  H   UNL     1     -43.525  57.794 -51.777  1.00  0.00     0.169 HD
BRANCH  12  15
HETATM   15  C   UNL     1     -41.513  56.510 -51.088  1.00  0.00     0.104 C 
BRANCH  15  16
HETATM   16  C   UNL     1     -42.346  55.458 -50.357  1.00  0.00     0.020 C 
BRANCH  16  17
HETATM   17  C   UNL     1     -41.944  53.988 -50.523  1.00  0.00     0.080 C 
BRANCH  17  18
HETATM   18  S   UNL     1     -40.162  53.621 -50.696  1.00  0.00    -0.130 SA
BRANCH  18  19
HETATM   19  C   UNL     1     -40.097  52.446 -52.038  1.00  0.00     0.000 A 
HETATM   20  C   UNL     1     -40.519  52.726 -53.342  1.00  0.00     0.021 A 
HETATM   21  C   UNL     1     -40.446  51.742 -54.333  1.00  0.00     0.043 A 
HETATM   22  C   UNL     1     -39.930  50.490 -54.025  1.00  0.00     0.116 A 
HETATM   23  F   UNL     1     -39.864  49.549 -54.975  1.00  0.00    -0.206 F 
HETATM   24  C   UNL     1     -39.477  50.203 -52.745  1.00  0.00     0.043 A 
HETATM   25  C   UNL     1     -39.559  51.182 -51.753  1.00  0.00     0.021 A 
ENDBRANCH  18  19
ENDBRANCH  17  18
ENDBRANCH  16  17
ENDBRANCH  15  16
ENDBRANCH  12  15
ENDBRANCH   7  11
BRANCH   6  26
HETATM   26  C   UNL     1     -42.102  60.121 -54.227  1.00  0.00     0.252 C 
HETATM   27  N   UNL     1     -42.424  61.396 -53.851  1.00  0.00    -0.366 N 
HETATM   28  H   UNL     1     -43.327  61.578 -53.428  1.00  0.00     0.159 HD
HETATM   29  H   UNL     1     -41.649  61.934 -53.480  1.00  0.00     0.159 HD
HETATM   30  O   UNL     1     -40.940  59.735 -54.224  1.00  0.00    -0.268 OA
ENDBRANCH   6  26
BRANCH   1  31
HETATM   31  C   UNL     1     -44.819  58.947 -58.926  1.00  0.00     0.273 C 
BRANCH  31  32
HETATM   32  C   UNL     1     -44.718  57.497 -59.310  1.00  0.00    -0.033 A 
HETATM   33  C   UNL     1     -43.684  56.673 -58.842  1.00  0.00     0.009 A 
HETATM   34  C   UNL     1     -43.644  55.324 -59.197  1.00  0.00     0.001 A 
HETATM   35  C   UNL     1     -44.640  54.779 -60.003  1.00  0.00     0.000 A 
HETATM   36  C   UNL     1     -45.683  55.580 -60.459  1.00  0.00     0.001 A 
HETATM   37  C   UNL     1     -45.722  56.931 -60.116  1.00  0.00     0.009 A 
ENDBRANCH  31  32
ENDBRANCH   1  31
TORSDOF 9
ENDMDL
MODEL 7
REMARK VINA RESULT:      -8.2      1.801      2.674
REMARK  9 active torsions:
REMARK  status: ('A' for Active; 'I' for Inactive)
REMARK    1  A    between atoms: C_4  and  C_5 
REMARK    2  A    between atoms: C_5  and  N_6 
REMARK    3  A    between atoms: C_11  and  C_12 
REMARK       I    between atoms: C_12  and  N_13 
REMARK    4  A    between atoms: C_15  and  N_16 
REMARK       I    between atoms: N_16  and  C_17 
REMARK    5  A    between atoms: C_17  and  C_18 
REMARK    6  A    between atoms: C_18  and  C_19 
REMARK    7  A    between atoms: C_19  and  C_20 
REMARK    8  A    between atoms: C_20  and  S_21 
REMARK    9  A    between atoms: S_21  and  C_22 
ROOT
HETATM    1  N   UNL     1     -40.782  54.101 -50.900  1.00  0.00    -0.063 N 
HETATM    2  H   UNL     1     -40.221  53.407 -50.397  1.00  0.00     0.280 HD
HETATM    3  C   UNL     1     -40.278  55.462 -50.423  1.00  0.00     0.282 C 
HETATM    4  C   UNL     1     -41.270  56.533 -50.714  1.00  0.00     0.018 C 
HETATM    5  C   UNL     1     -42.589  56.329 -51.070  1.00  0.00    -0.023 C 
HETATM    6  C   UNL     1     -43.241  57.570 -51.420  1.00  0.00     0.073 C 
HETATM    7  C   UNL     1     -42.460  58.649 -51.027  1.00  0.00     0.093 C 
HETATM    8  S   UNL     1     -40.886  58.176 -50.580  1.00  0.00    -0.074 SA
HETATM    9  C   UNL     1     -43.173  54.944 -51.134  1.00  0.00     0.068 C 
HETATM   10  C   UNL     1     -42.239  53.898 -50.486  1.00  0.00     0.240 C 
ENDROOT
BRANCH   7  11
HETATM   11  N   UNL     1     -42.823  59.988 -51.026  1.00  0.00    -0.320 N 
HETATM   12  C   UNL     1     -42.770  60.843 -52.120  1.00  0.00     0.222 C 
HETATM   13  O   UNL     1     -42.373  60.563 -53.244  1.00  0.00    -0.273 OA
HETATM   14  H   UNL     1     -42.853  60.433 -50.113  1.00  0.00     0.169 HD
BRANCH  12  15
HETATM   15  C   UNL     1     -43.286  62.233 -51.770  1.00  0.00     0.104 C 
BRANCH  15  16
HETATM   16  C   UNL     1     -44.103  62.277 -50.480  1.00  0.00     0.020 C 
BRANCH  16  17
HETATM   17  C   UNL     1     -45.609  62.007 -50.578  1.00  0.00     0.080 C 
BRANCH  17  18
HETATM   18  S   UNL     1     -46.687  62.824 -49.348  1.00  0.00    -0.130 SA
BRANCH  18  19
HETATM   19  C   UNL     1     -45.987  62.340 -47.780  1.00  0.00     0.000 A 
HETATM   20  C   UNL     1     -45.647  61.024 -47.449  1.00  0.00     0.021 A 
HETATM   21  C   UNL     1     -45.115  60.727 -46.191  1.00  0.00     0.043 A 
HETATM   22  C   UNL     1     -44.900  61.750 -45.275  1.00  0.00     0.116 A 
HETATM   23  F   UNL     1     -44.392  61.463 -44.070  1.00  0.00    -0.206 F 
HETATM   24  C   UNL     1     -45.201  63.066 -45.595  1.00  0.00     0.043 A 
HETATM   25  C   UNL     1     -45.742  63.360 -46.848  1.00  0.00     0.021 A 
ENDBRANCH  18  19
ENDBRANCH  17  18
ENDBRANCH  16  17
ENDBRANCH  15  16
ENDBRANCH  12  15
ENDBRANCH   7  11
BRANCH   6  26
HETATM   26  C   UNL     1     -44.570  57.669 -52.017  1.00  0.00     0.252 C 
HETATM   27  N   UNL     1     -44.717  57.088 -53.246  1.00  0.00    -0.366 N 
HETATM   28  H   UNL     1     -44.102  56.330 -53.517  1.00  0.00     0.159 HD
HETATM   29  H   UNL     1     -45.678  57.008 -53.562  1.00  0.00     0.159 HD
HETATM   30  O   UNL     1     -45.527  58.157 -51.429  1.00  0.00    -0.268 OA
ENDBRANCH   6  26
BRANCH   1  31
HETATM   31  C   UNL     1     -40.575  53.828 -52.372  1.00  0.00     0.273 C 
BRANCH  31  32
HETATM   32  C   UNL     1     -40.276  52.401 -52.744  1.00  0.00    -0.033 A 
HETATM   33  C   UNL     1     -40.461  51.918 -54.048  1.00  0.00     0.009 A 
HETATM   34  C   UNL     1     -40.143  50.595 -54.359  1.00  0.00     0.001 A 
HETATM   35  C   UNL     1     -39.621  49.749 -53.383  1.00  0.00     0.000 A 
HETATM   36  C   UNL     1     -39.414  50.221 -52.090  1.00  0.00     0.001 A 
HETATM   37  C   UNL     1     -39.740  51.538 -51.772  1.00  0.00     0.009 A 
ENDBRANCH  31  32
ENDBRANCH   1  31
TORSDOF 9
ENDMDL
MODEL 8
REMARK VINA RESULT:      -8.1      3.189      4.264
REMARK  9 active torsions:
REMARK  status: ('A' for Active; 'I' for Inactive)
REMARK    1  A    between atoms: C_4  and  C_5 
REMARK    2  A    between atoms: C_5  and  N_6 
REMARK    3  A    between atoms: C_11  and  C_12 
REMARK       I    between atoms: C_12  and  N_13 
REMARK    4  A    between atoms: C_15  and  N_16 
REMARK       I    between atoms: N_16  and  C_17 
REMARK    5  A    between atoms: C_17  and  C_18 
REMARK    6  A    between atoms: C_18  and  C_19 
REMARK    7  A    between atoms: C_19  and  C_20 
REMARK    8  A    between atoms: C_20  and  S_21 
REMARK    9  A    between atoms: S_21  and  C_22 
ROOT
HETATM    1  N   UNL     1     -41.899  53.814 -54.074  1.00  0.00    -0.063 N 
HETATM    2  H   UNL     1     -42.338  52.944 -54.389  1.00  0.00     0.280 HD
HETATM    3  C   UNL     1     -42.692  54.254 -52.845  1.00  0.00     0.282 C 
HETATM    4  C   UNL     1     -42.466  55.696 -52.549  1.00  0.00     0.018 C 
HETATM    5  C   UNL     1     -41.890  56.610 -53.409  1.00  0.00    -0.023 C 
HETATM    6  C   UNL     1     -41.689  57.888 -52.767  1.00  0.00     0.073 C 
HETATM    7  C   UNL     1     -42.387  57.936 -51.567  1.00  0.00     0.093 C 
HETATM    8  S   UNL     1     -42.961  56.404 -51.095  1.00  0.00    -0.074 SA
HETATM    9  C   UNL     1     -41.482  56.217 -54.804  1.00  0.00     0.068 C 
HETATM   10  C   UNL     1     -42.050  54.837 -55.199  1.00  0.00     0.240 C 
ENDROOT
BRANCH   7  11
HETATM   11  N   UNL     1     -42.588  59.047 -50.761  1.00  0.00    -0.320 N 
HETATM   12  C   UNL     1     -43.454  60.099 -51.032  1.00  0.00     0.222 C 
HETATM   13  O   UNL     1     -44.154  60.228 -52.030  1.00  0.00    -0.273 OA
HETATM   14  H   UNL     1     -41.853  59.237 -50.086  1.00  0.00     0.169 HD
BRANCH  12  15
HETATM   15  C   UNL     1     -43.455  61.128 -49.909  1.00  0.00     0.104 C 
BRANCH  15  16
HETATM   16  C   UNL     1     -43.146  62.548 -50.379  1.00  0.00     0.020 C 
BRANCH  16  17
HETATM   17  C   UNL     1     -43.639  63.712 -49.511  1.00  0.00     0.080 C 
BRANCH  17  18
HETATM   18  S   UNL     1     -45.443  64.000 -49.445  1.00  0.00    -0.130 SA
BRANCH  18  19
HETATM   19  C   UNL     1     -46.035  63.356 -51.001  1.00  0.00     0.000 A 
HETATM   20  C   UNL     1     -46.836  62.216 -51.119  1.00  0.00     0.021 A 
HETATM   21  C   UNL     1     -47.246  61.770 -52.380  1.00  0.00     0.043 A 
HETATM   22  C   UNL     1     -46.875  62.478 -53.516  1.00  0.00     0.116 A 
HETATM   23  F   UNL     1     -47.266  62.048 -54.722  1.00  0.00    -0.206 F 
HETATM   24  C   UNL     1     -46.107  63.629 -53.417  1.00  0.00     0.043 A 
HETATM   25  C   UNL     1     -45.689  64.069 -52.159  1.00  0.00     0.021 A 
ENDBRANCH  18  19
ENDBRANCH  17  18
ENDBRANCH  16  17
ENDBRANCH  15  16
ENDBRANCH  12  15
ENDBRANCH   7  11
BRANCH   6  26
HETATM   26  C   UNL     1     -40.934  58.997 -53.344  1.00  0.00     0.252 C 
HETATM   27  N   UNL     1     -41.651  59.870 -54.115  1.00  0.00    -0.366 N 
HETATM   28  H   UNL     1     -42.647  59.970 -53.961  1.00  0.00     0.159 HD
HETATM   29  H   UNL     1     -41.157  60.723 -54.356  1.00  0.00     0.159 HD
HETATM   30  O   UNL     1     -39.753  59.198 -53.092  1.00  0.00    -0.268 OA
ENDBRANCH   6  26
BRANCH   1  31
HETATM   31  C   UNL     1     -40.447  53.484 -53.808  1.00  0.00     0.273 C 
BRANCH  31  32
HETATM   32  C   UNL     1     -40.156  52.065 -53.402  1.00  0.00    -0.033 A 
HETATM   33  C   UNL     1     -40.150  51.012 -54.329  1.00  0.00     0.009 A 
HETATM   34  C   UNL     1     -39.844  49.714 -53.917  1.00  0.00     0.001 A 
HETATM   35  C   UNL     1     -39.524  49.456 -52.586  1.00  0.00     0.000 A 
HETATM   36  C   UNL     1     -39.507  50.495 -51.660  1.00  0.00     0.001 A 
HETATM   37  C   UNL     1     -39.821  51.791 -52.065  1.00  0.00     0.009 A 
ENDBRANCH  31  32
ENDBRANCH   1  31
TORSDOF 9
ENDMDL
MODEL 9
REMARK VINA RESULT:      -8.0      6.166      8.357
REMARK  9 active torsions:
REMARK  status: ('A' for Active; 'I' for Inactive)
REMARK    1  A    between atoms: C_4  and  C_5 
REMARK    2  A    between atoms: C_5  and  N_6 
REMARK    3  A    between atoms: C_11  and  C_12 
REMARK       I    between atoms: C_12  and  N_13 
REMARK    4  A    between atoms: C_15  and  N_16 
REMARK       I    between atoms: N_16  and  C_17 
REMARK    5  A    between atoms: C_17  and  C_18 
REMARK    6  A    between atoms: C_18  and  C_19 
REMARK    7  A    between atoms: C_19  and  C_20 
REMARK    8  A    between atoms: C_20  and  S_21 
REMARK    9  A    between atoms: S_21  and  C_22 
ROOT
HETATM    1  N   UNL     1     -41.356  54.457 -52.560  1.00  0.00    -0.063 N 
HETATM    2  H   UNL     1     -41.179  54.023 -51.649  1.00  0.00     0.280 HD
HETATM    3  C   UNL     1     -41.050  55.942 -52.376  1.00  0.00     0.282 C 
HETATM    4  C   UNL     1     -41.674  56.756 -53.456  1.00  0.00     0.018 C 
HETATM    5  C   UNL     1     -42.650  56.316 -54.328  1.00  0.00    -0.023 C 
HETATM    6  C   UNL     1     -42.938  57.304 -55.342  1.00  0.00     0.073 C 
HETATM    7  C   UNL     1     -42.373  58.525 -54.995  1.00  0.00     0.093 C 
HETATM    8  S   UNL     1     -41.278  58.382 -53.700  1.00  0.00    -0.074 SA
HETATM    9  C   UNL     1     -43.234  54.934 -54.212  1.00  0.00     0.068 C 
HETATM   10  C   UNL     1     -42.836  54.255 -52.884  1.00  0.00     0.240 C 
ENDROOT
BRANCH   7  11
HETATM   11  N   UNL     1     -42.580  59.748 -55.616  1.00  0.00    -0.320 N 
HETATM   12  C   UNL     1     -43.375  60.779 -55.131  1.00  0.00     0.222 C 
HETATM   13  O   UNL     1     -44.038  60.764 -54.100  1.00  0.00    -0.273 OA
HETATM   14  H   UNL     1     -42.371  59.776 -56.610  1.00  0.00     0.169 HD
BRANCH  12  15
HETATM   15  C   UNL     1     -43.339  61.994 -56.049  1.00  0.00     0.104 C 
BRANCH  15  16
HETATM   16  C   UNL     1     -44.673  62.284 -56.735  1.00  0.00     0.020 C 
BRANCH  16  17
HETATM   17  C   UNL     1     -45.208  61.242 -57.725  1.00  0.00     0.080 C 
BRANCH  17  18
HETATM   18  S   UNL     1     -44.574  61.312 -59.438  1.00  0.00    -0.130 SA
BRANCH  18  19
HETATM   19  C   UNL     1     -43.684  59.777 -59.625  1.00  0.00     0.000 A 
HETATM   20  C   UNL     1     -42.384  59.566 -59.152  1.00  0.00     0.021 A 
HETATM   21  C   UNL     1     -41.752  58.334 -59.352  1.00  0.00     0.043 A 
HETATM   22  C   UNL     1     -42.429  57.310 -60.004  1.00  0.00     0.116 A 
HETATM   23  F   UNL     1     -41.820  56.133 -60.196  1.00  0.00    -0.206 F 
HETATM   24  C   UNL     1     -43.729  57.490 -60.452  1.00  0.00     0.043 A 
HETATM   25  C   UNL     1     -44.357  58.722 -60.260  1.00  0.00     0.021 A 
ENDBRANCH  18  19
ENDBRANCH  17  18
ENDBRANCH  16  17
ENDBRANCH  15  16
ENDBRANCH  12  15
ENDBRANCH   7  11
BRANCH   6  26
HETATM   26  C   UNL     1     -43.778  57.070 -56.513  1.00  0.00     0.252 C 
HETATM   27  N   UNL     1     -43.565  55.893 -57.176  1.00  0.00    -0.366 N 
HETATM   28  H   UNL     1     -43.170  55.104 -56.677  1.00  0.00     0.159 HD
HETATM   29  H   UNL     1     -44.270  55.665 -57.869  1.00  0.00     0.159 HD
HETATM   30  O   UNL     1     -44.683  57.827 -56.843  1.00  0.00    -0.268 OA
ENDBRANCH   6  26
BRANCH   1  31
HETATM   31  C   UNL     1     -40.464  53.742 -53.549  1.00  0.00     0.273 C 
BRANCH  31  32
HETATM   32  C   UNL     1     -40.198  52.289 -53.270  1.00  0.00    -0.033 A 
HETATM   33  C   UNL     1     -40.278  51.312 -54.274  1.00  0.00     0.009 A 
HETATM   34  C   UNL     1     -39.994  49.977 -53.980  1.00  0.00     0.001 A 
HETATM   35  C   UNL     1     -39.611  49.606 -52.693  1.00  0.00     0.000 A 
HETATM   36  C   UNL     1     -39.509  50.568 -51.693  1.00  0.00     0.001 A 
HETATM   37  C   UNL     1     -39.802  51.901 -51.978  1.00  0.00     0.009 A 
ENDBRANCH  31  32
ENDBRANCH   1  31
TORSDOF 9
ENDMDL
MODEL 10
REMARK VINA RESULT:      -8.0      3.907      4.943
REMARK  9 active torsions:
REMARK  status: ('A' for Active; 'I' for Inactive)
REMARK    1  A    between atoms: C_4  and  C_5 
REMARK    2  A    between atoms: C_5  and  N_6 
REMARK    3  A    between atoms: C_11  and  C_12 
REMARK       I    between atoms: C_12  and  N_13 
REMARK    4  A    between atoms: C_15  and  N_16 
REMARK       I    between atoms: N_16  and  C_17 
REMARK    5  A    between atoms: C_17  and  C_18 
REMARK    6  A    between atoms: C_18  and  C_19 
REMARK    7  A    between atoms: C_19  and  C_20 
REMARK    8  A    between atoms: C_20  and  S_21 
REMARK    9  A    between atoms: S_21  and  C_22 
ROOT
HETATM    1  N   UNL     1     -42.029  53.795 -53.596  1.00  0.00    -0.063 N 
HETATM    2  H   UNL     1     -42.361  52.884 -53.925  1.00  0.00     0.280 HD
HETATM    3  C   UNL     1     -43.082  54.283 -52.602  1.00  0.00     0.282 C 
HETATM    4  C   UNL     1     -42.971  55.752 -52.383  1.00  0.00     0.018 C 
HETATM    5  C   UNL     1     -42.254  56.629 -53.173  1.00  0.00    -0.023 C 
HETATM    6  C   UNL     1     -42.237  57.959 -52.608  1.00  0.00     0.073 C 
HETATM    7  C   UNL     1     -43.179  58.058 -51.591  1.00  0.00     0.093 C 
HETATM    8  S   UNL     1     -43.791  56.539 -51.129  1.00  0.00    -0.074 SA
HETATM    9  C   UNL     1     -41.543  56.157 -54.413  1.00  0.00     0.068 C 
HETATM   10  C   UNL     1     -41.968  54.726 -54.806  1.00  0.00     0.240 C 
ENDROOT
BRANCH   7  11
HETATM   11  N   UNL     1     -43.584  59.213 -50.938  1.00  0.00    -0.320 N 
HETATM   12  C   UNL     1     -44.839  59.801 -51.037  1.00  0.00     0.222 C 
HETATM   13  O   UNL     1     -45.772  59.415 -51.731  1.00  0.00    -0.273 OA
HETATM   14  H   UNL     1     -42.836  59.813 -50.603  1.00  0.00     0.169 HD
BRANCH  12  15
HETATM   15  C   UNL     1     -44.951  61.035 -50.150  1.00  0.00     0.104 C 
BRANCH  15  16
HETATM   16  C   UNL     1     -45.300  62.311 -50.915  1.00  0.00     0.020 C 
BRANCH  16  17
HETATM   17  C   UNL     1     -46.783  62.666 -51.074  1.00  0.00     0.080 C 
BRANCH  17  18
HETATM   18  S   UNL     1     -47.475  62.631 -52.766  1.00  0.00    -0.130 SA
BRANCH  18  19
HETATM   19  C   UNL     1     -49.239  62.699 -52.506  1.00  0.00     0.000 A 
HETATM   20  C   UNL     1     -49.841  63.283 -51.386  1.00  0.00     0.021 A 
HETATM   21  C   UNL     1     -51.233  63.283 -51.253  1.00  0.00     0.043 A 
HETATM   22  C   UNL     1     -52.021  62.720 -52.250  1.00  0.00     0.116 A 
HETATM   23  F   UNL     1     -53.353  62.719 -52.119  1.00  0.00    -0.206 F 
HETATM   24  C   UNL     1     -51.444  62.165 -53.383  1.00  0.00     0.043 A 
HETATM   25  C   UNL     1     -50.054  62.156 -53.512  1.00  0.00     0.021 A 
ENDBRANCH  18  19
ENDBRANCH  17  18
ENDBRANCH  16  17
ENDBRANCH  15  16
ENDBRANCH  12  15
ENDBRANCH   7  11
BRANCH   6  26
HETATM   26  C   UNL     1     -41.413  59.058 -53.100  1.00  0.00     0.252 C 
HETATM   27  N   UNL     1     -42.001  59.879 -54.023  1.00  0.00    -0.366 N 
HETATM   28  H   UNL     1     -43.010  59.961 -54.046  1.00  0.00     0.159 HD
HETATM   29  H   UNL     1     -41.487  60.732 -54.217  1.00  0.00     0.159 HD
HETATM   30  O   UNL     1     -40.296  59.299 -52.660  1.00  0.00    -0.268 OA
ENDBRANCH   6  26
BRANCH   1  31
HETATM   31  C   UNL     1     -40.658  53.557 -53.003  1.00  0.00     0.273 C 
BRANCH  31  32
HETATM   32  C   UNL     1     -40.218  52.121 -52.912  1.00  0.00    -0.033 A 
HETATM   33  C   UNL     1     -39.859  51.530 -51.692  1.00  0.00     0.009 A 
HETATM   34  C   UNL     1     -39.485  50.185 -51.646  1.00  0.00     0.001 A 
HETATM   35  C   UNL     1     -39.484  49.415 -52.806  1.00  0.00     0.000 A 
HETATM   36  C   UNL     1     -39.858  49.985 -54.020  1.00  0.00     0.001 A 
HETATM   37  C   UNL     1     -40.222  51.330 -54.073  1.00  0.00     0.009 A 
ENDBRANCH  31  32
ENDBRANCH   1  31
TORSDOF 9
ENDMDL
