MODEL 1
REMARK VINA RESULT:      -8.2      0.000      0.000
REMARK  3 active torsions:
REMARK  status: ('A' for Active; 'I' for Inactive)
REMARK    1  A    between atoms: C_3  and  N_4 
REMARK       I    between atoms: N_4  and  C_5 
REMARK    2  A    between atoms: C_5  and  C_6 
REMARK    3  A    between atoms: C_6  and  C_7 
ROOT
HETATM    1  C   UNL     1     -42.145  55.086 -50.407  1.00  0.00     0.286 C 
HETATM    2  N   UNL     1     -41.322  56.179 -51.086  1.00  0.00    -0.056 N 
HETATM    3  H   UNL     1     -41.411  57.023 -50.506  1.00  0.00     0.278 HD
HETATM    4  H   UNL     1     -40.316  55.922 -50.995  1.00  0.00     0.278 HD
HETATM    5  C   UNL     1     -41.666  56.541 -52.502  1.00  0.00     0.209 C 
HETATM    6  C   UNL     1     -43.194  56.743 -52.628  1.00  0.00     0.115 C 
HETATM    7  N   UNL     1     -43.964  55.666 -52.008  1.00  0.00    -0.353 N 
HETATM    8  C   UNL     1     -43.630  55.108 -50.800  1.00  0.00     0.249 C 
HETATM    9  O   UNL     1     -44.486  54.551 -50.122  1.00  0.00    -0.271 OA
HETATM   10  C   UNL     1     -41.089  55.515 -53.479  1.00  0.00     0.035 C 
HETATM   11  C   UNL     1     -41.515  55.820 -54.912  1.00  0.00     0.002 C 
HETATM   12  C   UNL     1     -43.034  55.891 -55.027  1.00  0.00     0.002 C 
HETATM   13  C   UNL     1     -43.615  56.948 -54.088  1.00  0.00     0.027 C 
HETATM   14  H   UNL     1     -44.971  55.659 -52.162  1.00  0.00     0.163 HD
ENDROOT
BRANCH   1  15
HETATM   15  C   UNL     1     -41.625  53.659 -50.648  1.00  0.00     0.146 C 
BRANCH  15  16
HETATM   16  C   UNL     1     -40.148  53.504 -50.427  1.00  0.00     0.224 C 
HETATM   17  N   UNL     1     -39.380  52.692 -51.195  1.00  0.00    -0.326 N 
HETATM   18  H   UNL     1     -38.397  52.733 -50.924  1.00  0.00     0.169 HD
HETATM   19  O   UNL     1     -39.601  54.191 -49.555  1.00  0.00    -0.273 OA
BRANCH  17  20
HETATM   20  C   UNL     1     -39.612  51.837 -52.302  1.00  0.00     0.056 A 
HETATM   21  C   UNL     1     -39.876  52.258 -53.607  1.00  0.00     0.031 A 
HETATM   22  C   UNL     1     -40.077  51.324 -54.634  1.00  0.00     0.002 A 
HETATM   23  C   UNL     1     -40.021  49.958 -54.373  1.00  0.00     0.002 A 
HETATM   24  C   UNL     1     -39.769  49.515 -53.080  1.00  0.00     0.026 A 
HETATM   25  C   UNL     1     -39.569  50.445 -52.057  1.00  0.00     0.060 A 
HETATM   26 CL   UNL     1     -39.247  49.835 -50.465  1.00  0.00    -0.082 Cl
ENDBRANCH  17  20
ENDBRANCH  15  16
ENDBRANCH   1  15
TORSDOF 3
ENDMDL
MODEL 2
REMARK VINA RESULT:      -7.6      2.159      2.815
REMARK  3 active torsions:
REMARK  status: ('A' for Active; 'I' for Inactive)
REMARK    1  A    between atoms: C_3  and  N_4 
REMARK       I    between atoms: N_4  and  C_5 
REMARK    2  A    between atoms: C_5  and  C_6 
REMARK    3  A    between atoms: C_6  and  C_7 
ROOT
HETATM    1  C   UNL     1     -41.845  55.140 -52.750  1.00  0.00     0.286 C 
HETATM    2  N   UNL     1     -41.367  56.423 -53.427  1.00  0.00    -0.056 N 
HETATM    3  H   UNL     1     -40.863  56.966 -52.715  1.00  0.00     0.278 HD
HETATM    4  H   UNL     1     -40.625  56.163 -54.112  1.00  0.00     0.278 HD
HETATM    5  C   UNL     1     -42.400  57.313 -54.055  1.00  0.00     0.209 C 
HETATM    6  C   UNL     1     -43.568  57.530 -53.064  1.00  0.00     0.115 C 
HETATM    7  N   UNL     1     -44.038  56.287 -52.457  1.00  0.00    -0.353 N 
HETATM    8  C   UNL     1     -43.190  55.299 -52.024  1.00  0.00     0.249 C 
HETATM    9  O   UNL     1     -43.557  54.507 -51.162  1.00  0.00    -0.271 OA
HETATM   10  C   UNL     1     -42.831  56.768 -55.417  1.00  0.00     0.035 C 
HETATM   11  C   UNL     1     -43.950  57.611 -56.020  1.00  0.00     0.002 C 
HETATM   12  C   UNL     1     -45.137  57.704 -55.067  1.00  0.00     0.002 C 
HETATM   13  C   UNL     1     -44.725  58.293 -53.718  1.00  0.00     0.027 C 
HETATM   14  H   UNL     1     -44.887  56.329 -51.895  1.00  0.00     0.163 HD
ENDROOT
BRANCH   1  15
HETATM   15  C   UNL     1     -41.970  53.933 -53.694  1.00  0.00     0.146 C 
BRANCH  15  16
HETATM   16  C   UNL     1     -40.695  53.584 -54.407  1.00  0.00     0.224 C 
HETATM   17  N   UNL     1     -39.849  52.626 -53.954  1.00  0.00    -0.326 N 
HETATM   18  H   UNL     1     -39.050  52.501 -54.577  1.00  0.00     0.169 HD
HETATM   19  O   UNL     1     -40.440  54.146 -55.481  1.00  0.00    -0.273 OA
BRANCH  17  20
HETATM   20  C   UNL     1     -39.832  51.738 -52.850  1.00  0.00     0.056 A 
HETATM   21  C   UNL     1     -39.960  52.110 -51.510  1.00  0.00     0.031 A 
HETATM   22  C   UNL     1     -39.945  51.145 -50.493  1.00  0.00     0.002 A 
HETATM   23  C   UNL     1     -39.798  49.795 -50.797  1.00  0.00     0.002 A 
HETATM   24  C   UNL     1     -39.659  49.400 -52.123  1.00  0.00     0.026 A 
HETATM   25  C   UNL     1     -39.674  50.362 -53.136  1.00  0.00     0.060 A 
HETATM   26 CL   UNL     1     -39.508  49.810 -54.772  1.00  0.00    -0.082 Cl
ENDBRANCH  17  20
ENDBRANCH  15  16
ENDBRANCH   1  15
TORSDOF 3
ENDMDL
MODEL 3
REMARK VINA RESULT:      -7.2      1.731      2.178
REMARK  3 active torsions:
REMARK  status: ('A' for Active; 'I' for Inactive)
REMARK    1  A    between atoms: C_3  and  N_4 
REMARK       I    between atoms: N_4  and  C_5 
REMARK    2  A    between atoms: C_5  and  C_6 
REMARK    3  A    between atoms: C_6  and  C_7 
ROOT
HETATM    1  C   UNL     1     -42.584  55.174 -51.743  1.00  0.00     0.286 C 
HETATM    2  N   UNL     1     -42.619  56.190 -50.603  1.00  0.00    -0.056 N 
HETATM    3  H   UNL     1     -43.506  56.047 -50.103  1.00  0.00     0.278 HD
HETATM    4  H   UNL     1     -41.895  55.911 -49.907  1.00  0.00     0.278 HD
HETATM    5  C   UNL     1     -42.505  57.645 -50.954  1.00  0.00     0.209 C 
HETATM    6  C   UNL     1     -43.475  57.976 -52.113  1.00  0.00     0.115 C 
HETATM    7  N   UNL     1     -43.398  57.015 -53.212  1.00  0.00    -0.353 N 
HETATM    8  C   UNL     1     -43.294  55.661 -53.015  1.00  0.00     0.249 C 
HETATM    9  O   UNL     1     -43.660  54.883 -53.889  1.00  0.00    -0.271 OA
HETATM   10  C   UNL     1     -41.049  58.023 -51.232  1.00  0.00     0.035 C 
HETATM   11  C   UNL     1     -40.934  59.475 -51.685  1.00  0.00     0.002 C 
HETATM   12  C   UNL     1     -41.810  59.738 -52.906  1.00  0.00     0.002 C 
HETATM   13  C   UNL     1     -43.276  59.408 -52.622  1.00  0.00     0.027 C 
HETATM   14  H   UNL     1     -43.909  57.235 -54.066  1.00  0.00     0.163 HD
ENDROOT
BRANCH   1  15
HETATM   15  C   UNL     1     -41.171  54.723 -52.147  1.00  0.00     0.146 C 
BRANCH  15  16
HETATM   16  C   UNL     1     -40.433  53.991 -51.063  1.00  0.00     0.224 C 
HETATM   17  N   UNL     1     -39.912  52.752 -51.248  1.00  0.00    -0.326 N 
HETATM   18  H   UNL     1     -39.419  52.421 -50.418  1.00  0.00     0.169 HD
HETATM   19  O   UNL     1     -40.237  54.565 -49.984  1.00  0.00    -0.273 OA
BRANCH  17  20
HETATM   20  C   UNL     1     -39.857  51.834 -52.326  1.00  0.00     0.056 A 
HETATM   21  C   UNL     1     -39.920  52.171 -53.680  1.00  0.00     0.031 A 
HETATM   22  C   UNL     1     -39.841  51.180 -54.669  1.00  0.00     0.002 A 
HETATM   23  C   UNL     1     -39.701  49.840 -54.324  1.00  0.00     0.002 A 
HETATM   24  C   UNL     1     -39.645  49.479 -52.982  1.00  0.00     0.026 A 
HETATM   25  C   UNL     1     -39.723  50.465 -51.996  1.00  0.00     0.060 A 
HETATM   26 CL   UNL     1     -39.636  49.957 -50.340  1.00  0.00    -0.082 Cl
ENDBRANCH  17  20
ENDBRANCH  15  16
ENDBRANCH   1  15
TORSDOF 3
ENDMDL
MODEL 4
REMARK VINA RESULT:      -7.2      1.911      2.555
REMARK  3 active torsions:
REMARK  status: ('A' for Active; 'I' for Inactive)
REMARK    1  A    between atoms: C_3  and  N_4 
REMARK       I    between atoms: N_4  and  C_5 
REMARK    2  A    between atoms: C_5  and  C_6 
REMARK    3  A    between atoms: C_6  and  C_7 
ROOT
HETATM    1  C   UNL     1     -42.198  54.777 -51.733  1.00  0.00     0.286 C 
HETATM    2  N   UNL     1     -41.588  56.159 -51.513  1.00  0.00    -0.056 N 
HETATM    3  H   UNL     1     -41.221  56.175 -50.552  1.00  0.00     0.278 HD
HETATM    4  H   UNL     1     -40.732  56.227 -52.105  1.00  0.00     0.278 HD
HETATM    5  C   UNL     1     -42.474  57.357 -51.698  1.00  0.00     0.209 C 
HETATM    6  C   UNL     1     -43.806  57.137 -50.943  1.00  0.00     0.115 C 
HETATM    7  N   UNL     1     -44.395  55.823 -51.197  1.00  0.00    -0.353 N 
HETATM    8  C   UNL     1     -43.654  54.670 -51.255  1.00  0.00     0.249 C 
HETATM    9  O   UNL     1     -44.185  53.587 -51.036  1.00  0.00    -0.271 OA
HETATM   10  C   UNL     1     -42.645  57.680 -53.183  1.00  0.00     0.035 C 
HETATM   11  C   UNL     1     -43.622  58.834 -53.386  1.00  0.00     0.002 C 
HETATM   12  C   UNL     1     -44.967  58.533 -52.734  1.00  0.00     0.002 C 
HETATM   13  C   UNL     1     -44.811  58.255 -51.238  1.00  0.00     0.027 C 
HETATM   14  H   UNL     1     -45.334  55.652 -50.842  1.00  0.00     0.163 HD
ENDROOT
BRANCH   1  15
HETATM   15  C   UNL     1     -42.153  54.289 -53.191  1.00  0.00     0.146 C 
BRANCH  15  16
HETATM   16  C   UNL     1     -40.816  54.464 -53.850  1.00  0.00     0.224 C 
HETATM   17  N   UNL     1     -39.907  53.460 -53.928  1.00  0.00    -0.326 N 
HETATM   18  H   UNL     1     -39.069  53.747 -54.436  1.00  0.00     0.169 HD
HETATM   19  O   UNL     1     -40.560  55.544 -54.400  1.00  0.00    -0.273 OA
BRANCH  17  20
HETATM   20  C   UNL     1     -39.864  52.108 -53.509  1.00  0.00     0.056 A 
HETATM   21  C   UNL     1     -40.041  50.998 -54.338  1.00  0.00     0.031 A 
HETATM   22  C   UNL     1     -39.963  49.697 -53.820  1.00  0.00     0.002 A 
HETATM   23  C   UNL     1     -39.710  49.484 -52.469  1.00  0.00     0.002 A 
HETATM   24  C   UNL     1     -39.540  50.573 -51.621  1.00  0.00     0.026 A 
HETATM   25  C   UNL     1     -39.617  51.869 -52.137  1.00  0.00     0.060 A 
HETATM   26 CL   UNL     1     -39.385  53.189 -51.036  1.00  0.00    -0.082 Cl
ENDBRANCH  17  20
ENDBRANCH  15  16
ENDBRANCH   1  15
TORSDOF 3
ENDMDL
MODEL 5
REMARK VINA RESULT:      -7.1     13.488     15.179
REMARK  3 active torsions:
REMARK  status: ('A' for Active; 'I' for Inactive)
REMARK    1  A    between atoms: C_3  and  N_4 
REMARK       I    between atoms: N_4  and  C_5 
REMARK    2  A    between atoms: C_5  and  C_6 
REMARK    3  A    between atoms: C_6  and  C_7 
ROOT
HETATM    1  C   UNL     1     -36.733  40.041 -54.395  1.00  0.00     0.286 C 
HETATM    2  N   UNL     1     -37.809  41.003 -54.892  1.00  0.00    -0.056 N 
HETATM    3  H   UNL     1     -38.705  40.670 -54.514  1.00  0.00     0.278 HD
HETATM    4  H   UNL     1     -37.664  41.918 -54.414  1.00  0.00     0.278 HD
HETATM    5  C   UNL     1     -37.961  41.182 -56.375  1.00  0.00     0.209 C 
HETATM    6  C   UNL     1     -37.998  39.798 -57.063  1.00  0.00     0.115 C 
HETATM    7  N   UNL     1     -36.936  38.905 -56.603  1.00  0.00    -0.353 N 
HETATM    8  C   UNL     1     -36.563  38.802 -55.287  1.00  0.00     0.249 C 
HETATM    9  O   UNL     1     -36.012  37.784 -54.882  1.00  0.00    -0.271 OA
HETATM   10  C   UNL     1     -36.886  42.122 -56.921  1.00  0.00     0.035 C 
HETATM   11  C   UNL     1     -36.971  42.234 -58.440  1.00  0.00     0.002 C 
HETATM   12  C   UNL     1     -36.880  40.859 -59.095  1.00  0.00     0.002 C 
HETATM   13  C   UNL     1     -37.982  39.928 -58.590  1.00  0.00     0.027 C 
HETATM   14  H   UNL     1     -36.813  38.025 -57.102  1.00  0.00     0.163 HD
ENDROOT
BRANCH   1  15
HETATM   15  C   UNL     1     -35.344  40.679 -54.222  1.00  0.00     0.146 C 
BRANCH  15  16
HETATM   16  C   UNL     1     -35.331  41.871 -53.309  1.00  0.00     0.224 C 
HETATM   17  N   UNL     1     -34.636  41.887 -52.145  1.00  0.00    -0.326 N 
HETATM   18  H   UNL     1     -34.715  42.786 -51.669  1.00  0.00     0.169 HD
HETATM   19  O   UNL     1     -35.923  42.899 -53.664  1.00  0.00    -0.273 OA
BRANCH  17  20
HETATM   20  C   UNL     1     -33.800  40.970 -51.459  1.00  0.00     0.056 A 
HETATM   21  C   UNL     1     -32.430  40.807 -51.676  1.00  0.00     0.031 A 
HETATM   22  C   UNL     1     -31.693  39.878 -50.928  1.00  0.00     0.002 A 
HETATM   23  C   UNL     1     -32.310  39.097 -49.956  1.00  0.00     0.002 A 
HETATM   24  C   UNL     1     -33.675  39.235 -49.729  1.00  0.00     0.026 A 
HETATM   25  C   UNL     1     -34.410  40.160 -50.473  1.00  0.00     0.060 A 
HETATM   26 CL   UNL     1     -36.106  40.298 -50.139  1.00  0.00    -0.082 Cl
ENDBRANCH  17  20
ENDBRANCH  15  16
ENDBRANCH   1  15
TORSDOF 3
ENDMDL
MODEL 6
REMARK VINA RESULT:      -7.1      3.483      5.147
REMARK  3 active torsions:
REMARK  status: ('A' for Active; 'I' for Inactive)
REMARK    1  A    between atoms: C_3  and  N_4 
REMARK       I    between atoms: N_4  and  C_5 
REMARK    2  A    between atoms: C_5  and  C_6 
REMARK    3  A    between atoms: C_6  and  C_7 
ROOT
HETATM    1  C   UNL     1     -43.429  58.919 -54.259  1.00  0.00     0.286 C 
HETATM    2  N   UNL     1     -44.002  58.778 -52.851  1.00  0.00    -0.056 N 
HETATM    3  H   UNL     1     -44.619  59.586 -52.698  1.00  0.00     0.278 HD
HETATM    4  H   UNL     1     -44.656  57.965 -52.855  1.00  0.00     0.278 HD
HETATM    5  C   UNL     1     -43.038  58.696 -51.704  1.00  0.00     0.209 C 
HETATM    6  C   UNL     1     -41.980  59.818 -51.836  1.00  0.00     0.115 C 
HETATM    7  N   UNL     1     -41.414  59.911 -53.181  1.00  0.00    -0.353 N 
HETATM    8  C   UNL     1     -42.169  59.797 -54.320  1.00  0.00     0.249 C 
HETATM    9  O   UNL     1     -41.777  60.294 -55.370  1.00  0.00    -0.271 OA
HETATM   10  C   UNL     1     -42.446  57.291 -51.592  1.00  0.00     0.035 C 
HETATM   11  C   UNL     1     -41.392  57.223 -50.491  1.00  0.00     0.002 C 
HETATM   12  C   UNL     1     -40.298  58.261 -50.718  1.00  0.00     0.002 C 
HETATM   13  C   UNL     1     -40.875  59.675 -50.784  1.00  0.00     0.027 C 
HETATM   14  H   UNL     1     -40.619  60.535 -53.314  1.00  0.00     0.163 HD
ENDROOT
BRANCH   1  15
HETATM   15  C   UNL     1     -43.093  57.583 -54.945  1.00  0.00     0.146 C 
BRANCH  15  16
HETATM   16  C   UNL     1     -44.108  56.504 -54.702  1.00  0.00     0.224 C 
HETATM   17  N   UNL     1     -43.755  55.216 -54.461  1.00  0.00    -0.326 N 
HETATM   18  H   UNL     1     -44.570  54.626 -54.288  1.00  0.00     0.169 HD
HETATM   19  O   UNL     1     -45.306  56.812 -54.655  1.00  0.00    -0.273 OA
BRANCH  17  20
HETATM   20  C   UNL     1     -42.531  54.512 -54.354  1.00  0.00     0.056 A 
HETATM   21  C   UNL     1     -41.567  54.406 -55.359  1.00  0.00     0.031 A 
HETATM   22  C   UNL     1     -40.379  53.694 -55.141  1.00  0.00     0.002 A 
HETATM   23  C   UNL     1     -40.136  53.074 -53.920  1.00  0.00     0.002 A 
HETATM   24  C   UNL     1     -41.084  53.156 -52.907  1.00  0.00     0.026 A 
HETATM   25  C   UNL     1     -42.268  53.866 -53.123  1.00  0.00     0.060 A 
HETATM   26 CL   UNL     1     -43.409  53.944 -51.819  1.00  0.00    -0.082 Cl
ENDBRANCH  17  20
ENDBRANCH  15  16
ENDBRANCH   1  15
TORSDOF 3
ENDMDL
MODEL 7
REMARK VINA RESULT:      -6.9      4.265      6.962
REMARK  3 active torsions:
REMARK  status: ('A' for Active; 'I' for Inactive)
REMARK    1  A    between atoms: C_3  and  N_4 
REMARK       I    between atoms: N_4  and  C_5 
REMARK    2  A    between atoms: C_5  and  C_6 
REMARK    3  A    between atoms: C_6  and  C_7 
ROOT
HETATM    1  C   UNL     1     -43.206  56.875 -53.292  1.00  0.00     0.286 C 
HETATM    2  N   UNL     1     -43.808  55.498 -53.023  1.00  0.00    -0.056 N 
HETATM    3  H   UNL     1     -44.276  55.550 -52.109  1.00  0.00     0.278 HD
HETATM    4  H   UNL     1     -44.593  55.358 -53.695  1.00  0.00     0.278 HD
HETATM    5  C   UNL     1     -42.882  54.316 -53.013  1.00  0.00     0.209 C 
HETATM    6  C   UNL     1     -41.645  54.635 -52.142  1.00  0.00     0.115 C 
HETATM    7  N   UNL     1     -41.059  55.941 -52.442  1.00  0.00    -0.353 N 
HETATM    8  C   UNL     1     -41.813  57.063 -52.673  1.00  0.00     0.249 C 
HETATM    9  O   UNL     1     -41.330  58.176 -52.491  1.00  0.00    -0.271 OA
HETATM   10  C   UNL     1     -42.546  53.878 -54.439  1.00  0.00     0.035 C 
HETATM   11  C   UNL     1     -41.530  52.741 -54.440  1.00  0.00     0.002 C 
HETATM   12  C   UNL     1     -40.269  53.133 -53.676  1.00  0.00     0.002 C 
HETATM   13  C   UNL     1     -40.591  53.527 -52.235  1.00  0.00     0.027 C 
HETATM   14  H   UNL     1     -40.167  56.167 -52.004  1.00  0.00     0.163 HD
ENDROOT
BRANCH   1  15
HETATM   15  C   UNL     1     -43.103  57.242 -54.782  1.00  0.00     0.146 C 
BRANCH  15  16
HETATM   16  C   UNL     1     -44.431  57.438 -55.454  1.00  0.00     0.224 C 
HETATM   17  N   UNL     1     -44.571  57.431 -56.803  1.00  0.00    -0.326 N 
HETATM   18  H   UNL     1     -45.545  57.547 -57.083  1.00  0.00     0.169 HD
HETATM   19  O   UNL     1     -45.444  57.545 -54.751  1.00  0.00    -0.273 OA
BRANCH  17  20
HETATM   20  C   UNL     1     -43.696  57.261 -57.905  1.00  0.00     0.056 A 
HETATM   21  C   UNL     1     -43.452  56.056 -58.566  1.00  0.00     0.031 A 
HETATM   22  C   UNL     1     -42.574  56.003 -59.659  1.00  0.00     0.002 A 
HETATM   23  C   UNL     1     -41.926  57.149 -60.106  1.00  0.00     0.002 A 
HETATM   24  C   UNL     1     -42.145  58.360 -59.457  1.00  0.00     0.026 A 
HETATM   25  C   UNL     1     -43.019  58.413 -58.369  1.00  0.00     0.060 A 
HETATM   26 CL   UNL     1     -43.262  59.952 -57.607  1.00  0.00    -0.082 Cl
ENDBRANCH  17  20
ENDBRANCH  15  16
ENDBRANCH   1  15
TORSDOF 3
ENDMDL
MODEL 8
REMARK VINA RESULT:      -6.8     13.421     15.468
REMARK  3 active torsions:
REMARK  status: ('A' for Active; 'I' for Inactive)
REMARK    1  A    between atoms: C_3  and  N_4 
REMARK       I    between atoms: N_4  and  C_5 
REMARK    2  A    between atoms: C_5  and  C_6 
REMARK    3  A    between atoms: C_6  and  C_7 
ROOT
HETATM    1  C   UNL     1     -35.900  41.627 -55.218  1.00  0.00     0.286 C 
HETATM    2  N   UNL     1     -36.604  42.382 -54.092  1.00  0.00    -0.056 N 
HETATM    3  H   UNL     1     -36.299  43.361 -54.153  1.00  0.00     0.278 HD
HETATM    4  H   UNL     1     -37.620  42.425 -54.325  1.00  0.00     0.278 HD
HETATM    5  C   UNL     1     -36.388  41.907 -52.685  1.00  0.00     0.209 C 
HETATM    6  C   UNL     1     -34.877  41.689 -52.438  1.00  0.00     0.115 C 
HETATM    7  N   UNL     1     -34.229  40.930 -53.506  1.00  0.00    -0.353 N 
HETATM    8  C   UNL     1     -34.496  41.135 -54.836  1.00  0.00     0.249 C 
HETATM    9  O   UNL     1     -33.668  40.822 -55.685  1.00  0.00    -0.271 OA
HETATM   10  C   UNL     1     -37.252  40.680 -52.387  1.00  0.00     0.035 C 
HETATM   11  C   UNL     1     -36.968  40.131 -50.993  1.00  0.00     0.002 C 
HETATM   12  C   UNL     1     -35.486  39.811 -50.824  1.00  0.00     0.002 C 
HETATM   13  C   UNL     1     -34.617  41.044 -51.072  1.00  0.00     0.027 C 
HETATM   14  H   UNL     1     -33.266  40.634 -53.355  1.00  0.00     0.163 HD
ENDROOT
BRANCH   1  15
HETATM   15  C   UNL     1     -36.683  40.418 -55.757  1.00  0.00     0.146 C 
BRANCH  15  16
HETATM   16  C   UNL     1     -38.066  40.753 -56.235  1.00  0.00     0.224 C 
HETATM   17  N   UNL     1     -38.536  40.346 -57.441  1.00  0.00    -0.326 N 
HETATM   18  H   UNL     1     -39.503  40.637 -57.588  1.00  0.00     0.169 HD
HETATM   19  O   UNL     1     -38.827  41.365 -55.475  1.00  0.00    -0.273 OA
BRANCH  17  20
HETATM   20  C   UNL     1     -38.018  39.586 -58.519  1.00  0.00     0.056 A 
HETATM   21  C   UNL     1     -38.033  38.192 -58.607  1.00  0.00     0.031 A 
HETATM   22  C   UNL     1     -37.504  37.539 -59.730  1.00  0.00     0.002 A 
HETATM   23  C   UNL     1     -36.950  38.266 -60.779  1.00  0.00     0.002 A 
HETATM   24  C   UNL     1     -36.915  39.654 -60.710  1.00  0.00     0.026 A 
HETATM   25  C   UNL     1     -37.441  40.305 -59.592  1.00  0.00     0.060 A 
HETATM   26 CL   UNL     1     -37.380  42.038 -59.566  1.00  0.00    -0.082 Cl
ENDBRANCH  17  20
ENDBRANCH  15  16
ENDBRANCH   1  15
TORSDOF 3
ENDMDL
MODEL 9
REMARK VINA RESULT:      -6.8      3.364      4.508
REMARK  3 active torsions:
REMARK  status: ('A' for Active; 'I' for Inactive)
REMARK    1  A    between atoms: C_3  and  N_4 
REMARK       I    between atoms: N_4  and  C_5 
REMARK    2  A    between atoms: C_5  and  C_6 
REMARK    3  A    between atoms: C_6  and  C_7 
ROOT
HETATM    1  C   UNL     1     -43.185  56.118 -55.346  1.00  0.00     0.286 C 
HETATM    2  N   UNL     1     -43.687  57.441 -55.918  1.00  0.00    -0.056 N 
HETATM    3  H   UNL     1     -44.692  57.495 -55.708  1.00  0.00     0.278 HD
HETATM    4  H   UNL     1     -43.274  58.211 -55.347  1.00  0.00     0.278 HD
HETATM    5  C   UNL     1     -43.497  57.690 -57.386  1.00  0.00     0.209 C 
HETATM    6  C   UNL     1     -43.963  56.450 -58.185  1.00  0.00     0.115 C 
HETATM    7  N   UNL     1     -43.440  55.196 -57.646  1.00  0.00    -0.353 N 
HETATM    8  C   UNL     1     -43.372  54.930 -56.302  1.00  0.00     0.249 C 
HETATM    9  O   UNL     1     -43.350  53.770 -55.905  1.00  0.00    -0.271 OA
HETATM   10  C   UNL     1     -42.060  58.119 -57.682  1.00  0.00     0.035 C 
HETATM   11  C   UNL     1     -41.831  58.279 -59.182  1.00  0.00     0.002 C 
HETATM   12  C   UNL     1     -42.184  56.997 -59.928  1.00  0.00     0.002 C 
HETATM   13  C   UNL     1     -43.634  56.586 -59.676  1.00  0.00     0.027 C 
HETATM   14  H   UNL     1     -43.594  54.349 -58.192  1.00  0.00     0.163 HD
ENDROOT
BRANCH   1  15
HETATM   15  C   UNL     1     -41.710  56.133 -54.912  1.00  0.00     0.146 C 
BRANCH  15  16
HETATM   16  C   UNL     1     -41.513  56.278 -53.431  1.00  0.00     0.224 C 
HETATM   17  N   UNL     1     -41.039  55.268 -52.658  1.00  0.00    -0.326 N 
HETATM   18  H   UNL     1     -40.941  55.552 -51.683  1.00  0.00     0.169 HD
HETATM   19  O   UNL     1     -41.729  57.378 -52.906  1.00  0.00    -0.273 OA
BRANCH  17  20
HETATM   20  C   UNL     1     -40.615  53.936 -52.892  1.00  0.00     0.056 A 
HETATM   21  C   UNL     1     -40.670  53.274 -54.120  1.00  0.00     0.031 A 
HETATM   22  C   UNL     1     -40.208  51.955 -54.244  1.00  0.00     0.002 A 
HETATM   23  C   UNL     1     -39.688  51.278 -53.145  1.00  0.00     0.002 A 
HETATM   24  C   UNL     1     -39.632  51.914 -51.910  1.00  0.00     0.026 A 
HETATM   25  C   UNL     1     -40.092  53.227 -51.786  1.00  0.00     0.060 A 
HETATM   26 CL   UNL     1     -39.986  53.973 -50.224  1.00  0.00    -0.082 Cl
ENDBRANCH  17  20
ENDBRANCH  15  16
ENDBRANCH   1  15
TORSDOF 3
ENDMDL
MODEL 10
REMARK VINA RESULT:      -6.8      4.053      6.715
REMARK  3 active torsions:
REMARK  status: ('A' for Active; 'I' for Inactive)
REMARK    1  A    between atoms: C_3  and  N_4 
REMARK       I    between atoms: N_4  and  C_5 
REMARK    2  A    between atoms: C_5  and  C_6 
REMARK    3  A    between atoms: C_6  and  C_7 
ROOT
HETATM    1  C   UNL     1     -42.806  56.618 -53.906  1.00  0.00     0.286 C 
HETATM    2  N   UNL     1     -43.643  55.804 -52.922  1.00  0.00    -0.056 N 
HETATM    3  H   UNL     1     -44.423  56.404 -52.627  1.00  0.00     0.278 HD
HETATM    4  H   UNL     1     -44.108  55.040 -53.458  1.00  0.00     0.278 HD
HETATM    5  C   UNL     1     -42.965  55.274 -51.693  1.00  0.00     0.209 C 
HETATM    6  C   UNL     1     -42.144  56.403 -51.026  1.00  0.00     0.115 C 
HETATM    7  N   UNL     1     -41.318  57.145 -51.978  1.00  0.00    -0.353 N 
HETATM    8  C   UNL     1     -41.761  57.514 -53.223  1.00  0.00     0.249 C 
HETATM    9  O   UNL     1     -41.246  58.465 -53.801  1.00  0.00    -0.271 OA
HETATM   10  C   UNL     1     -42.151  54.021 -52.020  1.00  0.00     0.035 C 
HETATM   11  C   UNL     1     -41.380  53.530 -50.798  1.00  0.00     0.002 C 
HETATM   12  C   UNL     1     -40.486  54.632 -50.238  1.00  0.00     0.002 C 
HETATM   13  C   UNL     1     -41.298  55.872 -49.863  1.00  0.00     0.027 C 
HETATM   14  H   UNL     1     -40.652  57.816 -51.598  1.00  0.00     0.163 HD
ENDROOT
BRANCH   1  15
HETATM   15  C   UNL     1     -42.071  55.775 -54.962  1.00  0.00     0.146 C 
BRANCH  15  16
HETATM   16  C   UNL     1     -42.980  54.924 -55.801  1.00  0.00     0.224 C 
HETATM   17  N   UNL     1     -43.320  55.257 -57.071  1.00  0.00    -0.326 N 
HETATM   18  H   UNL     1     -43.919  54.550 -57.500  1.00  0.00     0.169 HD
HETATM   19  O   UNL     1     -43.381  53.847 -55.339  1.00  0.00    -0.273 OA
BRANCH  17  20
HETATM   20  C   UNL     1     -43.010  56.325 -57.949  1.00  0.00     0.056 A 
HETATM   21  C   UNL     1     -42.381  57.517 -57.582  1.00  0.00     0.031 A 
HETATM   22  C   UNL     1     -42.107  58.506 -58.538  1.00  0.00     0.002 A 
HETATM   23  C   UNL     1     -42.460  58.324 -59.871  1.00  0.00     0.002 A 
HETATM   24  C   UNL     1     -43.096  57.150 -60.259  1.00  0.00     0.026 A 
HETATM   25  C   UNL     1     -43.369  56.164 -59.307  1.00  0.00     0.060 A 
HETATM   26 CL   UNL     1     -44.154  54.716 -59.850  1.00  0.00    -0.082 Cl
ENDBRANCH  17  20
ENDBRANCH  15  16
ENDBRANCH   1  15
TORSDOF 3
ENDMDL
