MODEL 1
REMARK VINA RESULT:      -9.6      0.000      0.000
REMARK  1 active torsions:
REMARK  status: ('A' for Active; 'I' for Inactive)
REMARK    1  A    between atoms: C_4  and  C_5 
REMARK       I    between atoms: C_5  and  N_6 
ROOT
HETATM    1  C   UNL     1     -40.888  54.531 -54.457  1.00  0.00     0.275 C 
HETATM    2  N   UNL     1     -42.166  54.612 -54.999  1.00  0.00    -0.342 N 
HETATM    3  C   UNL     1     -42.298  55.073 -56.391  1.00  0.00     0.167 C 
HETATM    4  C   UNL     1     -43.134  56.315 -56.413  1.00  0.00    -0.005 A 
HETATM    5  C   UNL     1     -43.875  56.750 -55.330  1.00  0.00     0.020 A 
HETATM    6  N   UNL     1     -44.511  57.907 -55.672  1.00  0.00    -0.358 N 
HETATM    7  H   UNL     1     -45.103  58.460 -55.068  1.00  0.00     0.166 HD
HETATM    8  C   UNL     1     -44.231  58.217 -56.988  1.00  0.00     0.043 A 
HETATM    9  C   UNL     1     -43.368  57.231 -57.477  1.00  0.00     0.000 A 
HETATM   10  C   UNL     1     -44.672  59.288 -57.775  1.00  0.00     0.030 A 
HETATM   11  C   UNL     1     -44.225  59.348 -59.099  1.00  0.00     0.002 A 
HETATM   12  C   UNL     1     -43.369  58.378 -59.614  1.00  0.00     0.001 A 
HETATM   13  C   UNL     1     -42.931  57.316 -58.813  1.00  0.00     0.014 A 
HETATM   14  C   UNL     1     -43.931  56.063 -54.006  1.00  0.00     0.077 C 
HETATM   15  C   UNL     1     -43.411  54.618 -54.200  1.00  0.00     0.132 C 
HETATM   16  O   UNL     1     -39.849  54.715 -55.083  1.00  0.00    -0.266 OA
ENDROOT
BRANCH   1  17
HETATM   17  C   UNL     1     -40.753  54.103 -53.006  1.00  0.00     0.156 A 
HETATM   18  N   UNL     1     -40.994  54.996 -52.091  1.00  0.00    -0.164 NA
HETATM   19  N   UNL     1     -40.899  54.630 -50.770  1.00  0.00    -0.238 N 
HETATM   20  C   UNL     1     -41.180  55.661 -49.790  1.00  0.00     0.183 C 
HETATM   21  C   UNL     1     -40.501  53.372 -50.327  1.00  0.00     0.274 A 
HETATM   22  C   UNL     1     -40.211  52.371 -51.370  1.00  0.00     0.046 A 
HETATM   23  O   UNL     1     -40.394  53.064 -49.143  1.00  0.00    -0.266 OA
HETATM   24  C   UNL     1     -40.347  52.717 -52.710  1.00  0.00     0.016 A 
HETATM   25  C   UNL     1     -39.806  51.078 -51.014  1.00  0.00     0.018 A 
HETATM   26  C   UNL     1     -40.085  51.766 -53.703  1.00  0.00     0.015 A 
HETATM   27  C   UNL     1     -39.677  50.477 -53.347  1.00  0.00     0.001 A 
HETATM   28  C   UNL     1     -39.537  50.133 -52.004  1.00  0.00     0.001 A 
ENDBRANCH   1  17
TORSDOF 1
ENDMDL
MODEL 2
REMARK VINA RESULT:      -9.2      1.832      2.993
REMARK  1 active torsions:
REMARK  status: ('A' for Active; 'I' for Inactive)
REMARK    1  A    between atoms: C_4  and  C_5 
REMARK       I    between atoms: C_5  and  N_6 
ROOT
HETATM    1  C   UNL     1     -40.621  54.462 -54.768  1.00  0.00     0.275 C 
HETATM    2  N   UNL     1     -41.916  54.616 -55.250  1.00  0.00    -0.342 N 
HETATM    3  C   UNL     1     -42.205  55.785 -56.095  1.00  0.00     0.167 C 
HETATM    4  C   UNL     1     -43.265  56.612 -55.434  1.00  0.00    -0.005 A 
HETATM    5  C   UNL     1     -44.020  56.164 -54.365  1.00  0.00     0.020 A 
HETATM    6  N   UNL     1     -44.883  57.153 -53.995  1.00  0.00    -0.358 N 
HETATM    7  H   UNL     1     -45.538  57.112 -53.227  1.00  0.00     0.166 HD
HETATM    8  C   UNL     1     -44.735  58.235 -54.839  1.00  0.00     0.043 A 
HETATM    9  C   UNL     1     -43.724  57.920 -55.753  1.00  0.00     0.000 A 
HETATM   10  C   UNL     1     -45.413  59.460 -54.861  1.00  0.00     0.030 A 
HETATM   11  C   UNL     1     -45.054  60.384 -55.848  1.00  0.00     0.002 A 
HETATM   12  C   UNL     1     -44.055  60.095 -56.775  1.00  0.00     0.001 A 
HETATM   13  C   UNL     1     -43.381  58.869 -56.737  1.00  0.00     0.014 A 
HETATM   14  C   UNL     1     -43.875  54.824 -53.723  1.00  0.00     0.077 C 
HETATM   15  C   UNL     1     -43.096  53.911 -54.703  1.00  0.00     0.132 C 
HETATM   16  O   UNL     1     -39.670  55.172 -55.079  1.00  0.00    -0.266 OA
ENDROOT
BRANCH   1  17
HETATM   17  C   UNL     1     -40.332  53.283 -53.855  1.00  0.00     0.156 A 
HETATM   18  N   UNL     1     -40.022  52.150 -54.416  1.00  0.00    -0.164 NA
HETATM   19  N   UNL     1     -39.736  51.073 -53.613  1.00  0.00    -0.238 N 
HETATM   20  C   UNL     1     -39.394  49.836 -54.286  1.00  0.00     0.183 C 
HETATM   21  C   UNL     1     -39.809  51.084 -52.223  1.00  0.00     0.274 A 
HETATM   22  C   UNL     1     -40.179  52.366 -51.596  1.00  0.00     0.046 A 
HETATM   23  O   UNL     1     -39.578  50.106 -51.516  1.00  0.00    -0.266 OA
HETATM   24  C   UNL     1     -40.428  53.475 -52.397  1.00  0.00     0.016 A 
HETATM   25  C   UNL     1     -40.276  52.468 -50.202  1.00  0.00     0.018 A 
HETATM   26  C   UNL     1     -40.768  54.698 -51.805  1.00  0.00     0.015 A 
HETATM   27  C   UNL     1     -40.867  54.798 -50.414  1.00  0.00     0.001 A 
HETATM   28  C   UNL     1     -40.622  53.684 -49.613  1.00  0.00     0.001 A 
ENDBRANCH   1  17
TORSDOF 1
ENDMDL
MODEL 3
REMARK VINA RESULT:      -9.2      2.129      7.814
REMARK  1 active torsions:
REMARK  status: ('A' for Active; 'I' for Inactive)
REMARK    1  A    between atoms: C_4  and  C_5 
REMARK       I    between atoms: C_5  and  N_6 
ROOT
HETATM    1  C   UNL     1     -42.537  55.480 -55.713  1.00  0.00     0.275 C 
HETATM    2  N   UNL     1     -41.289  55.258 -55.141  1.00  0.00    -0.342 N 
HETATM    3  C   UNL     1     -40.709  53.910 -55.253  1.00  0.00     0.167 C 
HETATM    4  C   UNL     1     -40.489  53.360 -53.877  1.00  0.00    -0.005 A 
HETATM    5  C   UNL     1     -40.560  54.132 -52.732  1.00  0.00     0.020 A 
HETATM    6  N   UNL     1     -40.322  53.333 -51.652  1.00  0.00    -0.358 N 
HETATM    7  H   UNL     1     -40.333  53.625 -50.685  1.00  0.00     0.166 HD
HETATM    8  C   UNL     1     -40.052  52.048 -52.078  1.00  0.00     0.043 A 
HETATM    9  C   UNL     1     -40.150  52.039 -53.473  1.00  0.00     0.000 A 
HETATM   10  C   UNL     1     -39.732  50.903 -51.339  1.00  0.00     0.030 A 
HETATM   11  C   UNL     1     -39.498  49.719 -52.045  1.00  0.00     0.002 A 
HETATM   12  C   UNL     1     -39.584  49.681 -53.434  1.00  0.00     0.001 A 
HETATM   13  C   UNL     1     -39.912  50.832 -54.160  1.00  0.00     0.014 A 
HETATM   14  C   UNL     1     -40.873  55.591 -52.707  1.00  0.00     0.077 C 
HETATM   15  C   UNL     1     -40.662  56.145 -54.138  1.00  0.00     0.132 C 
HETATM   16  O   UNL     1     -43.149  54.666 -56.396  1.00  0.00    -0.266 OA
ENDROOT
BRANCH   1  17
HETATM   17  C   UNL     1     -43.160  56.857 -55.556  1.00  0.00     0.156 A 
HETATM   18  N   UNL     1     -43.817  57.098 -54.459  1.00  0.00    -0.164 NA
HETATM   19  N   UNL     1     -44.373  58.341 -54.283  1.00  0.00    -0.238 N 
HETATM   20  C   UNL     1     -45.092  58.560 -53.043  1.00  0.00     0.183 C 
HETATM   21  C   UNL     1     -44.337  59.363 -55.228  1.00  0.00     0.274 A 
HETATM   22  C   UNL     1     -43.607  59.076 -56.476  1.00  0.00     0.046 A 
HETATM   23  O   UNL     1     -44.862  60.462 -55.070  1.00  0.00    -0.266 OA
HETATM   24  C   UNL     1     -43.002  57.835 -56.647  1.00  0.00     0.016 A 
HETATM   25  C   UNL     1     -43.519  60.047 -57.482  1.00  0.00     0.018 A 
HETATM   26  C   UNL     1     -42.297  57.563 -57.826  1.00  0.00     0.015 A 
HETATM   27  C   UNL     1     -42.212  58.532 -58.830  1.00  0.00     0.001 A 
HETATM   28  C   UNL     1     -42.823  59.772 -58.659  1.00  0.00     0.001 A 
ENDBRANCH   1  17
TORSDOF 1
ENDMDL
MODEL 4
REMARK VINA RESULT:      -9.1      3.882      7.590
REMARK  1 active torsions:
REMARK  status: ('A' for Active; 'I' for Inactive)
REMARK    1  A    between atoms: C_4  and  C_5 
REMARK       I    between atoms: C_5  and  N_6 
ROOT
HETATM    1  C   UNL     1     -41.454  58.044 -51.219  1.00  0.00     0.275 C 
HETATM    2  N   UNL     1     -42.168  56.851 -51.254  1.00  0.00    -0.342 N 
HETATM    3  C   UNL     1     -41.439  55.602 -50.980  1.00  0.00     0.167 C 
HETATM    4  C   UNL     1     -41.541  54.708 -52.177  1.00  0.00    -0.005 A 
HETATM    5  C   UNL     1     -42.421  54.934 -53.219  1.00  0.00     0.020 A 
HETATM    6  N   UNL     1     -42.258  53.949 -54.149  1.00  0.00    -0.358 N 
HETATM    7  H   UNL     1     -42.754  53.874 -55.027  1.00  0.00     0.166 HD
HETATM    8  C   UNL     1     -41.309  53.049 -53.708  1.00  0.00     0.043 A 
HETATM    9  C   UNL     1     -40.843  53.503 -52.470  1.00  0.00     0.000 A 
HETATM   10  C   UNL     1     -40.831  51.878 -54.308  1.00  0.00     0.030 A 
HETATM   11  C   UNL     1     -39.856  51.147 -53.620  1.00  0.00     0.002 A 
HETATM   12  C   UNL     1     -39.377  51.573 -52.384  1.00  0.00     0.001 A 
HETATM   13  C   UNL     1     -39.859  52.750 -51.799  1.00  0.00     0.014 A 
HETATM   14  C   UNL     1     -43.363  56.088 -53.303  1.00  0.00     0.077 C 
HETATM   15  C   UNL     1     -43.497  56.694 -51.884  1.00  0.00     0.132 C 
HETATM   16  O   UNL     1     -40.282  58.149 -50.874  1.00  0.00    -0.266 OA
ENDROOT
BRANCH   1  17
HETATM   17  C   UNL     1     -42.193  59.329 -51.551  1.00  0.00     0.156 A 
HETATM   18  N   UNL     1     -42.751  59.973 -50.567  1.00  0.00    -0.164 NA
HETATM   19  N   UNL     1     -43.408  61.148 -50.836  1.00  0.00    -0.238 N 
HETATM   20  C   UNL     1     -44.009  61.828 -49.705  1.00  0.00     0.183 C 
HETATM   21  C   UNL     1     -43.576  61.685 -52.110  1.00  0.00     0.274 A 
HETATM   22  C   UNL     1     -42.957  60.940 -53.221  1.00  0.00     0.046 A 
HETATM   23  O   UNL     1     -44.189  62.724 -52.341  1.00  0.00    -0.266 OA
HETATM   24  C   UNL     1     -42.252  59.772 -52.955  1.00  0.00     0.016 A 
HETATM   25  C   UNL     1     -43.075  61.408 -54.537  1.00  0.00     0.018 A 
HETATM   26  C   UNL     1     -41.652  59.067 -54.007  1.00  0.00     0.015 A 
HETATM   27  C   UNL     1     -41.773  59.534 -55.319  1.00  0.00     0.001 A 
HETATM   28  C   UNL     1     -42.485  60.702 -55.584  1.00  0.00     0.001 A 
ENDBRANCH   1  17
TORSDOF 1
ENDMDL
MODEL 5
REMARK VINA RESULT:      -9.0      2.419      7.463
REMARK  1 active torsions:
REMARK  status: ('A' for Active; 'I' for Inactive)
REMARK    1  A    between atoms: C_4  and  C_5 
REMARK       I    between atoms: C_5  and  N_6 
ROOT
HETATM    1  C   UNL     1     -42.871  55.759 -55.244  1.00  0.00     0.275 C 
HETATM    2  N   UNL     1     -41.557  55.478 -54.885  1.00  0.00    -0.342 N 
HETATM    3  C   UNL     1     -41.044  54.124 -55.149  1.00  0.00     0.167 C 
HETATM    4  C   UNL     1     -40.633  53.500 -53.851  1.00  0.00    -0.005 A 
HETATM    5  C   UNL     1     -40.501  54.214 -52.674  1.00  0.00     0.020 A 
HETATM    6  N   UNL     1     -40.125  53.356 -51.682  1.00  0.00    -0.358 N 
HETATM    7  H   UNL     1     -39.977  53.598 -50.712  1.00  0.00     0.166 HD
HETATM    8  C   UNL     1     -39.963  52.088 -52.204  1.00  0.00     0.043 A 
HETATM    9  C   UNL     1     -40.276  52.152 -53.566  1.00  0.00     0.000 A 
HETATM   10  C   UNL     1     -39.569  50.900 -51.578  1.00  0.00     0.030 A 
HETATM   11  C   UNL     1     -39.484  49.748 -52.367  1.00  0.00     0.002 A 
HETATM   12  C   UNL     1     -39.785  49.782 -53.726  1.00  0.00     0.001 A 
HETATM   13  C   UNL     1     -40.185  50.977 -54.337  1.00  0.00     0.014 A 
HETATM   14  C   UNL     1     -40.761  55.677 -52.532  1.00  0.00     0.077 C 
HETATM   15  C   UNL     1     -40.756  56.298 -53.950  1.00  0.00     0.132 C 
HETATM   16  O   UNL     1     -43.607  54.996 -55.860  1.00  0.00    -0.266 OA
ENDROOT
BRANCH   1  17
HETATM   17  C   UNL     1     -43.419  57.140 -54.927  1.00  0.00     0.156 A 
HETATM   18  N   UNL     1     -43.379  58.034 -55.873  1.00  0.00    -0.164 NA
HETATM   19  N   UNL     1     -43.886  59.285 -55.620  1.00  0.00    -0.238 N 
HETATM   20  C   UNL     1     -43.820  60.243 -56.706  1.00  0.00     0.183 C 
HETATM   21  C   UNL     1     -44.396  59.696 -54.391  1.00  0.00     0.274 A 
HETATM   22  C   UNL     1     -44.422  58.683 -53.320  1.00  0.00     0.046 A 
HETATM   23  O   UNL     1     -44.823  60.826 -54.169  1.00  0.00    -0.266 OA
HETATM   24  C   UNL     1     -43.951  57.401 -53.578  1.00  0.00     0.016 A 
HETATM   25  C   UNL     1     -44.920  59.010 -52.052  1.00  0.00     0.018 A 
HETATM   26  C   UNL     1     -43.984  56.432 -52.567  1.00  0.00     0.015 A 
HETATM   27  C   UNL     1     -44.479  56.760 -51.301  1.00  0.00     0.001 A 
HETATM   28  C   UNL     1     -44.945  58.047 -51.043  1.00  0.00     0.001 A 
ENDBRANCH   1  17
TORSDOF 1
ENDMDL
MODEL 6
REMARK VINA RESULT:      -8.9      3.745      4.712
REMARK  1 active torsions:
REMARK  status: ('A' for Active; 'I' for Inactive)
REMARK    1  A    between atoms: C_4  and  C_5 
REMARK       I    between atoms: C_5  and  N_6 
ROOT
HETATM    1  C   UNL     1     -41.483  57.151 -52.274  1.00  0.00     0.275 C 
HETATM    2  N   UNL     1     -42.806  57.413 -52.616  1.00  0.00    -0.342 N 
HETATM    3  C   UNL     1     -43.148  58.776 -53.054  1.00  0.00     0.167 C 
HETATM    4  C   UNL     1     -44.172  59.343 -52.119  1.00  0.00    -0.005 A 
HETATM    5  C   UNL     1     -44.861  58.578 -51.195  1.00  0.00     0.020 A 
HETATM    6  N   UNL     1     -45.706  59.392 -50.499  1.00  0.00    -0.358 N 
HETATM    7  H   UNL     1     -46.316  59.108 -49.745  1.00  0.00     0.166 HD
HETATM    8  C   UNL     1     -45.613  60.680 -50.985  1.00  0.00     0.043 A 
HETATM    9  C   UNL     1     -44.655  60.676 -52.005  1.00  0.00     0.000 A 
HETATM   10  C   UNL     1     -46.297  61.840 -50.601  1.00  0.00     0.030 A 
HETATM   11  C   UNL     1     -46.001  63.025 -51.282  1.00  0.00     0.002 A 
HETATM   12  C   UNL     1     -45.056  63.049 -52.305  1.00  0.00     0.001 A 
HETATM   13  C   UNL     1     -44.374  61.884 -52.674  1.00  0.00     0.014 A 
HETATM   14  C   UNL     1     -44.673  57.112 -50.994  1.00  0.00     0.077 C 
HETATM   15  C   UNL     1     -43.949  56.552 -52.243  1.00  0.00     0.132 C 
HETATM   16  O   UNL     1     -40.556  57.942 -52.407  1.00  0.00    -0.266 OA
ENDROOT
BRANCH   1  17
HETATM   17  C   UNL     1     -41.136  55.759 -51.774  1.00  0.00     0.156 A 
HETATM   18  N   UNL     1     -41.114  55.571 -50.487  1.00  0.00    -0.164 NA
HETATM   19  N   UNL     1     -40.823  54.317 -50.009  1.00  0.00    -0.238 N 
HETATM   20  C   UNL     1     -40.813  54.158 -48.568  1.00  0.00     0.183 C 
HETATM   21  C   UNL     1     -40.488  53.226 -50.807  1.00  0.00     0.274 A 
HETATM   22  C   UNL     1     -40.497  53.452 -52.264  1.00  0.00     0.046 A 
HETATM   23  O   UNL     1     -40.203  52.115 -50.366  1.00  0.00    -0.266 OA
HETATM   24  C   UNL     1     -40.833  54.707 -52.760  1.00  0.00     0.016 A 
HETATM   25  C   UNL     1     -40.174  52.410 -53.142  1.00  0.00     0.018 A 
HETATM   26  C   UNL     1     -40.855  54.923 -54.144  1.00  0.00     0.015 A 
HETATM   27  C   UNL     1     -40.530  53.883 -55.019  1.00  0.00     0.001 A 
HETATM   28  C   UNL     1     -40.188  52.628 -54.520  1.00  0.00     0.001 A 
ENDBRANCH   1  17
TORSDOF 1
ENDMDL
MODEL 7
REMARK VINA RESULT:      -8.9      3.888      8.003
REMARK  1 active torsions:
REMARK  status: ('A' for Active; 'I' for Inactive)
REMARK    1  A    between atoms: C_4  and  C_5 
REMARK       I    between atoms: C_5  and  N_6 
ROOT
HETATM    1  C   UNL     1     -41.359  58.116 -52.323  1.00  0.00     0.275 C 
HETATM    2  N   UNL     1     -42.108  56.946 -52.263  1.00  0.00    -0.342 N 
HETATM    3  C   UNL     1     -41.465  55.742 -51.714  1.00  0.00     0.167 C 
HETATM    4  C   UNL     1     -41.460  54.674 -52.764  1.00  0.00    -0.005 A 
HETATM    5  C   UNL     1     -42.201  54.751 -53.929  1.00  0.00     0.020 A 
HETATM    6  N   UNL     1     -41.968  53.630 -54.670  1.00  0.00    -0.358 N 
HETATM    7  H   UNL     1     -42.359  53.429 -55.580  1.00  0.00     0.166 HD
HETATM    8  C   UNL     1     -41.112  52.792 -53.984  1.00  0.00     0.043 A 
HETATM    9  C   UNL     1     -40.778  53.425 -52.782  1.00  0.00     0.000 A 
HETATM   10  C   UNL     1     -40.611  51.532 -54.335  1.00  0.00     0.030 A 
HETATM   11  C   UNL     1     -39.753  50.899 -53.430  1.00  0.00     0.002 A 
HETATM   12  C   UNL     1     -39.408  51.503 -52.224  1.00  0.00     0.001 A 
HETATM   13  C   UNL     1     -39.910  52.766 -51.889  1.00  0.00     0.014 A 
HETATM   14  C   UNL     1     -43.082  55.896 -54.302  1.00  0.00     0.077 C 
HETATM   15  C   UNL     1     -43.359  56.719 -53.019  1.00  0.00     0.132 C 
HETATM   16  O   UNL     1     -40.232  58.250 -51.857  1.00  0.00    -0.266 OA
ENDROOT
BRANCH   1  17
HETATM   17  C   UNL     1     -42.004  59.348 -52.935  1.00  0.00     0.156 A 
HETATM   18  N   UNL     1     -41.908  59.499 -54.224  1.00  0.00    -0.164 NA
HETATM   19  N   UNL     1     -42.499  60.594 -54.805  1.00  0.00    -0.238 N 
HETATM   20  C   UNL     1     -42.367  60.715 -56.243  1.00  0.00     0.183 C 
HETATM   21  C   UNL     1     -43.156  61.602 -54.103  1.00  0.00     0.274 A 
HETATM   22  C   UNL     1     -43.243  61.433 -52.641  1.00  0.00     0.046 A 
HETATM   23  O   UNL     1     -43.658  62.591 -54.632  1.00  0.00    -0.266 OA
HETATM   24  C   UNL     1     -42.686  60.306 -52.047  1.00  0.00     0.016 A 
HETATM   25  C   UNL     1     -43.887  62.399 -51.856  1.00  0.00     0.018 A 
HETATM   26  C   UNL     1     -42.778  60.135 -50.660  1.00  0.00     0.015 A 
HETATM   27  C   UNL     1     -43.418  61.101 -49.877  1.00  0.00     0.001 A 
HETATM   28  C   UNL     1     -43.971  62.232 -50.474  1.00  0.00     0.001 A 
ENDBRANCH   1  17
TORSDOF 1
ENDMDL
MODEL 8
REMARK VINA RESULT:      -8.9      4.314      5.827
REMARK  1 active torsions:
REMARK  status: ('A' for Active; 'I' for Inactive)
REMARK    1  A    between atoms: C_4  and  C_5 
REMARK       I    between atoms: C_5  and  N_6 
ROOT
HETATM    1  C   UNL     1     -41.386  57.763 -52.588  1.00  0.00     0.275 C 
HETATM    2  N   UNL     1     -42.708  58.170 -52.735  1.00  0.00    -0.342 N 
HETATM    3  C   UNL     1     -43.005  59.607 -52.611  1.00  0.00     0.167 C 
HETATM    4  C   UNL     1     -43.963  59.808 -51.478  1.00  0.00    -0.005 A 
HETATM    5  C   UNL     1     -44.649  58.771 -50.871  1.00  0.00     0.020 A 
HETATM    6  N   UNL     1     -45.427  59.286 -49.875  1.00  0.00    -0.358 N 
HETATM    7  H   UNL     1     -46.018  58.756 -49.251  1.00  0.00     0.166 HD
HETATM    8  C   UNL     1     -45.294  60.660 -49.849  1.00  0.00     0.043 A 
HETATM    9  C   UNL     1     -44.380  61.013 -50.847  1.00  0.00     0.000 A 
HETATM   10  C   UNL     1     -45.908  61.608 -49.022  1.00  0.00     0.030 A 
HETATM   11  C   UNL     1     -45.585  62.954 -49.225  1.00  0.00     0.002 A 
HETATM   12  C   UNL     1     -44.682  63.335 -50.215  1.00  0.00     0.001 A 
HETATM   13  C   UNL     1     -44.070  62.376 -51.030  1.00  0.00     0.014 A 
HETATM   14  C   UNL     1     -44.520  57.332 -51.244  1.00  0.00     0.077 C 
HETATM   15  C   UNL     1     -43.873  57.264 -52.649  1.00  0.00     0.132 C 
HETATM   16  O   UNL     1     -40.429  58.521 -52.466  1.00  0.00    -0.266 OA
ENDROOT
BRANCH   1  17
HETATM   17  C   UNL     1     -41.083  56.276 -52.666  1.00  0.00     0.156 A 
HETATM   18  N   UNL     1     -40.885  55.764 -53.845  1.00  0.00    -0.164 NA
HETATM   19  N   UNL     1     -40.590  54.426 -53.943  1.00  0.00    -0.238 N 
HETATM   20  C   UNL     1     -40.375  53.905 -55.278  1.00  0.00     0.183 C 
HETATM   21  C   UNL     1     -40.542  53.548 -52.863  1.00  0.00     0.274 A 
HETATM   22  C   UNL     1     -40.786  54.133 -51.532  1.00  0.00     0.046 A 
HETATM   23  O   UNL     1     -40.303  52.348 -52.965  1.00  0.00    -0.266 OA
HETATM   24  C   UNL     1     -41.043  55.495 -51.417  1.00  0.00     0.016 A 
HETATM   25  C   UNL     1     -40.756  53.322 -50.389  1.00  0.00     0.018 A 
HETATM   26  C   UNL     1     -41.263  56.056 -50.153  1.00  0.00     0.015 A 
HETATM   27  C   UNL     1     -41.235  55.246 -49.014  1.00  0.00     0.001 A 
HETATM   28  C   UNL     1     -40.983  53.881 -49.131  1.00  0.00     0.001 A 
ENDBRANCH   1  17
TORSDOF 1
ENDMDL
MODEL 9
REMARK VINA RESULT:      -8.7      1.730      3.430
REMARK  1 active torsions:
REMARK  status: ('A' for Active; 'I' for Inactive)
REMARK    1  A    between atoms: C_4  and  C_5 
REMARK       I    between atoms: C_5  and  N_6 
ROOT
HETATM    1  C   UNL     1     -41.083  55.142 -54.170  1.00  0.00     0.275 C 
HETATM    2  N   UNL     1     -42.328  54.973 -54.765  1.00  0.00    -0.342 N 
HETATM    3  C   UNL     1     -42.391  54.935 -56.235  1.00  0.00     0.167 C 
HETATM    4  C   UNL     1     -43.264  56.054 -56.712  1.00  0.00    -0.005 A 
HETATM    5  C   UNL     1     -44.082  56.789 -55.873  1.00  0.00     0.020 A 
HETATM    6  N   UNL     1     -44.733  57.732 -56.614  1.00  0.00    -0.358 N 
HETATM    7  H   UNL     1     -45.378  58.424 -56.258  1.00  0.00     0.166 HD
HETATM    8  C   UNL     1     -44.385  57.598 -57.943  1.00  0.00     0.043 A 
HETATM    9  C   UNL     1     -43.463  56.549 -58.031  1.00  0.00     0.000 A 
HETATM   10  C   UNL     1     -44.812  58.320 -59.063  1.00  0.00     0.030 A 
HETATM   11  C   UNL     1     -44.289  57.957 -60.308  1.00  0.00     0.002 A 
HETATM   12  C   UNL     1     -43.373  56.914 -60.427  1.00  0.00     0.001 A 
HETATM   13  C   UNL     1     -42.949  56.205 -59.298  1.00  0.00     0.014 A 
HETATM   14  C   UNL     1     -44.195  56.582 -54.400  1.00  0.00     0.077 C 
HETATM   15  C   UNL     1     -43.618  55.183 -54.072  1.00  0.00     0.132 C 
HETATM   16  O   UNL     1     -40.015  55.158 -54.773  1.00  0.00    -0.266 OA
ENDROOT
BRANCH   1  17
HETATM   17  C   UNL     1     -41.021  55.231 -52.654  1.00  0.00     0.156 A 
HETATM   18  N   UNL     1     -40.916  54.117 -51.990  1.00  0.00    -0.164 NA
HETATM   19  N   UNL     1     -40.838  54.170 -50.620  1.00  0.00    -0.238 N 
HETATM   20  C   UNL     1     -40.720  52.902 -49.928  1.00  0.00     0.183 C 
HETATM   21  C   UNL     1     -40.921  55.340 -49.870  1.00  0.00     0.274 A 
HETATM   22  C   UNL     1     -41.058  56.597 -50.629  1.00  0.00     0.046 A 
HETATM   23  O   UNL     1     -40.877  55.373 -48.643  1.00  0.00    -0.266 OA
HETATM   24  C   UNL     1     -41.095  56.559 -52.018  1.00  0.00     0.016 A 
HETATM   25  C   UNL     1     -41.148  57.822 -49.955  1.00  0.00     0.018 A 
HETATM   26  C   UNL     1     -41.212  57.751 -52.743  1.00  0.00     0.015 A 
HETATM   27  C   UNL     1     -41.304  58.973 -52.070  1.00  0.00     0.001 A 
HETATM   28  C   UNL     1     -41.273  59.009 -50.677  1.00  0.00     0.001 A 
ENDBRANCH   1  17
TORSDOF 1
ENDMDL
MODEL 10
REMARK VINA RESULT:      -8.7      3.223      4.375
REMARK  1 active torsions:
REMARK  status: ('A' for Active; 'I' for Inactive)
REMARK    1  A    between atoms: C_4  and  C_5 
REMARK       I    between atoms: C_5  and  N_6 
ROOT
HETATM    1  C   UNL     1     -43.060  56.755 -51.092  1.00  0.00     0.275 C 
HETATM    2  N   UNL     1     -42.417  57.979 -51.245  1.00  0.00    -0.342 N 
HETATM    3  C   UNL     1     -43.252  59.181 -51.408  1.00  0.00     0.167 C 
HETATM    4  C   UNL     1     -42.936  59.816 -52.727  1.00  0.00    -0.005 A 
HETATM    5  C   UNL     1     -41.839  59.467 -53.494  1.00  0.00     0.020 A 
HETATM    6  N   UNL     1     -41.844  60.219 -54.632  1.00  0.00    -0.358 N 
HETATM    7  H   UNL     1     -41.173  60.160 -55.385  1.00  0.00     0.166 HD
HETATM    8  C   UNL     1     -42.911  61.094 -54.603  1.00  0.00     0.043 A 
HETATM    9  C   UNL     1     -43.613  60.860 -53.415  1.00  0.00     0.000 A 
HETATM   10  C   UNL     1     -43.306  62.064 -55.531  1.00  0.00     0.030 A 
HETATM   11  C   UNL     1     -44.443  62.822 -55.235  1.00  0.00     0.002 A 
HETATM   12  C   UNL     1     -45.159  62.615 -54.058  1.00  0.00     0.001 A 
HETATM   13  C   UNL     1     -44.757  61.636 -53.142  1.00  0.00     0.014 A 
HETATM   14  C   UNL     1     -40.843  58.417 -53.127  1.00  0.00     0.077 C 
HETATM   15  C   UNL     1     -40.993  58.132 -51.612  1.00  0.00     0.132 C 
HETATM   16  O   UNL     1     -44.272  56.610 -50.977  1.00  0.00    -0.266 OA
ENDROOT
BRANCH   1  17
HETATM   17  C   UNL     1     -42.202  55.507 -50.974  1.00  0.00     0.156 A 
HETATM   18  N   UNL     1     -41.753  55.196 -49.792  1.00  0.00    -0.164 NA
HETATM   19  N   UNL     1     -40.992  54.061 -49.654  1.00  0.00    -0.238 N 
HETATM   20  C   UNL     1     -40.520  53.757 -48.317  1.00  0.00     0.183 C 
HETATM   21  C   UNL     1     -40.607  53.235 -50.707  1.00  0.00     0.274 A 
HETATM   22  C   UNL     1     -41.104  53.605 -52.045  1.00  0.00     0.046 A 
HETATM   23  O   UNL     1     -39.903  52.238 -50.574  1.00  0.00    -0.266 OA
HETATM   24  C   UNL     1     -41.912  54.728 -52.190  1.00  0.00     0.016 A 
HETATM   25  C   UNL     1     -40.767  52.830 -53.162  1.00  0.00     0.018 A 
HETATM   26  C   UNL     1     -42.395  55.076 -53.458  1.00  0.00     0.015 A 
HETATM   27  C   UNL     1     -42.056  54.303 -54.572  1.00  0.00     0.001 A 
HETATM   28  C   UNL     1     -41.242  53.182 -54.425  1.00  0.00     0.001 A 
ENDBRANCH   1  17
TORSDOF 1
ENDMDL
