MODEL 1
REMARK VINA RESULT:      -8.0      0.000      0.000
REMARK  5 active torsions:
REMARK  status: ('A' for Active; 'I' for Inactive)
REMARK    1  A    between atoms: C_5  and  C_6 
REMARK    2  A    between atoms: C_6  and  N_7 
REMARK    3  A    between atoms: C_9  and  C_10 
REMARK       I    between atoms: C_10  and  N_11 
REMARK    4  A    between atoms: N_11  and  C_12 
REMARK    5  A    between atoms: C_12  and  O_13 
ROOT
HETATM    1  N   UNL     1     -42.990  55.938 -54.401  1.00  0.00    -0.361 N 
HETATM    2  C   UNL     1     -43.044  55.986 -55.755  1.00  0.00     0.107 A 
HETATM    3  C   UNL     1     -42.693  57.148 -56.446  1.00  0.00     0.047 A 
HETATM    4  C   UNL     1     -42.306  58.273 -55.720  1.00  0.00     0.020 A 
HETATM    5  C   UNL     1     -42.259  58.204 -54.329  1.00  0.00     0.018 A 
HETATM    6  C   UNL     1     -42.596  57.017 -53.685  1.00  0.00     0.090 A 
ENDROOT
BRANCH   1   7
HETATM    7  C   UNL     1     -43.313  54.666 -53.704  1.00  0.00     0.167 C 
BRANCH   7   8
HETATM    8  C   UNL     1     -42.112  53.821 -53.337  1.00  0.00    -0.029 A 
HETATM    9  C   UNL     1     -41.656  53.815 -51.981  1.00  0.00    -0.018 A 
HETATM   10  C   UNL     1     -40.544  53.005 -51.635  1.00  0.00    -0.025 A 
HETATM   11  C   UNL     1     -42.246  54.577 -50.943  1.00  0.00     0.013 A 
HETATM   12  C   UNL     1     -40.069  52.978 -50.314  1.00  0.00     0.012 A 
HETATM   13  C   UNL     1     -39.911  52.228 -52.612  1.00  0.00     0.012 A 
HETATM   14  C   UNL     1     -40.672  53.743 -49.319  1.00  0.00     0.001 A 
HETATM   15  C   UNL     1     -41.759  54.543 -49.633  1.00  0.00     0.001 A 
HETATM   16  C   UNL     1     -40.352  52.243 -53.930  1.00  0.00     0.002 A 
HETATM   17  C   UNL     1     -41.440  53.033 -54.292  1.00  0.00     0.010 A 
ENDBRANCH   7   8
ENDBRANCH   1   7
BRANCH   3  18
HETATM   18  C   UNL     1     -42.767  57.089 -57.925  1.00  0.00     0.254 C 
HETATM   19  N   UNL     1     -41.816  57.755 -58.648  1.00  0.00    -0.336 N 
HETATM   20  H   UNL     1     -41.024  58.233 -58.249  1.00  0.00     0.164 HD
HETATM   21  O   UNL     1     -43.664  56.424 -58.434  1.00  0.00    -0.268 OA
BRANCH  19  22
HETATM   22  C   UNL     1     -41.801  57.706 -60.071  1.00  0.00     0.290 C 
BRANCH  22  23
HETATM   23  O   UNL     1     -41.402  56.392 -60.371  1.00  0.00    -0.382 OA
HETATM   24  H   UNL     1     -40.543  56.463 -60.822  1.00  0.00     0.211 HD
ENDBRANCH  22  23
ENDBRANCH  19  22
ENDBRANCH   3  18
TORSDOF 5
ENDMDL
MODEL 2
REMARK VINA RESULT:      -8.0      3.354      4.968
REMARK  5 active torsions:
REMARK  status: ('A' for Active; 'I' for Inactive)
REMARK    1  A    between atoms: C_5  and  C_6 
REMARK    2  A    between atoms: C_6  and  N_7 
REMARK    3  A    between atoms: C_9  and  C_10 
REMARK       I    between atoms: C_10  and  N_11 
REMARK    4  A    between atoms: N_11  and  C_12 
REMARK    5  A    between atoms: C_12  and  O_13 
ROOT
HETATM    1  N   UNL     1     -41.862  55.488 -53.827  1.00  0.00    -0.361 N 
HETATM    2  C   UNL     1     -41.197  56.549 -53.307  1.00  0.00     0.107 A 
HETATM    3  C   UNL     1     -41.876  57.719 -52.957  1.00  0.00     0.047 A 
HETATM    4  C   UNL     1     -43.251  57.790 -53.173  1.00  0.00     0.020 A 
HETATM    5  C   UNL     1     -43.916  56.689 -53.710  1.00  0.00     0.018 A 
HETATM    6  C   UNL     1     -43.200  55.537 -54.023  1.00  0.00     0.090 A 
ENDROOT
BRANCH   1   7
HETATM    7  C   UNL     1     -41.116  54.239 -54.132  1.00  0.00     0.167 C 
BRANCH   7   8
HETATM    8  C   UNL     1     -40.734  53.417 -52.921  1.00  0.00    -0.029 A 
HETATM    9  C   UNL     1     -40.302  52.066 -53.107  1.00  0.00    -0.018 A 
HETATM   10  C   UNL     1     -39.924  51.303 -51.972  1.00  0.00    -0.025 A 
HETATM   11  C   UNL     1     -40.228  51.424 -54.369  1.00  0.00     0.013 A 
HETATM   12  C   UNL     1     -39.498  49.973 -52.121  1.00  0.00     0.012 A 
HETATM   13  C   UNL     1     -39.975  51.874 -50.696  1.00  0.00     0.012 A 
HETATM   14  C   UNL     1     -39.441  49.374 -53.376  1.00  0.00     0.001 A 
HETATM   15  C   UNL     1     -39.806  50.098 -54.500  1.00  0.00     0.001 A 
HETATM   16  C   UNL     1     -40.403  53.183 -50.518  1.00  0.00     0.002 A 
HETATM   17  C   UNL     1     -40.782  53.949 -51.617  1.00  0.00     0.010 A 
ENDBRANCH   7   8
ENDBRANCH   1   7
BRANCH   3  18
HETATM   18  C   UNL     1     -41.060  58.812 -52.377  1.00  0.00     0.254 C 
HETATM   19  N   UNL     1     -40.332  58.548 -51.249  1.00  0.00    -0.336 N 
HETATM   20  H   UNL     1     -40.256  57.642 -50.816  1.00  0.00     0.164 HD
HETATM   21  O   UNL     1     -41.055  59.896 -52.950  1.00  0.00    -0.268 OA
BRANCH  19  22
HETATM   22  C   UNL     1     -39.493  59.538 -50.663  1.00  0.00     0.290 C 
BRANCH  22  23
HETATM   23  O   UNL     1     -38.385  59.611 -51.525  1.00  0.00    -0.382 OA
HETATM   24  H   UNL     1     -37.615  59.809 -50.964  1.00  0.00     0.211 HD
ENDBRANCH  22  23
ENDBRANCH  19  22
ENDBRANCH   3  18
TORSDOF 5
ENDMDL
MODEL 3
REMARK VINA RESULT:      -8.0      0.548      2.322
REMARK  5 active torsions:
REMARK  status: ('A' for Active; 'I' for Inactive)
REMARK    1  A    between atoms: C_5  and  C_6 
REMARK    2  A    between atoms: C_6  and  N_7 
REMARK    3  A    between atoms: C_9  and  C_10 
REMARK       I    between atoms: C_10  and  N_11 
REMARK    4  A    between atoms: N_11  and  C_12 
REMARK    5  A    between atoms: C_12  and  O_13 
ROOT
HETATM    1  N   UNL     1     -43.016  55.871 -54.223  1.00  0.00    -0.361 N 
HETATM    2  C   UNL     1     -43.082  55.836 -55.577  1.00  0.00     0.107 A 
HETATM    3  C   UNL     1     -42.633  56.912 -56.344  1.00  0.00     0.047 A 
HETATM    4  C   UNL     1     -42.135  58.041 -55.695  1.00  0.00     0.020 A 
HETATM    5  C   UNL     1     -42.077  58.059 -54.303  1.00  0.00     0.018 A 
HETATM    6  C   UNL     1     -42.516  56.952 -53.581  1.00  0.00     0.090 A 
ENDROOT
BRANCH   1   7
HETATM    7  C   UNL     1     -43.448  54.682 -53.442  1.00  0.00     0.167 C 
BRANCH   7   8
HETATM    8  C   UNL     1     -42.457  54.215 -52.398  1.00  0.00    -0.029 A 
HETATM    9  C   UNL     1     -41.432  53.293 -52.778  1.00  0.00    -0.018 A 
HETATM   10  C   UNL     1     -40.490  52.873 -51.803  1.00  0.00    -0.025 A 
HETATM   11  C   UNL     1     -41.291  52.758 -54.083  1.00  0.00     0.013 A 
HETATM   12  C   UNL     1     -39.473  51.966 -52.143  1.00  0.00     0.012 A 
HETATM   13  C   UNL     1     -40.573  53.360 -50.494  1.00  0.00     0.012 A 
HETATM   14  C   UNL     1     -39.366  51.459 -53.435  1.00  0.00     0.001 A 
HETATM   15  C   UNL     1     -40.275  51.853 -54.405  1.00  0.00     0.001 A 
HETATM   16  C   UNL     1     -41.575  54.249 -50.127  1.00  0.00     0.002 A 
HETATM   17  C   UNL     1     -42.512  54.672 -51.066  1.00  0.00     0.010 A 
ENDBRANCH   7   8
ENDBRANCH   1   7
BRANCH   3  18
HETATM   18  C   UNL     1     -42.730  56.765 -57.816  1.00  0.00     0.254 C 
HETATM   19  N   UNL     1     -42.025  57.635 -58.601  1.00  0.00    -0.336 N 
HETATM   20  H   UNL     1     -41.388  58.334 -58.253  1.00  0.00     0.164 HD
HETATM   21  O   UNL     1     -43.418  55.853 -58.262  1.00  0.00    -0.268 OA
BRANCH  19  22
HETATM   22  C   UNL     1     -42.037  57.525 -60.021  1.00  0.00     0.290 C 
BRANCH  22  23
HETATM   23  O   UNL     1     -41.320  56.345 -60.286  1.00  0.00    -0.382 OA
HETATM   24  H   UNL     1     -41.982  55.637 -60.372  1.00  0.00     0.211 HD
ENDBRANCH  22  23
ENDBRANCH  19  22
ENDBRANCH   3  18
TORSDOF 5
ENDMDL
MODEL 4
REMARK VINA RESULT:      -7.7      1.363      2.871
REMARK  5 active torsions:
REMARK  status: ('A' for Active; 'I' for Inactive)
REMARK    1  A    between atoms: C_5  and  C_6 
REMARK    2  A    between atoms: C_6  and  N_7 
REMARK    3  A    between atoms: C_9  and  C_10 
REMARK       I    between atoms: C_10  and  N_11 
REMARK    4  A    between atoms: N_11  and  C_12 
REMARK    5  A    between atoms: C_12  and  O_13 
ROOT
HETATM    1  N   UNL     1     -41.802  54.911 -54.816  1.00  0.00    -0.361 N 
HETATM    2  C   UNL     1     -41.988  55.544 -56.001  1.00  0.00     0.107 A 
HETATM    3  C   UNL     1     -43.080  56.391 -56.198  1.00  0.00     0.047 A 
HETATM    4  C   UNL     1     -43.998  56.559 -55.162  1.00  0.00     0.020 A 
HETATM    5  C   UNL     1     -43.791  55.898 -53.952  1.00  0.00     0.018 A 
HETATM    6  C   UNL     1     -42.674  55.082 -53.795  1.00  0.00     0.090 A 
ENDROOT
BRANCH   1   7
HETATM    7  C   UNL     1     -40.595  54.065 -54.623  1.00  0.00     0.167 C 
BRANCH   7   8
HETATM    8  C   UNL     1     -40.423  53.516 -53.224  1.00  0.00    -0.029 A 
HETATM    9  C   UNL     1     -40.113  52.129 -53.056  1.00  0.00    -0.018 A 
HETATM   10  C   UNL     1     -39.930  51.620 -51.745  1.00  0.00    -0.025 A 
HETATM   11  C   UNL     1     -39.977  51.212 -54.129  1.00  0.00     0.013 A 
HETATM   12  C   UNL     1     -39.628  50.264 -51.545  1.00  0.00     0.012 A 
HETATM   13  C   UNL     1     -40.052  52.470 -50.640  1.00  0.00     0.012 A 
HETATM   14  C   UNL     1     -39.505  49.390 -52.622  1.00  0.00     0.001 A 
HETATM   15  C   UNL     1     -39.680  49.863 -53.913  1.00  0.00     0.001 A 
HETATM   16  C   UNL     1     -40.362  53.814 -50.807  1.00  0.00     0.002 A 
HETATM   17  C   UNL     1     -40.549  54.334 -52.085  1.00  0.00     0.010 A 
ENDBRANCH   7   8
ENDBRANCH   1   7
BRANCH   3  18
HETATM   18  C   UNL     1     -43.179  57.051 -57.521  1.00  0.00     0.254 C 
HETATM   19  N   UNL     1     -42.100  56.987 -58.358  1.00  0.00    -0.336 N 
HETATM   20  H   UNL     1     -41.259  56.466 -58.170  1.00  0.00     0.164 HD
HETATM   21  O   UNL     1     -44.235  57.602 -57.815  1.00  0.00    -0.268 OA
BRANCH  19  22
HETATM   22  C   UNL     1     -42.140  57.561 -59.661  1.00  0.00     0.290 C 
BRANCH  22  23
HETATM   23  O   UNL     1     -41.399  56.672 -60.458  1.00  0.00    -0.382 OA
HETATM   24  H   UNL     1     -40.855  57.222 -61.048  1.00  0.00     0.211 HD
ENDBRANCH  22  23
ENDBRANCH  19  22
ENDBRANCH   3  18
TORSDOF 5
ENDMDL
MODEL 5
REMARK VINA RESULT:      -7.6      2.731      3.814
REMARK  5 active torsions:
REMARK  status: ('A' for Active; 'I' for Inactive)
REMARK    1  A    between atoms: C_5  and  C_6 
REMARK    2  A    between atoms: C_6  and  N_7 
REMARK    3  A    between atoms: C_9  and  C_10 
REMARK       I    between atoms: C_10  and  N_11 
REMARK    4  A    between atoms: N_11  and  C_12 
REMARK    5  A    between atoms: C_12  and  O_13 
ROOT
HETATM    1  N   UNL     1     -42.702  55.764 -54.399  1.00  0.00    -0.361 N 
HETATM    2  C   UNL     1     -42.101  56.689 -53.611  1.00  0.00     0.107 A 
HETATM    3  C   UNL     1     -41.804  57.963 -54.099  1.00  0.00     0.047 A 
HETATM    4  C   UNL     1     -42.113  58.266 -55.424  1.00  0.00     0.020 A 
HETATM    5  C   UNL     1     -42.728  57.301 -56.219  1.00  0.00     0.018 A 
HETATM    6  C   UNL     1     -43.025  56.052 -55.682  1.00  0.00     0.090 A 
ENDROOT
BRANCH   1   7
HETATM    7  C   UNL     1     -43.057  54.439 -53.827  1.00  0.00     0.167 C 
BRANCH   7   8
HETATM    8  C   UNL     1     -41.877  53.602 -53.384  1.00  0.00    -0.029 A 
HETATM    9  C   UNL     1     -41.490  53.623 -52.007  1.00  0.00    -0.018 A 
HETATM   10  C   UNL     1     -40.396  52.821 -51.589  1.00  0.00    -0.025 A 
HETATM   11  C   UNL     1     -42.132  54.405 -51.014  1.00  0.00     0.013 A 
HETATM   12  C   UNL     1     -39.989  52.820 -50.245  1.00  0.00     0.012 A 
HETATM   13  C   UNL     1     -39.716  52.025 -52.517  1.00  0.00     0.012 A 
HETATM   14  C   UNL     1     -40.641  53.603 -49.297  1.00  0.00     0.001 A 
HETATM   15  C   UNL     1     -41.712  54.397 -49.681  1.00  0.00     0.001 A 
HETATM   16  C   UNL     1     -40.089  52.015 -53.856  1.00  0.00     0.002 A 
HETATM   17  C   UNL     1     -41.157  52.797 -54.288  1.00  0.00     0.010 A 
ENDBRANCH   7   8
ENDBRANCH   1   7
BRANCH   3  18
HETATM   18  C   UNL     1     -41.167  58.906 -53.149  1.00  0.00     0.254 C 
HETATM   19  N   UNL     1     -40.492  58.389 -52.078  1.00  0.00    -0.336 N 
HETATM   20  H   UNL     1     -40.338  57.407 -51.918  1.00  0.00     0.164 HD
HETATM   21  O   UNL     1     -41.252  60.107 -53.383  1.00  0.00    -0.268 OA
BRANCH  19  22
HETATM   22  C   UNL     1     -39.820  59.235 -51.150  1.00  0.00     0.290 C 
BRANCH  22  23
HETATM   23  O   UNL     1     -38.612  59.565 -51.790  1.00  0.00    -0.382 OA
HETATM   24  H   UNL     1     -38.553  60.536 -51.779  1.00  0.00     0.211 HD
ENDBRANCH  22  23
ENDBRANCH  19  22
ENDBRANCH   3  18
TORSDOF 5
ENDMDL
MODEL 6
REMARK VINA RESULT:      -7.4      1.547      2.948
REMARK  5 active torsions:
REMARK  status: ('A' for Active; 'I' for Inactive)
REMARK    1  A    between atoms: C_5  and  C_6 
REMARK    2  A    between atoms: C_6  and  N_7 
REMARK    3  A    between atoms: C_9  and  C_10 
REMARK       I    between atoms: C_10  and  N_11 
REMARK    4  A    between atoms: N_11  and  C_12 
REMARK    5  A    between atoms: C_12  and  O_13 
ROOT
HETATM    1  N   UNL     1     -42.631  57.684 -54.560  1.00  0.00    -0.361 N 
HETATM    2  C   UNL     1     -42.703  57.321 -55.865  1.00  0.00     0.107 A 
HETATM    3  C   UNL     1     -43.884  57.486 -56.591  1.00  0.00     0.047 A 
HETATM    4  C   UNL     1     -45.004  58.008 -55.945  1.00  0.00     0.020 A 
HETATM    5  C   UNL     1     -44.911  58.373 -54.604  1.00  0.00     0.018 A 
HETATM    6  C   UNL     1     -43.705  58.212 -53.928  1.00  0.00     0.090 A 
ENDROOT
BRANCH   1   7
HETATM    7  C   UNL     1     -41.339  57.551 -53.837  1.00  0.00     0.167 C 
BRANCH   7   8
HETATM    8  C   UNL     1     -41.277  56.400 -52.857  1.00  0.00    -0.029 A 
HETATM    9  C   UNL     1     -40.881  55.108 -53.326  1.00  0.00    -0.018 A 
HETATM   10  C   UNL     1     -40.802  54.035 -52.401  1.00  0.00    -0.025 A 
HETATM   11  C   UNL     1     -40.559  54.820 -54.677  1.00  0.00     0.013 A 
HETATM   12  C   UNL     1     -40.419  52.755 -52.831  1.00  0.00     0.012 A 
HETATM   13  C   UNL     1     -41.109  54.249 -51.053  1.00  0.00     0.012 A 
HETATM   14  C   UNL     1     -40.113  52.507 -54.165  1.00  0.00     0.001 A 
HETATM   15  C   UNL     1     -40.183  53.538 -55.089  1.00  0.00     0.001 A 
HETATM   16  C   UNL     1     -41.502  55.503 -50.602  1.00  0.00     0.002 A 
HETATM   17  C   UNL     1     -41.589  56.570 -51.493  1.00  0.00     0.010 A 
ENDBRANCH   7   8
ENDBRANCH   1   7
BRANCH   3  18
HETATM   18  C   UNL     1     -43.851  57.077 -58.015  1.00  0.00     0.254 C 
HETATM   19  N   UNL     1     -42.672  56.612 -58.528  1.00  0.00    -0.336 N 
HETATM   20  H   UNL     1     -41.833  56.463 -57.990  1.00  0.00     0.164 HD
HETATM   21  O   UNL     1     -44.890  57.151 -58.662  1.00  0.00    -0.268 OA
BRANCH  19  22
HETATM   22  C   UNL     1     -42.579  56.162 -59.876  1.00  0.00     0.290 C 
BRANCH  22  23
HETATM   23  O   UNL     1     -41.275  56.509 -60.270  1.00  0.00    -0.382 OA
HETATM   24  H   UNL     1     -41.081  55.983 -61.066  1.00  0.00     0.211 HD
ENDBRANCH  22  23
ENDBRANCH  19  22
ENDBRANCH   3  18
TORSDOF 5
ENDMDL
MODEL 7
REMARK VINA RESULT:      -7.4      3.702      5.104
REMARK  5 active torsions:
REMARK  status: ('A' for Active; 'I' for Inactive)
REMARK    1  A    between atoms: C_5  and  C_6 
REMARK    2  A    between atoms: C_6  and  N_7 
REMARK    3  A    between atoms: C_9  and  C_10 
REMARK       I    between atoms: C_10  and  N_11 
REMARK    4  A    between atoms: N_11  and  C_12 
REMARK    5  A    between atoms: C_12  and  O_13 
ROOT
HETATM    1  N   UNL     1     -43.251  56.355 -53.096  1.00  0.00    -0.361 N 
HETATM    2  C   UNL     1     -44.092  56.952 -52.216  1.00  0.00     0.107 A 
HETATM    3  C   UNL     1     -43.952  58.304 -51.893  1.00  0.00     0.047 A 
HETATM    4  C   UNL     1     -42.913  59.030 -52.474  1.00  0.00     0.020 A 
HETATM    5  C   UNL     1     -42.058  58.399 -53.375  1.00  0.00     0.018 A 
HETATM    6  C   UNL     1     -42.252  57.055 -53.683  1.00  0.00     0.090 A 
ENDROOT
BRANCH   1   7
HETATM    7  C   UNL     1     -43.468  54.931 -53.461  1.00  0.00     0.167 C 
BRANCH   7   8
HETATM    8  C   UNL     1     -42.231  54.063 -53.394  1.00  0.00    -0.029 A 
HETATM    9  C   UNL     1     -41.627  53.813 -52.121  1.00  0.00    -0.018 A 
HETATM   10  C   UNL     1     -40.479  52.982 -52.058  1.00  0.00    -0.025 A 
HETATM   11  C   UNL     1     -42.101  54.352 -50.899  1.00  0.00     0.013 A 
HETATM   12  C   UNL     1     -39.860  52.719 -50.825  1.00  0.00     0.012 A 
HETATM   13  C   UNL     1     -39.956  52.419 -53.227  1.00  0.00     0.012 A 
HETATM   14  C   UNL     1     -40.352  53.267 -49.644  1.00  0.00     0.001 A 
HETATM   15  C   UNL     1     -41.471  54.084 -49.680  1.00  0.00     0.001 A 
HETATM   16  C   UNL     1     -40.541  52.671 -54.462  1.00  0.00     0.002 A 
HETATM   17  C   UNL     1     -41.665  53.487 -54.548  1.00  0.00     0.010 A 
ENDBRANCH   7   8
ENDBRANCH   1   7
BRANCH   3  18
HETATM   18  C   UNL     1     -44.936  58.864 -50.937  1.00  0.00     0.254 C 
HETATM   19  N   UNL     1     -44.557  59.931 -50.170  1.00  0.00    -0.336 N 
HETATM   20  H   UNL     1     -43.675  60.411 -50.251  1.00  0.00     0.164 HD
HETATM   21  O   UNL     1     -46.053  58.361 -50.896  1.00  0.00    -0.268 OA
BRANCH  19  22
HETATM   22  C   UNL     1     -45.464  60.547 -49.261  1.00  0.00     0.290 C 
BRANCH  22  23
HETATM   23  O   UNL     1     -45.911  59.493 -48.445  1.00  0.00    -0.382 OA
HETATM   24  H   UNL     1     -46.693  59.118 -48.888  1.00  0.00     0.211 HD
ENDBRANCH  22  23
ENDBRANCH  19  22
ENDBRANCH   3  18
TORSDOF 5
ENDMDL
MODEL 8
REMARK VINA RESULT:      -7.3      2.468      3.422
REMARK  5 active torsions:
REMARK  status: ('A' for Active; 'I' for Inactive)
REMARK    1  A    between atoms: C_5  and  C_6 
REMARK    2  A    between atoms: C_6  and  N_7 
REMARK    3  A    between atoms: C_9  and  C_10 
REMARK       I    between atoms: C_10  and  N_11 
REMARK    4  A    between atoms: N_11  and  C_12 
REMARK    5  A    between atoms: C_12  and  O_13 
ROOT
HETATM    1  N   UNL     1     -42.889  55.719 -54.755  1.00  0.00    -0.361 N 
HETATM    2  C   UNL     1     -42.578  56.927 -54.224  1.00  0.00     0.107 A 
HETATM    3  C   UNL     1     -42.319  58.026 -55.045  1.00  0.00     0.047 A 
HETATM    4  C   UNL     1     -42.360  57.858 -56.429  1.00  0.00     0.020 A 
HETATM    5  C   UNL     1     -42.680  56.608 -56.955  1.00  0.00     0.018 A 
HETATM    6  C   UNL     1     -42.953  55.548 -56.096  1.00  0.00     0.090 A 
ENDROOT
BRANCH   1   7
HETATM    7  C   UNL     1     -43.218  54.588 -53.850  1.00  0.00     0.167 C 
BRANCH   7   8
HETATM    8  C   UNL     1     -42.023  53.801 -53.357  1.00  0.00    -0.029 A 
HETATM    9  C   UNL     1     -41.565  54.000 -52.016  1.00  0.00    -0.018 A 
HETATM   10  C   UNL     1     -40.458  53.246 -51.550  1.00  0.00    -0.025 A 
HETATM   11  C   UNL     1     -42.150  54.917 -51.107  1.00  0.00     0.013 A 
HETATM   12  C   UNL     1     -39.983  53.419 -50.240  1.00  0.00     0.012 A 
HETATM   13  C   UNL     1     -39.831  52.324 -52.396  1.00  0.00     0.012 A 
HETATM   14  C   UNL     1     -40.580  54.331 -49.374  1.00  0.00     0.001 A 
HETATM   15  C   UNL     1     -41.662  55.081 -49.807  1.00  0.00     0.001 A 
HETATM   16  C   UNL     1     -40.273  52.140 -53.700  1.00  0.00     0.002 A 
HETATM   17  C   UNL     1     -41.356  52.872 -54.180  1.00  0.00     0.010 A 
ENDBRANCH   7   8
ENDBRANCH   1   7
BRANCH   3  18
HETATM   18  C   UNL     1     -42.010  59.306 -54.364  1.00  0.00     0.254 C 
HETATM   19  N   UNL     1     -43.020  60.214 -54.205  1.00  0.00    -0.336 N 
HETATM   20  H   UNL     1     -43.981  60.053 -54.459  1.00  0.00     0.164 HD
HETATM   21  O   UNL     1     -40.869  59.481 -53.952  1.00  0.00    -0.268 OA
BRANCH  19  22
HETATM   22  C   UNL     1     -42.805  61.446 -53.523  1.00  0.00     0.290 C 
BRANCH  22  23
HETATM   23  O   UNL     1     -42.676  61.079 -52.172  1.00  0.00    -0.382 OA
HETATM   24  H   UNL     1     -43.013  60.169 -52.103  1.00  0.00     0.211 HD
ENDBRANCH  22  23
ENDBRANCH  19  22
ENDBRANCH   3  18
TORSDOF 5
ENDMDL
MODEL 9
REMARK VINA RESULT:      -7.1      4.154      6.621
REMARK  5 active torsions:
REMARK  status: ('A' for Active; 'I' for Inactive)
REMARK    1  A    between atoms: C_5  and  C_6 
REMARK    2  A    between atoms: C_6  and  N_7 
REMARK    3  A    between atoms: C_9  and  C_10 
REMARK       I    between atoms: C_10  and  N_11 
REMARK    4  A    between atoms: N_11  and  C_12 
REMARK    5  A    between atoms: C_12  and  O_13 
ROOT
HETATM    1  N   UNL     1     -40.937  54.750 -52.503  1.00  0.00    -0.361 N 
HETATM    2  C   UNL     1     -40.666  53.421 -52.528  1.00  0.00     0.107 A 
HETATM    3  C   UNL     1     -40.269  52.792 -53.710  1.00  0.00     0.047 A 
HETATM    4  C   UNL     1     -40.177  53.549 -54.877  1.00  0.00     0.020 A 
HETATM    5  C   UNL     1     -40.461  54.912 -54.832  1.00  0.00     0.018 A 
HETATM    6  C   UNL     1     -40.831  55.499 -53.625  1.00  0.00     0.090 A 
ENDROOT
BRANCH   1   7
HETATM    7  C   UNL     1     -41.298  55.396 -51.214  1.00  0.00     0.167 C 
BRANCH   7   8
HETATM    8  C   UNL     1     -42.339  56.489 -51.322  1.00  0.00    -0.029 A 
HETATM    9  C   UNL     1     -41.955  57.841 -51.056  1.00  0.00    -0.018 A 
HETATM   10  C   UNL     1     -42.926  58.868 -51.179  1.00  0.00    -0.025 A 
HETATM   11  C   UNL     1     -40.649  58.233 -50.668  1.00  0.00     0.013 A 
HETATM   12  C   UNL     1     -42.583  60.205 -50.923  1.00  0.00     0.012 A 
HETATM   13  C   UNL     1     -44.236  58.551 -51.557  1.00  0.00     0.012 A 
HETATM   14  C   UNL     1     -41.290  60.553 -50.541  1.00  0.00     0.001 A 
HETATM   15  C   UNL     1     -40.323  59.568 -50.412  1.00  0.00     0.001 A 
HETATM   16  C   UNL     1     -44.607  57.235 -51.806  1.00  0.00     0.002 A 
HETATM   17  C   UNL     1     -43.671  56.212 -51.688  1.00  0.00     0.010 A 
ENDBRANCH   7   8
ENDBRANCH   1   7
BRANCH   3  18
HETATM   18  C   UNL     1     -39.976  51.342 -53.624  1.00  0.00     0.254 C 
HETATM   19  N   UNL     1     -39.764  50.796 -52.389  1.00  0.00    -0.336 N 
HETATM   20  H   UNL     1     -39.855  51.295 -51.519  1.00  0.00     0.164 HD
HETATM   21  O   UNL     1     -39.964  50.692 -54.665  1.00  0.00    -0.268 OA
BRANCH  19  22
HETATM   22  C   UNL     1     -39.521  49.402 -52.229  1.00  0.00     0.290 C 
BRANCH  22  23
HETATM   23  O   UNL     1     -39.042  49.280 -50.913  1.00  0.00    -0.382 OA
HETATM   24  H   UNL     1     -38.232  49.817 -50.866  1.00  0.00     0.211 HD
ENDBRANCH  22  23
ENDBRANCH  19  22
ENDBRANCH   3  18
TORSDOF 5
ENDMDL
MODEL 10
REMARK VINA RESULT:      -7.1      3.956      5.584
REMARK  5 active torsions:
REMARK  status: ('A' for Active; 'I' for Inactive)
REMARK    1  A    between atoms: C_5  and  C_6 
REMARK    2  A    between atoms: C_6  and  N_7 
REMARK    3  A    between atoms: C_9  and  C_10 
REMARK       I    between atoms: C_10  and  N_11 
REMARK    4  A    between atoms: N_11  and  C_12 
REMARK    5  A    between atoms: C_12  and  O_13 
ROOT
HETATM    1  N   UNL     1     -42.192  56.838 -51.384  1.00  0.00    -0.361 N 
HETATM    2  C   UNL     1     -43.084  57.857 -51.312  1.00  0.00     0.107 A 
HETATM    3  C   UNL     1     -42.666  59.156 -51.019  1.00  0.00     0.047 A 
HETATM    4  C   UNL     1     -41.313  59.390 -50.776  1.00  0.00     0.020 A 
HETATM    5  C   UNL     1     -40.412  58.330 -50.853  1.00  0.00     0.018 A 
HETATM    6  C   UNL     1     -40.873  57.056 -51.171  1.00  0.00     0.090 A 
ENDROOT
BRANCH   1   7
HETATM    7  C   UNL     1     -42.665  55.480 -51.757  1.00  0.00     0.167 C 
BRANCH   7   8
HETATM    8  C   UNL     1     -41.863  54.806 -52.849  1.00  0.00    -0.029 A 
HETATM    9  C   UNL     1     -41.066  53.664 -52.520  1.00  0.00    -0.018 A 
HETATM   10  C   UNL     1     -40.331  53.020 -53.549  1.00  0.00    -0.025 A 
HETATM   11  C   UNL     1     -40.954  53.125 -51.213  1.00  0.00     0.013 A 
HETATM   12  C   UNL     1     -39.536  51.900 -53.258  1.00  0.00     0.012 A 
HETATM   13  C   UNL     1     -40.394  53.502 -54.861  1.00  0.00     0.012 A 
HETATM   14  C   UNL     1     -39.448  51.398 -51.963  1.00  0.00     0.001 A 
HETATM   15  C   UNL     1     -40.155  52.011 -50.940  1.00  0.00     0.001 A 
HETATM   16  C   UNL     1     -41.162  54.616 -55.175  1.00  0.00     0.002 A 
HETATM   17  C   UNL     1     -41.889  55.265 -54.180  1.00  0.00     0.010 A 
ENDBRANCH   7   8
ENDBRANCH   1   7
BRANCH   3  18
HETATM   18  C   UNL     1     -43.717  60.200 -50.985  1.00  0.00     0.254 C 
HETATM   19  N   UNL     1     -44.131  60.662 -49.766  1.00  0.00    -0.336 N 
HETATM   20  H   UNL     1     -43.727  60.392 -48.884  1.00  0.00     0.164 HD
HETATM   21  O   UNL     1     -44.150  60.621 -52.052  1.00  0.00    -0.268 OA
BRANCH  19  22
HETATM   22  C   UNL     1     -45.106  61.695 -49.659  1.00  0.00     0.290 C 
BRANCH  22  23
HETATM   23  O   UNL     1     -46.312  61.077 -50.033  1.00  0.00    -0.382 OA
HETATM   24  H   UNL     1     -46.834  61.754 -50.496  1.00  0.00     0.211 HD
ENDBRANCH  22  23
ENDBRANCH  19  22
ENDBRANCH   3  18
TORSDOF 5
ENDMDL
