MODEL 1
REMARK VINA RESULT:      -8.5      0.000      0.000
REMARK  3 active torsions:
REMARK  status: ('A' for Active; 'I' for Inactive)
REMARK    1  A    between atoms: C_9  and  C_10 
REMARK    2  A    between atoms: C_16  and  C_17 
REMARK       I    between atoms: C_17  and  N_18 
REMARK    3  A    between atoms: N_18  and  C_19 
ROOT
HETATM    1  C   UNL     1     -42.832  55.415 -57.031  1.00  0.00     0.070 C 
HETATM    2  C   UNL     1     -42.303  56.080 -55.786  1.00  0.00     0.037 A 
HETATM    3  N   UNL     1     -42.314  57.472 -55.795  1.00  0.00    -0.191 N 
HETATM    4  C   UNL     1     -41.729  58.215 -54.833  1.00  0.00     0.735 A 
HETATM    5  N   UNL     1     -41.186  57.593 -53.743  1.00  0.00    -0.091 N 
HETATM    6  N   UNL     1     -40.533  58.487 -52.979  1.00  0.00     0.012 NA
HETATM    7  N   UNL     1     -40.761  59.657 -53.568  1.00  0.00     0.033 NA
HETATM    8  N   UNL     1     -41.500  59.502 -54.726  1.00  0.00     0.030 NA
HETATM    9  C   UNL     1     -41.171  56.153 -53.531  1.00  0.00     0.216 A 
HETATM   10  C   UNL     1     -41.784  55.421 -54.720  1.00  0.00     0.063 A 
HETATM   11  H   UNL     1     -42.655  57.937 -56.632  1.00  0.00     0.184 HD
ENDROOT
BRANCH  10  12
HETATM   12  C   UNL     1     -41.687  53.943 -54.614  1.00  0.00     0.256 C 
HETATM   13  N   UNL     1     -40.560  53.519 -53.949  1.00  0.00    -0.323 N 
HETATM   14  H   UNL     1     -39.902  54.237 -53.670  1.00  0.00     0.169 HD
HETATM   15  O   UNL     1     -42.557  53.262 -55.141  1.00  0.00    -0.267 OA
BRANCH  13  16
HETATM   16  C   UNL     1     -40.202  52.194 -53.626  1.00  0.00     0.035 A 
HETATM   17  C   UNL     1     -40.179  51.147 -54.548  1.00  0.00     0.029 A 
HETATM   18  C   UNL     1     -39.826  49.854 -54.143  1.00  0.00     0.002 A 
HETATM   19  C   UNL     1     -39.503  49.599 -52.812  1.00  0.00     0.000 A 
HETATM   20  C   UNL     1     -39.524  50.636 -51.885  1.00  0.00     0.002 A 
HETATM   21  C   UNL     1     -39.867  51.929 -52.292  1.00  0.00     0.029 A 
ENDBRANCH  13  16
ENDBRANCH  10  12
BRANCH   9  22
HETATM   22  C   UNL     1     -41.882  55.841 -52.219  1.00  0.00     0.064 A 
HETATM   23  N   UNL     1     -41.185  55.184 -51.250  1.00  0.00    -0.263 NA
HETATM   24  C   UNL     1     -41.842  54.889 -50.105  1.00  0.00     0.117 A 
HETATM   25  C   UNL     1     -43.165  55.217 -49.867  1.00  0.00     0.019 A 
HETATM   26  C   UNL     1     -43.864  55.887 -50.861  1.00  0.00     0.003 A 
HETATM   27  C   UNL     1     -43.221  56.204 -52.053  1.00  0.00     0.030 A 
ENDBRANCH   9  22
TORSDOF 3
ENDMDL
MODEL 2
REMARK VINA RESULT:      -8.4      2.046      4.003
REMARK  3 active torsions:
REMARK  status: ('A' for Active; 'I' for Inactive)
REMARK    1  A    between atoms: C_9  and  C_10 
REMARK    2  A    between atoms: C_16  and  C_17 
REMARK       I    between atoms: C_17  and  N_18 
REMARK    3  A    between atoms: N_18  and  C_19 
ROOT
HETATM    1  C   UNL     1     -40.964  56.184 -49.799  1.00  0.00     0.070 C 
HETATM    2  C   UNL     1     -41.938  56.652 -50.850  1.00  0.00     0.037 A 
HETATM    3  N   UNL     1     -42.258  58.006 -50.816  1.00  0.00    -0.191 N 
HETATM    4  C   UNL     1     -43.231  58.547 -51.577  1.00  0.00     0.735 A 
HETATM    5  N   UNL     1     -43.871  57.769 -52.501  1.00  0.00    -0.091 N 
HETATM    6  N   UNL     1     -44.892  58.450 -53.051  1.00  0.00     0.012 NA
HETATM    7  N   UNL     1     -44.807  59.665 -52.518  1.00  0.00     0.033 NA
HETATM    8  N   UNL     1     -43.780  59.738 -51.595  1.00  0.00     0.030 NA
HETATM    9  C   UNL     1     -43.595  56.358 -52.732  1.00  0.00     0.216 A 
HETATM   10  C   UNL     1     -42.540  55.843 -51.758  1.00  0.00     0.063 A 
HETATM   11  H   UNL     1     -41.834  58.574 -50.087  1.00  0.00     0.184 HD
ENDROOT
BRANCH  10  12
HETATM   12  C   UNL     1     -42.306  54.381 -51.865  1.00  0.00     0.256 C 
HETATM   13  N   UNL     1     -41.144  54.064 -52.529  1.00  0.00    -0.323 N 
HETATM   14  H   UNL     1     -40.621  54.838 -52.921  1.00  0.00     0.169 HD
HETATM   15  O   UNL     1     -43.151  53.620 -51.410  1.00  0.00    -0.267 OA
BRANCH  13  16
HETATM   16  C   UNL     1     -40.602  52.781 -52.745  1.00  0.00     0.035 A 
HETATM   17  C   UNL     1     -39.950  52.034 -51.762  1.00  0.00     0.029 A 
HETATM   18  C   UNL     1     -39.426  50.772 -52.063  1.00  0.00     0.002 A 
HETATM   19  C   UNL     1     -39.542  50.251 -53.350  1.00  0.00     0.000 A 
HETATM   20  C   UNL     1     -40.189  50.988 -54.337  1.00  0.00     0.002 A 
HETATM   21  C   UNL     1     -40.722  52.245 -54.034  1.00  0.00     0.029 A 
ENDBRANCH  13  16
ENDBRANCH  10  12
BRANCH   9  22
HETATM   22  C   UNL     1     -43.192  56.167 -54.189  1.00  0.00     0.064 A 
HETATM   23  N   UNL     1     -42.492  57.163 -54.799  1.00  0.00    -0.263 NA
HETATM   24  C   UNL     1     -42.170  56.989 -56.101  1.00  0.00     0.117 A 
HETATM   25  C   UNL     1     -42.505  55.866 -56.836  1.00  0.00     0.019 A 
HETATM   26  C   UNL     1     -43.217  54.856 -56.203  1.00  0.00     0.003 A 
HETATM   27  C   UNL     1     -43.568  55.004 -54.865  1.00  0.00     0.030 A 
ENDBRANCH   9  22
TORSDOF 3
ENDMDL
MODEL 3
REMARK VINA RESULT:      -8.3      1.489      1.999
REMARK  3 active torsions:
REMARK  status: ('A' for Active; 'I' for Inactive)
REMARK    1  A    between atoms: C_9  and  C_10 
REMARK    2  A    between atoms: C_16  and  C_17 
REMARK       I    between atoms: C_17  and  N_18 
REMARK    3  A    between atoms: N_18  and  C_19 
ROOT
HETATM    1  C   UNL     1     -43.223  55.127 -57.873  1.00  0.00     0.070 C 
HETATM    2  C   UNL     1     -42.878  56.245 -56.922  1.00  0.00     0.037 A 
HETATM    3  N   UNL     1     -43.001  57.533 -57.434  1.00  0.00    -0.191 N 
HETATM    4  C   UNL     1     -42.577  58.628 -56.771  1.00  0.00     0.735 A 
HETATM    5  N   UNL     1     -42.098  58.498 -55.498  1.00  0.00    -0.091 N 
HETATM    6  N   UNL     1     -41.601  59.670 -55.069  1.00  0.00     0.012 NA
HETATM    7  N   UNL     1     -41.862  60.523 -56.054  1.00  0.00     0.033 NA
HETATM    8  N   UNL     1     -42.466  59.887 -57.123  1.00  0.00     0.030 NA
HETATM    9  C   UNL     1     -41.989  57.237 -54.778  1.00  0.00     0.216 A 
HETATM   10  C   UNL     1     -42.418  56.067 -55.659  1.00  0.00     0.063 A 
HETATM   11  H   UNL     1     -43.293  57.630 -58.404  1.00  0.00     0.184 HD
ENDROOT
BRANCH  10  12
HETATM   12  C   UNL     1     -42.212  54.744 -55.019  1.00  0.00     0.256 C 
HETATM   13  N   UNL     1     -40.978  54.613 -54.425  1.00  0.00    -0.323 N 
HETATM   14  H   UNL     1     -40.335  55.386 -54.542  1.00  0.00     0.169 HD
HETATM   15  O   UNL     1     -43.102  53.908 -55.108  1.00  0.00    -0.267 OA
BRANCH  13  16
HETATM   16  C   UNL     1     -40.494  53.515 -53.685  1.00  0.00     0.035 A 
HETATM   17  C   UNL     1     -40.113  52.299 -54.254  1.00  0.00     0.029 A 
HETATM   18  C   UNL     1     -39.656  51.251 -53.446  1.00  0.00     0.002 A 
HETATM   19  C   UNL     1     -39.587  51.408 -52.064  1.00  0.00     0.000 A 
HETATM   20  C   UNL     1     -39.967  52.616 -51.487  1.00  0.00     0.002 A 
HETATM   21  C   UNL     1     -40.413  53.666 -52.294  1.00  0.00     0.029 A 
ENDBRANCH  13  16
ENDBRANCH  10  12
BRANCH   9  22
HETATM   22  C   UNL     1     -42.801  57.331 -53.491  1.00  0.00     0.064 A 
HETATM   23  N   UNL     1     -42.216  56.924 -52.330  1.00  0.00    -0.263 NA
HETATM   24  C   UNL     1     -42.962  56.986 -51.204  1.00  0.00     0.117 A 
HETATM   25  C   UNL     1     -44.269  57.440 -51.167  1.00  0.00     0.019 A 
HETATM   26  C   UNL     1     -44.853  57.854 -52.356  1.00  0.00     0.003 A 
HETATM   27  C   UNL     1     -44.116  57.800 -53.535  1.00  0.00     0.030 A 
ENDBRANCH   9  22
TORSDOF 3
ENDMDL
MODEL 4
REMARK VINA RESULT:      -8.0      2.039      5.540
REMARK  3 active torsions:
REMARK  status: ('A' for Active; 'I' for Inactive)
REMARK    1  A    between atoms: C_9  and  C_10 
REMARK    2  A    between atoms: C_16  and  C_17 
REMARK       I    between atoms: C_17  and  N_18 
REMARK    3  A    between atoms: N_18  and  C_19 
ROOT
HETATM    1  C   UNL     1     -40.504  52.643 -54.266  1.00  0.00     0.070 C 
HETATM    2  C   UNL     1     -40.924  53.397 -53.031  1.00  0.00     0.037 A 
HETATM    3  N   UNL     1     -40.256  53.056 -51.858  1.00  0.00    -0.191 N 
HETATM    4  C   UNL     1     -40.623  53.517 -50.645  1.00  0.00     0.735 A 
HETATM    5  N   UNL     1     -41.627  54.440 -50.554  1.00  0.00    -0.091 N 
HETATM    6  N   UNL     1     -41.935  54.662 -49.265  1.00  0.00     0.012 NA
HETATM    7  N   UNL     1     -41.055  53.937 -48.582  1.00  0.00     0.033 NA
HETATM    8  N   UNL     1     -40.234  53.215 -49.430  1.00  0.00     0.030 NA
HETATM    9  C   UNL     1     -42.368  54.974 -51.688  1.00  0.00     0.216 A 
HETATM   10  C   UNL     1     -41.920  54.317 -52.990  1.00  0.00     0.063 A 
HETATM   11  H   UNL     1     -39.554  52.322 -51.911  1.00  0.00     0.184 HD
ENDROOT
BRANCH  10  12
HETATM   12  C   UNL     1     -42.726  54.734 -54.166  1.00  0.00     0.256 C 
HETATM   13  N   UNL     1     -42.079  55.639 -54.974  1.00  0.00    -0.323 N 
HETATM   14  H   UNL     1     -41.175  55.967 -54.655  1.00  0.00     0.169 HD
HETATM   15  O   UNL     1     -43.860  54.287 -54.284  1.00  0.00    -0.267 OA
BRANCH  13  16
HETATM   16  C   UNL     1     -42.537  56.183 -56.192  1.00  0.00     0.035 A 
HETATM   17  C   UNL     1     -42.859  55.418 -57.314  1.00  0.00     0.029 A 
HETATM   18  C   UNL     1     -43.293  56.037 -58.492  1.00  0.00     0.002 A 
HETATM   19  C   UNL     1     -43.398  57.424 -58.559  1.00  0.00     0.000 A 
HETATM   20  C   UNL     1     -43.078  58.195 -57.446  1.00  0.00     0.002 A 
HETATM   21  C   UNL     1     -42.654  57.577 -56.266  1.00  0.00     0.029 A 
ENDBRANCH  13  16
ENDBRANCH  10  12
BRANCH   9  22
HETATM   22  C   UNL     1     -42.210  56.490 -51.711  1.00  0.00     0.064 A 
HETATM   23  N   UNL     1     -40.999  57.005 -52.062  1.00  0.00    -0.263 NA
HETATM   24  C   UNL     1     -40.868  58.351 -52.046  1.00  0.00     0.117 A 
HETATM   25  C   UNL     1     -41.886  59.222 -51.702  1.00  0.00     0.019 A 
HETATM   26  C   UNL     1     -43.117  58.686 -51.348  1.00  0.00     0.003 A 
HETATM   27  C   UNL     1     -43.286  57.304 -51.349  1.00  0.00     0.030 A 
ENDBRANCH   9  22
TORSDOF 3
ENDMDL
MODEL 5
REMARK VINA RESULT:      -8.0     15.056     17.473
REMARK  3 active torsions:
REMARK  status: ('A' for Active; 'I' for Inactive)
REMARK    1  A    between atoms: C_9  and  C_10 
REMARK    2  A    between atoms: C_16  and  C_17 
REMARK       I    between atoms: C_17  and  N_18 
REMARK    3  A    between atoms: N_18  and  C_19 
ROOT
HETATM    1  C   UNL     1     -36.714  40.127 -50.477  1.00  0.00     0.070 C 
HETATM    2  C   UNL     1     -35.214  40.052 -50.601  1.00  0.00     0.037 A 
HETATM    3  N   UNL     1     -34.556  39.377 -49.577  1.00  0.00    -0.191 N 
HETATM    4  C   UNL     1     -33.213  39.362 -49.455  1.00  0.00     0.735 A 
HETATM    5  N   UNL     1     -32.445  39.941 -50.425  1.00  0.00    -0.091 N 
HETATM    6  N   UNL     1     -31.153  39.945 -50.051  1.00  0.00     0.012 NA
HETATM    7  N   UNL     1     -31.140  39.289 -48.895  1.00  0.00     0.033 NA
HETATM    8  N   UNL     1     -32.416  38.924 -48.509  1.00  0.00     0.030 NA
HETATM    9  C   UNL     1     -32.967  40.608 -51.610  1.00  0.00     0.216 A 
HETATM   10  C   UNL     1     -34.492  40.633 -51.592  1.00  0.00     0.063 A 
HETATM   11  H   UNL     1     -35.121  39.003 -48.819  1.00  0.00     0.184 HD
ENDROOT
BRANCH  10  12
HETATM   12  C   UNL     1     -35.080  41.407 -52.715  1.00  0.00     0.256 C 
HETATM   13  N   UNL     1     -35.277  40.654 -53.850  1.00  0.00    -0.323 N 
HETATM   14  H   UNL     1     -34.947  39.697 -53.821  1.00  0.00     0.169 HD
HETATM   15  O   UNL     1     -35.289  42.602 -52.553  1.00  0.00    -0.267 OA
BRANCH  13  16
HETATM   16  C   UNL     1     -35.868  41.067 -55.061  1.00  0.00     0.035 A 
HETATM   17  C   UNL     1     -35.148  41.541 -56.158  1.00  0.00     0.029 A 
HETATM   18  C   UNL     1     -35.814  41.946 -57.321  1.00  0.00     0.002 A 
HETATM   19  C   UNL     1     -37.203  41.889 -57.391  1.00  0.00     0.000 A 
HETATM   20  C   UNL     1     -37.931  41.418 -56.302  1.00  0.00     0.002 A 
HETATM   21  C   UNL     1     -37.266  41.004 -55.144  1.00  0.00     0.029 A 
ENDBRANCH  13  16
ENDBRANCH  10  12
BRANCH   9  22
HETATM   22  C   UNL     1     -32.406  39.922 -52.850  1.00  0.00     0.064 A 
HETATM   23  N   UNL     1     -32.109  40.693 -53.933  1.00  0.00    -0.263 NA
HETATM   24  C   UNL     1     -31.641  40.063 -55.034  1.00  0.00     0.117 A 
HETATM   25  C   UNL     1     -31.445  38.696 -55.117  1.00  0.00     0.019 A 
HETATM   26  C   UNL     1     -31.749  37.920 -54.007  1.00  0.00     0.003 A 
HETATM   27  C   UNL     1     -32.236  38.535 -52.857  1.00  0.00     0.030 A 
ENDBRANCH   9  22
TORSDOF 3
ENDMDL
MODEL 6
REMARK VINA RESULT:      -7.9      1.846      2.682
REMARK  3 active torsions:
REMARK  status: ('A' for Active; 'I' for Inactive)
REMARK    1  A    between atoms: C_9  and  C_10 
REMARK    2  A    between atoms: C_16  and  C_17 
REMARK       I    between atoms: C_17  and  N_18 
REMARK    3  A    between atoms: N_18  and  C_19 
ROOT
HETATM    1  C   UNL     1     -43.388  54.346 -56.085  1.00  0.00     0.070 C 
HETATM    2  C   UNL     1     -42.929  55.737 -55.730  1.00  0.00     0.037 A 
HETATM    3  N   UNL     1     -43.718  56.776 -56.214  1.00  0.00    -0.191 N 
HETATM    4  C   UNL     1     -43.359  58.072 -56.125  1.00  0.00     0.735 A 
HETATM    5  N   UNL     1     -42.223  58.408 -55.442  1.00  0.00    -0.091 N 
HETATM    6  N   UNL     1     -41.967  59.719 -55.588  1.00  0.00     0.012 NA
HETATM    7  N   UNL     1     -42.997  60.185 -56.287  1.00  0.00     0.033 NA
HETATM    8  N   UNL     1     -43.870  59.169 -56.632  1.00  0.00     0.030 NA
HETATM    9  C   UNL     1     -41.333  57.455 -54.794  1.00  0.00     0.216 A 
HETATM   10  C   UNL     1     -41.799  56.023 -55.036  1.00  0.00     0.063 A 
HETATM   11  H   UNL     1     -44.527  56.530 -56.780  1.00  0.00     0.184 HD
ENDROOT
BRANCH  10  12
HETATM   12  C   UNL     1     -40.862  55.003 -54.502  1.00  0.00     0.256 C 
HETATM   13  N   UNL     1     -41.383  54.282 -53.452  1.00  0.00    -0.323 N 
HETATM   14  H   UNL     1     -42.298  54.562 -53.121  1.00  0.00     0.169 HD
HETATM   15  O   UNL     1     -39.743  54.924 -54.993  1.00  0.00    -0.267 OA
BRANCH  13  16
HETATM   16  C   UNL     1     -40.781  53.208 -52.767  1.00  0.00     0.035 A 
HETATM   17  C   UNL     1     -40.697  53.120 -51.376  1.00  0.00     0.029 A 
HETATM   18  C   UNL     1     -40.068  52.024 -50.772  1.00  0.00     0.002 A 
HETATM   19  C   UNL     1     -39.512  51.015 -51.554  1.00  0.00     0.000 A 
HETATM   20  C   UNL     1     -39.589  51.094 -52.941  1.00  0.00     0.002 A 
HETATM   21  C   UNL     1     -40.226  52.183 -53.544  1.00  0.00     0.029 A 
ENDBRANCH  13  16
ENDBRANCH  10  12
BRANCH   9  22
HETATM   22  C   UNL     1     -41.236  57.799 -53.312  1.00  0.00     0.064 A 
HETATM   23  N   UNL     1     -42.204  57.327 -52.478  1.00  0.00    -0.263 NA
HETATM   24  C   UNL     1     -42.118  57.668 -51.172  1.00  0.00     0.117 A 
HETATM   25  C   UNL     1     -41.112  58.456 -50.644  1.00  0.00     0.019 A 
HETATM   26  C   UNL     1     -40.130  58.931 -51.503  1.00  0.00     0.003 A 
HETATM   27  C   UNL     1     -40.189  58.602 -52.854  1.00  0.00     0.030 A 
ENDBRANCH   9  22
TORSDOF 3
ENDMDL
MODEL 7
REMARK VINA RESULT:      -7.7      2.372      3.510
REMARK  3 active torsions:
REMARK  status: ('A' for Active; 'I' for Inactive)
REMARK    1  A    between atoms: C_9  and  C_10 
REMARK    2  A    between atoms: C_16  and  C_17 
REMARK       I    between atoms: C_17  and  N_18 
REMARK    3  A    between atoms: N_18  and  C_19 
ROOT
HETATM    1  C   UNL     1     -43.234  55.410 -58.609  1.00  0.00     0.070 C 
HETATM    2  C   UNL     1     -42.897  56.685 -57.879  1.00  0.00     0.037 A 
HETATM    3  N   UNL     1     -42.896  57.842 -58.652  1.00  0.00    -0.191 N 
HETATM    4  C   UNL     1     -42.459  59.031 -58.191  1.00  0.00     0.735 A 
HETATM    5  N   UNL     1     -42.094  59.149 -56.879  1.00  0.00    -0.091 N 
HETATM    6  N   UNL     1     -41.560  60.362 -56.654  1.00  0.00     0.012 NA
HETATM    7  N   UNL     1     -41.686  61.001 -57.813  1.00  0.00     0.033 NA
HETATM    8  N   UNL     1     -42.240  60.182 -58.780  1.00  0.00     0.030 NA
HETATM    9  C   UNL     1     -42.123  58.062 -55.909  1.00  0.00     0.216 A 
HETATM   10  C   UNL     1     -42.552  56.756 -56.568  1.00  0.00     0.063 A 
HETATM   11  H   UNL     1     -43.102  57.748 -59.644  1.00  0.00     0.184 HD
ENDROOT
BRANCH  10  12
HETATM   12  C   UNL     1     -42.483  55.587 -55.655  1.00  0.00     0.256 C 
HETATM   13  N   UNL     1     -41.197  55.234 -55.320  1.00  0.00    -0.323 N 
HETATM   14  H   UNL     1     -40.453  55.752 -55.772  1.00  0.00     0.169 HD
HETATM   15  O   UNL     1     -43.529  55.039 -55.329  1.00  0.00    -0.267 OA
BRANCH  13  16
HETATM   16  C   UNL     1     -40.789  54.218 -54.431  1.00  0.00     0.035 A 
HETATM   17  C   UNL     1     -40.234  53.004 -54.838  1.00  0.00     0.029 A 
HETATM   18  C   UNL     1     -39.870  52.040 -53.891  1.00  0.00     0.002 A 
HETATM   19  C   UNL     1     -40.066  52.279 -52.533  1.00  0.00     0.000 A 
HETATM   20  C   UNL     1     -40.619  53.487 -52.118  1.00  0.00     0.002 A 
HETATM   21  C   UNL     1     -40.974  54.454 -53.062  1.00  0.00     0.029 A 
ENDBRANCH  13  16
ENDBRANCH  10  12
BRANCH   9  22
HETATM   22  C   UNL     1     -43.029  58.461 -54.750  1.00  0.00     0.064 A 
HETATM   23  N   UNL     1     -44.321  58.790 -55.027  1.00  0.00    -0.263 NA
HETATM   24  C   UNL     1     -45.101  59.170 -53.990  1.00  0.00     0.117 A 
HETATM   25  C   UNL     1     -44.664  59.238 -52.679  1.00  0.00     0.019 A 
HETATM   26  C   UNL     1     -43.346  58.898 -52.408  1.00  0.00     0.003 A 
HETATM   27  C   UNL     1     -42.514  58.506 -53.452  1.00  0.00     0.030 A 
ENDBRANCH   9  22
TORSDOF 3
ENDMDL
MODEL 8
REMARK VINA RESULT:      -7.7      2.362      5.539
REMARK  3 active torsions:
REMARK  status: ('A' for Active; 'I' for Inactive)
REMARK    1  A    between atoms: C_9  and  C_10 
REMARK    2  A    between atoms: C_16  and  C_17 
REMARK       I    between atoms: C_17  and  N_18 
REMARK    3  A    between atoms: N_18  and  C_19 
ROOT
HETATM    1  C   UNL     1     -45.044  59.137 -53.072  1.00  0.00     0.070 C 
HETATM    2  C   UNL     1     -43.584  58.760 -53.079  1.00  0.00     0.037 A 
HETATM    3  N   UNL     1     -42.796  59.379 -52.113  1.00  0.00    -0.191 N 
HETATM    4  C   UNL     1     -41.452  59.277 -52.088  1.00  0.00     0.735 A 
HETATM    5  N   UNL     1     -40.826  58.452 -52.981  1.00  0.00    -0.091 N 
HETATM    6  N   UNL     1     -39.493  58.598 -52.888  1.00  0.00     0.012 NA
HETATM    7  N   UNL     1     -39.320  59.446 -51.879  1.00  0.00     0.033 NA
HETATM    8  N   UNL     1     -40.532  59.880 -51.375  1.00  0.00     0.030 NA
HETATM    9  C   UNL     1     -41.505  57.660 -53.997  1.00  0.00     0.216 A 
HETATM   10  C   UNL     1     -43.008  57.925 -53.978  1.00  0.00     0.063 A 
HETATM   11  H   UNL     1     -43.247  60.045 -51.490  1.00  0.00     0.184 HD
ENDROOT
BRANCH  10  12
HETATM   12  C   UNL     1     -43.738  57.237 -55.073  1.00  0.00     0.256 C 
HETATM   13  N   UNL     1     -43.366  57.663 -56.327  1.00  0.00    -0.323 N 
HETATM   14  H   UNL     1     -42.700  58.426 -56.366  1.00  0.00     0.169 HD
HETATM   15  O   UNL     1     -44.599  56.419 -54.775  1.00  0.00    -0.267 OA
BRANCH  13  16
HETATM   16  C   UNL     1     -43.818  57.173 -57.569  1.00  0.00     0.035 A 
HETATM   17  C   UNL     1     -44.882  57.726 -58.284  1.00  0.00     0.029 A 
HETATM   18  C   UNL     1     -45.279  57.169 -59.505  1.00  0.00     0.002 A 
HETATM   19  C   UNL     1     -44.622  56.052 -60.015  1.00  0.00     0.000 A 
HETATM   20  C   UNL     1     -43.561  55.493 -59.309  1.00  0.00     0.002 A 
HETATM   21  C   UNL     1     -43.157  56.055 -58.094  1.00  0.00     0.029 A 
ENDBRANCH  13  16
ENDBRANCH  10  12
BRANCH   9  22
HETATM   22  C   UNL     1     -41.165  56.190 -53.785  1.00  0.00     0.064 A 
HETATM   23  N   UNL     1     -41.384  55.650 -52.554  1.00  0.00    -0.263 NA
HETATM   24  C   UNL     1     -41.047  54.352 -52.377  1.00  0.00     0.117 A 
HETATM   25  C   UNL     1     -40.504  53.552 -53.366  1.00  0.00     0.019 A 
HETATM   26  C   UNL     1     -40.287  54.113 -54.618  1.00  0.00     0.003 A 
HETATM   27  C   UNL     1     -40.618  55.447 -54.835  1.00  0.00     0.030 A 
ENDBRANCH   9  22
TORSDOF 3
ENDMDL
MODEL 9
REMARK VINA RESULT:      -7.6      2.359      3.664
REMARK  3 active torsions:
REMARK  status: ('A' for Active; 'I' for Inactive)
REMARK    1  A    between atoms: C_9  and  C_10 
REMARK    2  A    between atoms: C_16  and  C_17 
REMARK       I    between atoms: C_17  and  N_18 
REMARK    3  A    between atoms: N_18  and  C_19 
ROOT
HETATM    1  C   UNL     1     -42.980  54.608 -56.191  1.00  0.00     0.070 C 
HETATM    2  C   UNL     1     -42.751  56.050 -55.816  1.00  0.00     0.037 A 
HETATM    3  N   UNL     1     -42.681  56.947 -56.879  1.00  0.00    -0.191 N 
HETATM    4  C   UNL     1     -42.320  58.237 -56.726  1.00  0.00     0.735 A 
HETATM    5  N   UNL     1     -42.110  58.730 -55.469  1.00  0.00    -0.091 N 
HETATM    6  N   UNL     1     -41.626  59.982 -55.538  1.00  0.00     0.012 NA
HETATM    7  N   UNL     1     -41.629  60.269 -56.836  1.00  0.00     0.033 NA
HETATM    8  N   UNL     1     -42.055  59.189 -57.588  1.00  0.00     0.030 NA
HETATM    9  C   UNL     1     -42.231  57.955 -54.242  1.00  0.00     0.216 A 
HETATM   10  C   UNL     1     -42.560  56.497 -54.550  1.00  0.00     0.063 A 
HETATM   11  H   UNL     1     -42.770  56.572 -57.820  1.00  0.00     0.184 HD
ENDROOT
BRANCH  10  12
HETATM   12  C   UNL     1     -42.576  55.632 -53.343  1.00  0.00     0.256 C 
HETATM   13  N   UNL     1     -41.352  55.542 -52.722  1.00  0.00    -0.323 N 
HETATM   14  H   UNL     1     -40.578  56.009 -53.178  1.00  0.00     0.169 HD
HETATM   15  O   UNL     1     -43.620  55.066 -53.046  1.00  0.00    -0.267 OA
BRANCH  13  16
HETATM   16  C   UNL     1     -41.044  54.858 -51.529  1.00  0.00     0.035 A 
HETATM   17  C   UNL     1     -40.547  53.554 -51.484  1.00  0.00     0.029 A 
HETATM   18  C   UNL     1     -40.281  52.940 -50.255  1.00  0.00     0.002 A 
HETATM   19  C   UNL     1     -40.517  53.620 -49.063  1.00  0.00     0.000 A 
HETATM   20  C   UNL     1     -41.013  54.920 -49.097  1.00  0.00     0.002 A 
HETATM   21  C   UNL     1     -41.270  55.538 -50.324  1.00  0.00     0.029 A 
ENDBRANCH  13  16
ENDBRANCH  10  12
BRANCH   9  22
HETATM   22  C   UNL     1     -43.271  58.614 -53.343  1.00  0.00     0.064 A 
HETATM   23  N   UNL     1     -44.505  58.864 -53.862  1.00  0.00    -0.263 NA
HETATM   24  C   UNL     1     -45.404  59.477 -53.059  1.00  0.00     0.117 A 
HETATM   25  C   UNL     1     -45.143  59.855 -51.754  1.00  0.00     0.019 A 
HETATM   26  C   UNL     1     -43.882  59.594 -51.235  1.00  0.00     0.003 A 
HETATM   27  C   UNL     1     -42.931  58.967 -52.035  1.00  0.00     0.030 A 
ENDBRANCH   9  22
TORSDOF 3
ENDMDL
MODEL 10
REMARK VINA RESULT:      -7.4      2.457      3.558
REMARK  3 active torsions:
REMARK  status: ('A' for Active; 'I' for Inactive)
REMARK    1  A    between atoms: C_9  and  C_10 
REMARK    2  A    between atoms: C_16  and  C_17 
REMARK       I    between atoms: C_17  and  N_18 
REMARK    3  A    between atoms: N_18  and  C_19 
ROOT
HETATM    1  C   UNL     1     -43.714  54.805 -54.887  1.00  0.00     0.070 C 
HETATM    2  C   UNL     1     -43.122  56.191 -54.835  1.00  0.00     0.037 A 
HETATM    3  N   UNL     1     -43.734  57.139 -55.650  1.00  0.00    -0.191 N 
HETATM    4  C   UNL     1     -43.229  58.375 -55.842  1.00  0.00     0.735 A 
HETATM    5  N   UNL     1     -42.126  58.766 -55.136  1.00  0.00    -0.091 N 
HETATM    6  N   UNL     1     -41.700  59.964 -55.571  1.00  0.00     0.012 NA
HETATM    7  N   UNL     1     -42.601  60.329 -56.478  1.00  0.00     0.033 NA
HETATM    8  N   UNL     1     -43.556  59.346 -56.661  1.00  0.00     0.030 NA
HETATM    9  C   UNL     1     -41.418  57.932 -54.174  1.00  0.00     0.216 A 
HETATM   10  C   UNL     1     -42.031  56.537 -54.107  1.00  0.00     0.063 A 
HETATM   11  H   UNL     1     -44.513  56.834 -56.227  1.00  0.00     0.184 HD
ENDROOT
BRANCH  10  12
HETATM   12  C   UNL     1     -41.276  55.605 -53.233  1.00  0.00     0.256 C 
HETATM   13  N   UNL     1     -41.711  55.611 -51.928  1.00  0.00    -0.323 N 
HETATM   14  H   UNL     1     -42.435  56.280 -51.695  1.00  0.00     0.169 HD
HETATM   15  O   UNL     1     -40.346  54.974 -53.719  1.00  0.00    -0.267 OA
BRANCH  13  16
HETATM   16  C   UNL     1     -41.252  54.804 -50.867  1.00  0.00     0.035 A 
HETATM   17  C   UNL     1     -40.872  53.469 -51.011  1.00  0.00     0.029 A 
HETATM   18  C   UNL     1     -40.441  52.731 -49.902  1.00  0.00     0.002 A 
HETATM   19  C   UNL     1     -40.397  53.320 -48.641  1.00  0.00     0.000 A 
HETATM   20  C   UNL     1     -40.775  54.650 -48.486  1.00  0.00     0.002 A 
HETATM   21  C   UNL     1     -41.195  55.390 -49.595  1.00  0.00     0.029 A 
ENDBRANCH  13  16
ENDBRANCH  10  12
BRANCH   9  22
HETATM   22  C   UNL     1     -41.411  58.637 -52.822  1.00  0.00     0.064 A 
HETATM   23  N   UNL     1     -40.226  58.749 -52.162  1.00  0.00    -0.263 NA
HETATM   24  C   UNL     1     -40.245  59.349 -50.950  1.00  0.00     0.117 A 
HETATM   25  C   UNL     1     -41.388  59.853 -50.355  1.00  0.00     0.019 A 
HETATM   26  C   UNL     1     -42.590  59.734 -51.039  1.00  0.00     0.003 A 
HETATM   27  C   UNL     1     -42.608  59.118 -52.287  1.00  0.00     0.030 A 
ENDBRANCH   9  22
TORSDOF 3
ENDMDL
