MODEL 1
REMARK VINA RESULT:      -8.0      0.000      0.000
REMARK  10 active torsions:
REMARK  status: ('A' for Active; 'I' for Inactive)
REMARK    1  A    between atoms: O_2  and  C_3 
REMARK    2  A    between atoms: C_3  and  C_4 
REMARK    3  A    between atoms: C_6  and  C_7 
REMARK    4  A    between atoms: C_7  and  C_8 
REMARK    5  A    between atoms: C_8  and  N_9 
REMARK       I    between atoms: N_9  and  C_10 
REMARK       I    between atoms: C_10  and  N_17 
REMARK    6  A    between atoms: N_17  and  CA_18 
REMARK    7  A    between atoms: CA_18  and  C_19 
REMARK    8  A    between atoms: CA_18  and  CB_21 
REMARK    9  A    between atoms: C_19  and  O_20 
REMARK   10  A    between atoms: CB_21  and  CG_22 
ROOT
HETATM    1  N   UNK A   0     -42.020  58.025 -54.388  1.00  0.00    -0.343 N 
HETATM    2  C   UNK A   0     -41.107  58.273 -53.414  1.00  0.00     0.316 C 
HETATM    3  O   UNK A   0     -40.351  59.238 -53.422  1.00  0.00    -0.248 OA
HETATM    4  H   UNK A   0     -42.763  57.376 -54.195  1.00  0.00     0.164 HD
ATOM      5  N   TRP A   1     -41.029  57.363 -52.415  1.00  0.00    -0.336 N 
ATOM      6  H   TRP A   1     -40.360  57.630 -51.700  1.00  0.00     0.164 HD
ENDROOT
BRANCH   5   7
ATOM      7  CA  TRP A   1     -41.824  56.156 -52.154  1.00  0.00     0.114 C 
BRANCH   7   8
ATOM      8  C   TRP A   1     -42.947  56.497 -51.149  1.00  0.00     0.189 C 
BRANCH   8   9
ATOM      9  O   TRP A   1     -44.092  55.669 -51.363  1.00  0.00    -0.399 OA
ATOM     10  H   TRP A   1     -44.727  56.176 -51.897  1.00  0.00     0.209 HD
ENDBRANCH   8   9
ENDBRANCH   7   8
BRANCH   7  11
ATOM     11  CB  TRP A   1     -40.966  54.983 -51.633  1.00  0.00     0.068 C 
BRANCH  11  12
ATOM     12  CG  TRP A   1     -40.667  53.965 -52.693  1.00  0.00    -0.028 A 
ATOM     13  CD2 TRP A   1     -40.250  52.610 -52.491  1.00  0.00    -0.002 A 
ATOM     14  CE2 TRP A   1     -40.110  52.023 -53.749  1.00  0.00     0.042 A 
ATOM     15  CE3 TRP A   1     -39.981  51.823 -51.351  1.00  0.00     0.014 A 
ATOM     16  CZ2 TRP A   1     -39.722  50.690 -53.927  1.00  0.00     0.030 A 
ATOM     17  NE1 TRP A   1     -40.412  52.986 -54.682  1.00  0.00    -0.365 N 
ATOM     18  CH2 TRP A   1     -39.463  49.932 -52.781  1.00  0.00     0.002 A 
ATOM     19  CZ3 TRP A   1     -39.588  50.488 -51.511  1.00  0.00     0.001 A 
ATOM     20  HE1 TRP A   1     -40.385  52.840 -55.682  1.00  0.00     0.165 HD
ATOM     21  CD1 TRP A   1     -40.745  54.160 -54.059  1.00  0.00     0.096 A 
ENDBRANCH  11  12
ENDBRANCH   7  11
ENDBRANCH   5   7
BRANCH   1  22
HETATM   22  C   UNK A   0     -42.160  58.876 -55.556  1.00  0.00     0.129 C 
BRANCH  22  23
HETATM   23  C   UNK A   0     -43.408  58.588 -56.404  1.00  0.00     0.058 C 
BRANCH  23  24
HETATM   24  C   UNK A   0     -43.099  57.887 -57.707  1.00  0.00    -0.056 A 
HETATM   25  C   UNK A   0     -43.926  56.844 -58.154  1.00  0.00     0.024 A 
HETATM   26  C   UNK A   0     -43.673  56.200 -59.373  1.00  0.00     0.040 A 
HETATM   27  C   UNK A   0     -42.574  56.599 -60.142  1.00  0.00     0.017 A 
HETATM   28  C   UNK A   0     -41.745  57.632 -59.703  1.00  0.00     0.002 A 
HETATM   29  C   UNK A   0     -42.008  58.277 -58.493  1.00  0.00     0.007 A 
BRANCH  26  30
HETATM   30  C   UNK A   0     -44.535  55.102 -59.888  1.00  0.00     0.292 C 
HETATM   31  O   UNK A   0     -44.548  53.976 -59.416  1.00  0.00    -0.259 OA
BRANCH  30  32
HETATM   32  O   UNK A   0     -45.278  55.527 -60.941  1.00  0.00    -0.323 OA
HETATM   33  C   UNK A   0     -46.568  56.022 -60.583  1.00  0.00     0.213 C 
ENDBRANCH  30  32
ENDBRANCH  26  30
ENDBRANCH  23  24
ENDBRANCH  22  23
ENDBRANCH   1  22
TORSDOF 10
ENDMDL
MODEL 2
REMARK VINA RESULT:      -8.0      3.322      7.191
REMARK  10 active torsions:
REMARK  status: ('A' for Active; 'I' for Inactive)
REMARK    1  A    between atoms: O_2  and  C_3 
REMARK    2  A    between atoms: C_3  and  C_4 
REMARK    3  A    between atoms: C_6  and  C_7 
REMARK    4  A    between atoms: C_7  and  C_8 
REMARK    5  A    between atoms: C_8  and  N_9 
REMARK       I    between atoms: N_9  and  C_10 
REMARK       I    between atoms: C_10  and  N_17 
REMARK    6  A    between atoms: N_17  and  CA_18 
REMARK    7  A    between atoms: CA_18  and  C_19 
REMARK    8  A    between atoms: CA_18  and  CB_21 
REMARK    9  A    between atoms: C_19  and  O_20 
REMARK   10  A    between atoms: CB_21  and  CG_22 
ROOT
HETATM    1  N   UNK A   0     -41.309  58.409 -53.897  1.00  0.00    -0.343 N 
HETATM    2  C   UNK A   0     -41.688  59.707 -54.024  1.00  0.00     0.316 C 
HETATM    3  O   UNK A   0     -41.694  60.507 -53.094  1.00  0.00    -0.248 OA
HETATM    4  H   UNK A   0     -41.089  57.891 -54.730  1.00  0.00     0.164 HD
ATOM      5  N   TRP A   1     -42.113  60.094 -55.249  1.00  0.00    -0.336 N 
ATOM      6  H   TRP A   1     -42.339  61.083 -55.286  1.00  0.00     0.164 HD
ENDROOT
BRANCH   5   7
ATOM      7  CA  TRP A   1     -42.177  59.358 -56.519  1.00  0.00     0.114 C 
BRANCH   7   8
ATOM      8  C   TRP A   1     -41.664  60.268 -57.657  1.00  0.00     0.189 C 
BRANCH   8   9
ATOM      9  O   TRP A   1     -41.235  61.532 -57.146  1.00  0.00    -0.399 OA
ATOM     10  H   TRP A   1     -40.319  61.675 -57.440  1.00  0.00     0.209 HD
ENDBRANCH   8   9
ENDBRANCH   7   8
BRANCH   7  11
ATOM     11  CB  TRP A   1     -43.597  58.841 -56.833  1.00  0.00     0.068 C 
BRANCH  11  12
ATOM     12  CG  TRP A   1     -44.036  57.747 -55.904  1.00  0.00    -0.028 A 
ATOM     13  CD2 TRP A   1     -43.385  56.491 -55.686  1.00  0.00    -0.002 A 
ATOM     14  CE2 TRP A   1     -44.123  55.797 -54.728  1.00  0.00     0.042 A 
ATOM     15  CE3 TRP A   1     -42.228  55.878 -56.212  1.00  0.00     0.014 A 
ATOM     16  CZ2 TRP A   1     -43.764  54.526 -54.264  1.00  0.00     0.030 A 
ATOM     17  NE1 TRP A   1     -45.194  56.590 -54.388  1.00  0.00    -0.365 N 
ATOM     18  CH2 TRP A   1     -42.613  53.942 -54.801  1.00  0.00     0.002 A 
ATOM     19  CZ3 TRP A   1     -41.856  54.605 -55.763  1.00  0.00     0.001 A 
ATOM     20  HE1 TRP A   1     -45.905  56.333 -53.717  1.00  0.00     0.165 HD
ATOM     21  CD1 TRP A   1     -45.154  57.764 -55.092  1.00  0.00     0.096 A 
ENDBRANCH  11  12
ENDBRANCH   7  11
ENDBRANCH   5   7
BRANCH   1  22
HETATM   22  C   UNK A   0     -40.903  57.840 -52.625  1.00  0.00     0.129 C 
BRANCH  22  23
HETATM   23  C   UNK A   0     -41.973  56.968 -51.950  1.00  0.00     0.058 C 
BRANCH  23  24
HETATM   24  C   UNK A   0     -41.398  55.798 -51.185  1.00  0.00    -0.056 A 
HETATM   25  C   UNK A   0     -40.975  54.650 -51.875  1.00  0.00     0.024 A 
HETATM   26  C   UNK A   0     -40.413  53.566 -51.187  1.00  0.00     0.040 A 
HETATM   27  C   UNK A   0     -40.286  53.631 -49.794  1.00  0.00     0.017 A 
HETATM   28  C   UNK A   0     -40.707  54.767 -49.101  1.00  0.00     0.002 A 
HETATM   29  C   UNK A   0     -41.257  55.848 -49.793  1.00  0.00     0.007 A 
BRANCH  26  30
HETATM   30  C   UNK A   0     -39.940  52.339 -51.883  1.00  0.00     0.292 C 
HETATM   31  O   UNK A   0     -39.618  51.314 -51.301  1.00  0.00    -0.259 OA
BRANCH  30  32
HETATM   32  O   UNK A   0     -39.911  52.530 -53.226  1.00  0.00    -0.323 OA
HETATM   33  C   UNK A   0     -39.948  51.322 -53.987  1.00  0.00     0.213 C 
ENDBRANCH  30  32
ENDBRANCH  26  30
ENDBRANCH  23  24
ENDBRANCH  22  23
ENDBRANCH   1  22
TORSDOF 10
ENDMDL
MODEL 3
REMARK VINA RESULT:      -7.9      1.814      2.431
REMARK  10 active torsions:
REMARK  status: ('A' for Active; 'I' for Inactive)
REMARK    1  A    between atoms: O_2  and  C_3 
REMARK    2  A    between atoms: C_3  and  C_4 
REMARK    3  A    between atoms: C_6  and  C_7 
REMARK    4  A    between atoms: C_7  and  C_8 
REMARK    5  A    between atoms: C_8  and  N_9 
REMARK       I    between atoms: N_9  and  C_10 
REMARK       I    between atoms: C_10  and  N_17 
REMARK    6  A    between atoms: N_17  and  CA_18 
REMARK    7  A    between atoms: CA_18  and  C_19 
REMARK    8  A    between atoms: CA_18  and  CB_21 
REMARK    9  A    between atoms: C_19  and  O_20 
REMARK   10  A    between atoms: CB_21  and  CG_22 
ROOT
HETATM    1  N   UNK A   0     -41.762  55.169 -54.242  1.00  0.00    -0.343 N 
HETATM    2  C   UNK A   0     -41.887  56.199 -53.366  1.00  0.00     0.316 C 
HETATM    3  O   UNK A   0     -41.979  57.374 -53.707  1.00  0.00    -0.248 OA
HETATM    4  H   UNK A   0     -41.946  54.237 -53.914  1.00  0.00     0.164 HD
ATOM      5  N   TRP A   1     -41.866  55.879 -52.051  1.00  0.00    -0.336 N 
ATOM      6  H   TRP A   1     -42.007  56.687 -51.453  1.00  0.00     0.164 HD
ENDROOT
BRANCH   5   7
ATOM      7  CA  TRP A   1     -41.797  54.572 -51.384  1.00  0.00     0.114 C 
BRANCH   7   8
ATOM      8  C   TRP A   1     -42.611  54.631 -50.071  1.00  0.00     0.189 C 
BRANCH   8   9
ATOM      9  O   TRP A   1     -41.745  54.706 -48.937  1.00  0.00    -0.399 OA
ATOM     10  H   TRP A   1     -42.296  54.636 -48.139  1.00  0.00     0.209 HD
ENDBRANCH   8   9
ENDBRANCH   7   8
BRANCH   7  11
ATOM     11  CB  TRP A   1     -40.347  54.124 -51.105  1.00  0.00     0.068 C 
BRANCH  11  12
ATOM     12  CG  TRP A   1     -40.169  52.638 -51.193  1.00  0.00    -0.028 A 
ATOM     13  CD2 TRP A   1     -39.971  51.864 -52.382  1.00  0.00    -0.002 A 
ATOM     14  CE2 TRP A   1     -39.832  50.531 -51.996  1.00  0.00     0.042 A 
ATOM     15  CE3 TRP A   1     -39.893  52.174 -53.756  1.00  0.00     0.014 A 
ATOM     16  CZ2 TRP A   1     -39.612  49.493 -52.909  1.00  0.00     0.030 A 
ATOM     17  NE1 TRP A   1     -39.959  50.490 -50.627  1.00  0.00    -0.365 N 
ATOM     18  CH2 TRP A   1     -39.537  49.828 -54.264  1.00  0.00     0.002 A 
ATOM     19  CZ3 TRP A   1     -39.677  51.148 -54.684  1.00  0.00     0.001 A 
ATOM     20  HE1 TRP A   1     -39.908  49.645 -50.074  1.00  0.00     0.165 HD
ATOM     21  CD1 TRP A   1     -40.166  51.750 -50.134  1.00  0.00     0.096 A 
ENDBRANCH  11  12
ENDBRANCH   7  11
ENDBRANCH   5   7
BRANCH   1  22
HETATM   22  C   UNK A   0     -41.694  55.375 -55.677  1.00  0.00     0.129 C 
BRANCH  22  23
HETATM   23  C   UNK A   0     -42.946  54.919 -56.443  1.00  0.00     0.058 C 
BRANCH  23  24
HETATM   24  C   UNK A   0     -43.113  55.603 -57.781  1.00  0.00    -0.056 A 
HETATM   25  C   UNK A   0     -44.030  55.097 -58.716  1.00  0.00     0.024 A 
HETATM   26  C   UNK A   0     -44.221  55.734 -59.950  1.00  0.00     0.040 A 
HETATM   27  C   UNK A   0     -43.474  56.879 -60.251  1.00  0.00     0.017 A 
HETATM   28  C   UNK A   0     -42.558  57.386 -59.329  1.00  0.00     0.002 A 
HETATM   29  C   UNK A   0     -42.381  56.754 -58.097  1.00  0.00     0.007 A 
BRANCH  26  30
HETATM   30  C   UNK A   0     -45.193  55.238 -60.961  1.00  0.00     0.292 C 
HETATM   31  O   UNK A   0     -44.868  54.797 -62.052  1.00  0.00    -0.259 OA
BRANCH  30  32
HETATM   32  O   UNK A   0     -46.465  55.356 -60.502  1.00  0.00    -0.323 OA
HETATM   33  C   UNK A   0     -47.112  56.571 -60.882  1.00  0.00     0.213 C 
ENDBRANCH  30  32
ENDBRANCH  26  30
ENDBRANCH  23  24
ENDBRANCH  22  23
ENDBRANCH   1  22
TORSDOF 10
ENDMDL
MODEL 4
REMARK VINA RESULT:      -7.9      2.124      5.448
REMARK  10 active torsions:
REMARK  status: ('A' for Active; 'I' for Inactive)
REMARK    1  A    between atoms: O_2  and  C_3 
REMARK    2  A    between atoms: C_3  and  C_4 
REMARK    3  A    between atoms: C_6  and  C_7 
REMARK    4  A    between atoms: C_7  and  C_8 
REMARK    5  A    between atoms: C_8  and  N_9 
REMARK       I    between atoms: N_9  and  C_10 
REMARK       I    between atoms: C_10  and  N_17 
REMARK    6  A    between atoms: N_17  and  CA_18 
REMARK    7  A    between atoms: CA_18  and  C_19 
REMARK    8  A    between atoms: CA_18  and  CB_21 
REMARK    9  A    between atoms: C_19  and  O_20 
REMARK   10  A    between atoms: CB_21  and  CG_22 
ROOT
HETATM    1  N   UNK A   0     -42.413  56.696 -56.951  1.00  0.00    -0.343 N 
HETATM    2  C   UNK A   0     -43.087  55.621 -57.436  1.00  0.00     0.316 C 
HETATM    3  O   UNK A   0     -43.548  55.564 -58.571  1.00  0.00    -0.248 OA
HETATM    4  H   UNK A   0     -41.854  56.578 -56.123  1.00  0.00     0.164 HD
ATOM      5  N   TRP A   1     -43.273  54.590 -56.579  1.00  0.00    -0.336 N 
ATOM      6  H   TRP A   1     -43.743  53.803 -57.017  1.00  0.00     0.164 HD
ENDROOT
BRANCH   5   7
ATOM      7  CA  TRP A   1     -42.806  54.392 -55.201  1.00  0.00     0.114 C 
BRANCH   7   8
ATOM      8  C   TRP A   1     -43.386  55.509 -54.304  1.00  0.00     0.189 C 
BRANCH   8   9
ATOM      9  O   TRP A   1     -44.813  55.529 -54.373  1.00  0.00    -0.399 OA
ATOM     10  H   TRP A   1     -45.139  54.698 -53.987  1.00  0.00     0.209 HD
ENDBRANCH   8   9
ENDBRANCH   7   8
BRANCH   7  11
ATOM     11  CB  TRP A   1     -41.266  54.354 -55.097  1.00  0.00     0.068 C 
BRANCH  11  12
ATOM     12  CG  TRP A   1     -40.784  53.705 -53.834  1.00  0.00    -0.028 A 
ATOM     13  CD2 TRP A   1     -40.411  52.334 -53.660  1.00  0.00    -0.002 A 
ATOM     14  CE2 TRP A   1     -40.005  52.175 -52.335  1.00  0.00     0.042 A 
ATOM     15  CE3 TRP A   1     -40.375  51.208 -54.510  1.00  0.00     0.014 A 
ATOM     16  CZ2 TRP A   1     -39.560  50.953 -51.817  1.00  0.00     0.030 A 
ATOM     17  NE1 TRP A   1     -40.143  53.397 -51.719  1.00  0.00    -0.365 N 
ATOM     18  CH2 TRP A   1     -39.534  49.854 -52.680  1.00  0.00     0.002 A 
ATOM     19  CZ3 TRP A   1     -39.937  49.977 -54.007  1.00  0.00     0.001 A 
ATOM     20  HE1 TRP A   1     -39.928  53.574 -50.747  1.00  0.00     0.165 HD
ATOM     21  CD1 TRP A   1     -40.614  54.324 -52.609  1.00  0.00     0.096 A 
ENDBRANCH  11  12
ENDBRANCH   7  11
ENDBRANCH   5   7
BRANCH   1  22
HETATM   22  C   UNK A   0     -42.207  57.900 -57.734  1.00  0.00     0.129 C 
BRANCH  22  23
HETATM   23  C   UNK A   0     -42.861  59.160 -57.145  1.00  0.00     0.058 C 
BRANCH  23  24
HETATM   24  C   UNK A   0     -42.999  59.116 -55.640  1.00  0.00    -0.056 A 
HETATM   25  C   UNK A   0     -41.851  59.094 -54.832  1.00  0.00     0.024 A 
HETATM   26  C   UNK A   0     -41.958  59.082 -53.434  1.00  0.00     0.040 A 
HETATM   27  C   UNK A   0     -43.228  59.079 -52.845  1.00  0.00     0.017 A 
HETATM   28  C   UNK A   0     -44.374  59.097 -53.642  1.00  0.00     0.002 A 
HETATM   29  C   UNK A   0     -44.260  59.120 -55.033  1.00  0.00     0.007 A 
BRANCH  26  30
HETATM   30  C   UNK A   0     -40.766  59.075 -52.544  1.00  0.00     0.292 C 
HETATM   31  O   UNK A   0     -39.617  59.144 -52.953  1.00  0.00    -0.259 OA
BRANCH  30  32
HETATM   32  O   UNK A   0     -41.138  58.971 -51.243  1.00  0.00    -0.323 OA
HETATM   33  C   UNK A   0     -40.270  59.645 -50.332  1.00  0.00     0.213 C 
ENDBRANCH  30  32
ENDBRANCH  26  30
ENDBRANCH  23  24
ENDBRANCH  22  23
ENDBRANCH   1  22
TORSDOF 10
ENDMDL
MODEL 5
REMARK VINA RESULT:      -7.9      2.482      8.581
REMARK  10 active torsions:
REMARK  status: ('A' for Active; 'I' for Inactive)
REMARK    1  A    between atoms: O_2  and  C_3 
REMARK    2  A    between atoms: C_3  and  C_4 
REMARK    3  A    between atoms: C_6  and  C_7 
REMARK    4  A    between atoms: C_7  and  C_8 
REMARK    5  A    between atoms: C_8  and  N_9 
REMARK       I    between atoms: N_9  and  C_10 
REMARK       I    between atoms: C_10  and  N_17 
REMARK    6  A    between atoms: N_17  and  CA_18 
REMARK    7  A    between atoms: CA_18  and  C_19 
REMARK    8  A    between atoms: CA_18  and  CB_21 
REMARK    9  A    between atoms: C_19  and  O_20 
REMARK   10  A    between atoms: CB_21  and  CG_22 
ROOT
HETATM    1  N   UNK A   0     -42.018  56.463 -56.215  1.00  0.00    -0.343 N 
HETATM    2  C   UNK A   0     -43.078  57.305 -56.319  1.00  0.00     0.316 C 
HETATM    3  O   UNK A   0     -44.151  57.119 -55.756  1.00  0.00    -0.248 OA
HETATM    4  H   UNK A   0     -41.110  56.800 -56.487  1.00  0.00     0.164 HD
ATOM      5  N   TRP A   1     -42.918  58.379 -57.128  1.00  0.00    -0.336 N 
ATOM      6  H   TRP A   1     -43.729  58.989 -57.126  1.00  0.00     0.164 HD
ENDROOT
BRANCH   5   7
ATOM      7  CA  TRP A   1     -41.747  58.846 -57.881  1.00  0.00     0.114 C 
BRANCH   7   8
ATOM      8  C   TRP A   1     -41.696  60.390 -57.832  1.00  0.00     0.189 C 
BRANCH   8   9
ATOM      9  O   TRP A   1     -41.543  60.852 -56.488  1.00  0.00    -0.399 OA
ATOM     10  H   TRP A   1     -41.964  60.201 -55.902  1.00  0.00     0.209 HD
ENDBRANCH   8   9
ENDBRANCH   7   8
BRANCH   7  11
ATOM     11  CB  TRP A   1     -41.746  58.348 -59.342  1.00  0.00     0.068 C 
BRANCH  11  12
ATOM     12  CG  TRP A   1     -43.125  58.074 -59.864  1.00  0.00    -0.028 A 
ATOM     13  CD2 TRP A   1     -43.790  56.807 -59.914  1.00  0.00    -0.002 A 
ATOM     14  CE2 TRP A   1     -45.059  57.020 -60.452  1.00  0.00     0.042 A 
ATOM     15  CE3 TRP A   1     -43.432  55.493 -59.545  1.00  0.00     0.014 A 
ATOM     16  CZ2 TRP A   1     -45.991  55.992 -60.635  1.00  0.00     0.030 A 
ATOM     17  NE1 TRP A   1     -45.158  58.362 -60.737  1.00  0.00    -0.365 N 
ATOM     18  CH2 TRP A   1     -45.611  54.700 -60.261  1.00  0.00     0.002 A 
ATOM     19  CZ3 TRP A   1     -44.350  54.451 -59.725  1.00  0.00     0.001 A 
ATOM     20  HE1 TRP A   1     -45.972  58.800 -61.147  1.00  0.00     0.165 HD
ATOM     21  CD1 TRP A   1     -44.000  59.005 -60.392  1.00  0.00     0.096 A 
ENDBRANCH  11  12
ENDBRANCH   7  11
ENDBRANCH   5   7
BRANCH   1  22
HETATM   22  C   UNK A   0     -42.075  55.235 -55.443  1.00  0.00     0.129 C 
BRANCH  22  23
HETATM   23  C   UNK A   0     -40.755  54.449 -55.406  1.00  0.00     0.058 C 
BRANCH  23  24
HETATM   24  C   UNK A   0     -40.517  53.739 -54.092  1.00  0.00    -0.056 A 
HETATM   25  C   UNK A   0     -40.825  54.384 -52.883  1.00  0.00     0.024 A 
HETATM   26  C   UNK A   0     -40.638  53.733 -51.656  1.00  0.00     0.040 A 
HETATM   27  C   UNK A   0     -40.126  52.430 -51.643  1.00  0.00     0.017 A 
HETATM   28  C   UNK A   0     -39.815  51.784 -52.841  1.00  0.00     0.002 A 
HETATM   29  C   UNK A   0     -40.013  52.434 -54.060  1.00  0.00     0.007 A 
BRANCH  26  30
HETATM   30  C   UNK A   0     -40.966  54.376 -50.355  1.00  0.00     0.292 C 
HETATM   31  O   UNK A   0     -42.047  54.887 -50.107  1.00  0.00    -0.259 OA
BRANCH  30  32
HETATM   32  O   UNK A   0     -39.905  54.320 -49.510  1.00  0.00    -0.323 OA
HETATM   33  C   UNK A   0     -40.246  53.976 -48.167  1.00  0.00     0.213 C 
ENDBRANCH  30  32
ENDBRANCH  26  30
ENDBRANCH  23  24
ENDBRANCH  22  23
ENDBRANCH   1  22
TORSDOF 10
ENDMDL
MODEL 6
REMARK VINA RESULT:      -7.9      3.930      7.096
REMARK  10 active torsions:
REMARK  status: ('A' for Active; 'I' for Inactive)
REMARK    1  A    between atoms: O_2  and  C_3 
REMARK    2  A    between atoms: C_3  and  C_4 
REMARK    3  A    between atoms: C_6  and  C_7 
REMARK    4  A    between atoms: C_7  and  C_8 
REMARK    5  A    between atoms: C_8  and  N_9 
REMARK       I    between atoms: N_9  and  C_10 
REMARK       I    between atoms: C_10  and  N_17 
REMARK    6  A    between atoms: N_17  and  CA_18 
REMARK    7  A    between atoms: CA_18  and  C_19 
REMARK    8  A    between atoms: CA_18  and  CB_21 
REMARK    9  A    between atoms: C_19  and  O_20 
REMARK   10  A    between atoms: CB_21  and  CG_22 
ROOT
HETATM    1  N   UNK A   0     -43.687  56.847 -51.054  1.00  0.00    -0.343 N 
HETATM    2  C   UNK A   0     -44.612  57.834 -51.175  1.00  0.00     0.316 C 
HETATM    3  O   UNK A   0     -45.765  57.737 -50.771  1.00  0.00    -0.248 OA
HETATM    4  H   UNK A   0     -42.717  57.082 -51.171  1.00  0.00     0.164 HD
ATOM      5  N   TRP A   1     -44.213  58.958 -51.816  1.00  0.00    -0.336 N 
ATOM      6  H   TRP A   1     -44.936  59.671 -51.833  1.00  0.00     0.164 HD
ENDROOT
BRANCH   5   7
ATOM      7  CA  TRP A   1     -42.903  59.338 -52.360  1.00  0.00     0.114 C 
BRANCH   7   8
ATOM      8  C   TRP A   1     -42.523  60.740 -51.832  1.00  0.00     0.189 C 
BRANCH   8   9
ATOM      9  O   TRP A   1     -43.086  61.764 -52.654  1.00  0.00    -0.399 OA
ATOM     10  H   TRP A   1     -42.361  62.348 -52.936  1.00  0.00     0.209 HD
ENDBRANCH   8   9
ENDBRANCH   7   8
BRANCH   7  11
ATOM     11  CB  TRP A   1     -42.873  59.311 -53.903  1.00  0.00     0.068 C 
BRANCH  11  12
ATOM     12  CG  TRP A   1     -43.198  57.960 -54.468  1.00  0.00    -0.028 A 
ATOM     13  CD2 TRP A   1     -42.355  56.804 -54.470  1.00  0.00    -0.002 A 
ATOM     14  CE2 TRP A   1     -43.067  55.767 -55.076  1.00  0.00     0.042 A 
ATOM     15  CE3 TRP A   1     -41.049  56.537 -54.009  1.00  0.00     0.014 A 
ATOM     16  CZ2 TRP A   1     -42.544  54.479 -55.238  1.00  0.00     0.030 A 
ATOM     17  NE1 TRP A   1     -44.289  56.277 -55.445  1.00  0.00    -0.365 N 
ATOM     18  CH2 TRP A   1     -41.248  54.242 -54.770  1.00  0.00     0.002 A 
ATOM     19  CZ3 TRP A   1     -40.509  55.255 -54.166  1.00  0.00     0.001 A 
ATOM     20  HE1 TRP A   1     -45.010  55.746 -55.915  1.00  0.00     0.165 HD
ATOM     21  CD1 TRP A   1     -44.379  57.596 -55.088  1.00  0.00     0.096 A 
ENDBRANCH  11  12
ENDBRANCH   7  11
ENDBRANCH   5   7
BRANCH   1  22
HETATM   22  C   UNK A   0     -43.998  55.561 -50.457  1.00  0.00     0.129 C 
BRANCH  22  23
HETATM   23  C   UNK A   0     -43.506  54.351 -51.265  1.00  0.00     0.058 C 
BRANCH  23  24
HETATM   24  C   UNK A   0     -42.064  53.991 -50.989  1.00  0.00    -0.056 A 
HETATM   25  C   UNK A   0     -41.497  52.859 -51.597  1.00  0.00     0.024 A 
HETATM   26  C   UNK A   0     -40.153  52.525 -51.376  1.00  0.00     0.040 A 
HETATM   27  C   UNK A   0     -39.379  53.326 -50.528  1.00  0.00     0.017 A 
HETATM   28  C   UNK A   0     -39.937  54.450 -49.918  1.00  0.00     0.002 A 
HETATM   29  C   UNK A   0     -41.273  54.784 -50.150  1.00  0.00     0.007 A 
BRANCH  26  30
HETATM   30  C   UNK A   0     -39.512  51.343 -52.013  1.00  0.00     0.292 C 
HETATM   31  O   UNK A   0     -39.175  50.344 -51.398  1.00  0.00    -0.259 OA
BRANCH  30  32
HETATM   32  O   UNK A   0     -39.351  51.544 -53.345  1.00  0.00    -0.323 OA
HETATM   33  C   UNK A   0     -39.853  50.484 -54.160  1.00  0.00     0.213 C 
ENDBRANCH  30  32
ENDBRANCH  26  30
ENDBRANCH  23  24
ENDBRANCH  22  23
ENDBRANCH   1  22
TORSDOF 10
ENDMDL
MODEL 7
REMARK VINA RESULT:      -7.9      2.589      7.804
REMARK  10 active torsions:
REMARK  status: ('A' for Active; 'I' for Inactive)
REMARK    1  A    between atoms: O_2  and  C_3 
REMARK    2  A    between atoms: C_3  and  C_4 
REMARK    3  A    between atoms: C_6  and  C_7 
REMARK    4  A    between atoms: C_7  and  C_8 
REMARK    5  A    between atoms: C_8  and  N_9 
REMARK       I    between atoms: N_9  and  C_10 
REMARK       I    between atoms: C_10  and  N_17 
REMARK    6  A    between atoms: N_17  and  CA_18 
REMARK    7  A    between atoms: CA_18  and  C_19 
REMARK    8  A    between atoms: CA_18  and  CB_21 
REMARK    9  A    between atoms: C_19  and  O_20 
REMARK   10  A    between atoms: CB_21  and  CG_22 
ROOT
HETATM    1  N   UNK A   0     -43.275  55.750 -56.129  1.00  0.00    -0.343 N 
HETATM    2  C   UNK A   0     -43.422  56.290 -57.366  1.00  0.00     0.316 C 
HETATM    3  O   UNK A   0     -42.839  55.876 -58.362  1.00  0.00    -0.248 OA
HETATM    4  H   UNK A   0     -43.960  55.968 -55.426  1.00  0.00     0.164 HD
ATOM      5  N   TRP A   1     -44.236  57.369 -57.460  1.00  0.00    -0.336 N 
ATOM      6  H   TRP A   1     -44.336  57.696 -58.416  1.00  0.00     0.164 HD
ENDROOT
BRANCH   5   7
ATOM      7  CA  TRP A   1     -45.064  58.036 -56.447  1.00  0.00     0.114 C 
BRANCH   7   8
ATOM      8  C   TRP A   1     -46.355  58.561 -57.115  1.00  0.00     0.189 C 
BRANCH   8   9
ATOM      9  O   TRP A   1     -47.436  57.647 -56.922  1.00  0.00    -0.399 OA
ATOM     10  H   TRP A   1     -47.279  56.878 -57.496  1.00  0.00     0.209 HD
ENDBRANCH   8   9
ENDBRANCH   7   8
BRANCH   7  11
ATOM     11  CB  TRP A   1     -44.316  59.182 -55.733  1.00  0.00     0.068 C 
BRANCH  11  12
ATOM     12  CG  TRP A   1     -44.083  58.906 -54.277  1.00  0.00    -0.028 A 
ATOM     13  CD2 TRP A   1     -42.824  58.668 -53.638  1.00  0.00    -0.002 A 
ATOM     14  CE2 TRP A   1     -43.073  58.481 -52.278  1.00  0.00     0.042 A 
ATOM     15  CE3 TRP A   1     -41.489  58.597 -54.089  1.00  0.00     0.014 A 
ATOM     16  CZ2 TRP A   1     -42.059  58.234 -51.346  1.00  0.00     0.030 A 
ATOM     17  NE1 TRP A   1     -44.432  58.583 -52.097  1.00  0.00    -0.365 N 
ATOM     18  CH2 TRP A   1     -40.745  58.170 -51.819  1.00  0.00     0.002 A 
ATOM     19  CZ3 TRP A   1     -40.462  58.347 -53.171  1.00  0.00     0.001 A 
ATOM     20  HE1 TRP A   1     -44.899  58.481 -51.206  1.00  0.00     0.165 HD
ATOM     21  CD1 TRP A   1     -45.051  58.835 -53.293  1.00  0.00     0.096 A 
ENDBRANCH  11  12
ENDBRANCH   7  11
ENDBRANCH   5   7
BRANCH   1  22
HETATM   22  C   UNK A   0     -42.378  54.639 -55.869  1.00  0.00     0.129 C 
BRANCH  22  23
HETATM   23  C   UNK A   0     -41.077  55.030 -55.150  1.00  0.00     0.058 C 
BRANCH  23  24
HETATM   24  C   UNK A   0     -40.758  54.146 -53.966  1.00  0.00    -0.056 A 
HETATM   25  C   UNK A   0     -41.027  54.597 -52.663  1.00  0.00     0.024 A 
HETATM   26  C   UNK A   0     -40.765  53.781 -51.554  1.00  0.00     0.040 A 
HETATM   27  C   UNK A   0     -40.216  52.509 -51.755  1.00  0.00     0.017 A 
HETATM   28  C   UNK A   0     -39.942  52.056 -53.046  1.00  0.00     0.002 A 
HETATM   29  C   UNK A   0     -40.216  52.869 -54.147  1.00  0.00     0.007 A 
BRANCH  26  30
HETATM   30  C   UNK A   0     -41.051  54.216 -50.160  1.00  0.00     0.292 C 
HETATM   31  O   UNK A   0     -42.119  54.690 -49.806  1.00  0.00    -0.259 OA
BRANCH  30  32
HETATM   32  O   UNK A   0     -39.969  54.021 -49.365  1.00  0.00    -0.323 OA
HETATM   33  C   UNK A   0     -40.269  53.981 -47.970  1.00  0.00     0.213 C 
ENDBRANCH  30  32
ENDBRANCH  26  30
ENDBRANCH  23  24
ENDBRANCH  22  23
ENDBRANCH   1  22
TORSDOF 10
ENDMDL
MODEL 8
REMARK VINA RESULT:      -7.9      2.098      2.740
REMARK  10 active torsions:
REMARK  status: ('A' for Active; 'I' for Inactive)
REMARK    1  A    between atoms: O_2  and  C_3 
REMARK    2  A    between atoms: C_3  and  C_4 
REMARK    3  A    between atoms: C_6  and  C_7 
REMARK    4  A    between atoms: C_7  and  C_8 
REMARK    5  A    between atoms: C_8  and  N_9 
REMARK       I    between atoms: N_9  and  C_10 
REMARK       I    between atoms: C_10  and  N_17 
REMARK    6  A    between atoms: N_17  and  CA_18 
REMARK    7  A    between atoms: CA_18  and  C_19 
REMARK    8  A    between atoms: CA_18  and  CB_21 
REMARK    9  A    between atoms: C_19  and  O_20 
REMARK   10  A    between atoms: CB_21  and  CG_22 
ROOT
HETATM    1  N   UNK A   0     -44.371  57.552 -53.044  1.00  0.00    -0.343 N 
HETATM    2  C   UNK A   0     -44.347  57.959 -51.749  1.00  0.00     0.316 C 
HETATM    3  O   UNK A   0     -44.802  59.032 -51.366  1.00  0.00    -0.248 OA
HETATM    4  H   UNK A   0     -44.219  56.578 -53.243  1.00  0.00     0.164 HD
ATOM      5  N   TRP A   1     -43.748  57.126 -50.866  1.00  0.00    -0.336 N 
ATOM      6  H   TRP A   1     -43.804  57.468 -49.912  1.00  0.00     0.164 HD
ENDROOT
BRANCH   5   7
ATOM      7  CA  TRP A   1     -43.161  55.793 -51.052  1.00  0.00     0.114 C 
BRANCH   7   8
ATOM      8  C   TRP A   1     -44.042  54.747 -50.332  1.00  0.00     0.189 C 
BRANCH   8   9
ATOM      9  O   TRP A   1     -44.452  53.717 -51.234  1.00  0.00    -0.399 OA
ATOM     10  H   TRP A   1     -44.929  53.045 -50.719  1.00  0.00     0.209 HD
ENDBRANCH   8   9
ENDBRANCH   7   8
BRANCH   7  11
ATOM     11  CB  TRP A   1     -41.703  55.713 -50.553  1.00  0.00     0.068 C 
BRANCH  11  12
ATOM     12  CG  TRP A   1     -41.072  54.376 -50.810  1.00  0.00    -0.028 A 
ATOM     13  CD2 TRP A   1     -40.781  53.795 -52.085  1.00  0.00    -0.002 A 
ATOM     14  CE2 TRP A   1     -40.178  52.558 -51.854  1.00  0.00     0.042 A 
ATOM     15  CE3 TRP A   1     -40.969  54.207 -53.421  1.00  0.00     0.014 A 
ATOM     16  CZ2 TRP A   1     -39.749  51.716 -52.886  1.00  0.00     0.030 A 
ATOM     17  NE1 TRP A   1     -40.122  52.383 -50.491  1.00  0.00    -0.365 N 
ATOM     18  CH2 TRP A   1     -39.947  52.149 -54.200  1.00  0.00     0.002 A 
ATOM     19  CZ3 TRP A   1     -40.549  53.375 -54.466  1.00  0.00     0.001 A 
ATOM     20  HE1 TRP A   1     -39.739  51.566 -50.036  1.00  0.00     0.165 HD
ATOM     21  CD1 TRP A   1     -40.660  53.468 -49.853  1.00  0.00     0.096 A 
ENDBRANCH  11  12
ENDBRANCH   7  11
ENDBRANCH   5   7
BRANCH   1  22
HETATM   22  C   UNK A   0     -44.914  58.377 -54.107  1.00  0.00     0.129 C 
BRANCH  22  23
HETATM   23  C   UNK A   0     -43.908  58.728 -55.215  1.00  0.00     0.058 C 
BRANCH  23  24
HETATM   24  C   UNK A   0     -43.676  57.599 -56.193  1.00  0.00    -0.056 A 
HETATM   25  C   UNK A   0     -44.162  57.702 -57.507  1.00  0.00     0.024 A 
HETATM   26  C   UNK A   0     -43.932  56.679 -58.438  1.00  0.00     0.040 A 
HETATM   27  C   UNK A   0     -43.221  55.540 -58.041  1.00  0.00     0.017 A 
HETATM   28  C   UNK A   0     -42.738  55.430 -56.737  1.00  0.00     0.002 A 
HETATM   29  C   UNK A   0     -42.961  56.457 -55.817  1.00  0.00     0.007 A 
BRANCH  26  30
HETATM   30  C   UNK A   0     -44.417  56.756 -59.842  1.00  0.00     0.292 C 
HETATM   31  O   UNK A   0     -43.818  56.274 -60.791  1.00  0.00    -0.259 OA
BRANCH  30  32
HETATM   32  O   UNK A   0     -45.590  57.435 -59.909  1.00  0.00    -0.323 OA
HETATM   33  C   UNK A   0     -46.743  56.600 -60.014  1.00  0.00     0.213 C 
ENDBRANCH  30  32
ENDBRANCH  26  30
ENDBRANCH  23  24
ENDBRANCH  22  23
ENDBRANCH   1  22
TORSDOF 10
ENDMDL
MODEL 9
REMARK VINA RESULT:      -7.6      1.847      2.881
REMARK  10 active torsions:
REMARK  status: ('A' for Active; 'I' for Inactive)
REMARK    1  A    between atoms: O_2  and  C_3 
REMARK    2  A    between atoms: C_3  and  C_4 
REMARK    3  A    between atoms: C_6  and  C_7 
REMARK    4  A    between atoms: C_7  and  C_8 
REMARK    5  A    between atoms: C_8  and  N_9 
REMARK       I    between atoms: N_9  and  C_10 
REMARK       I    between atoms: C_10  and  N_17 
REMARK    6  A    between atoms: N_17  and  CA_18 
REMARK    7  A    between atoms: CA_18  and  C_19 
REMARK    8  A    between atoms: CA_18  and  CB_21 
REMARK    9  A    between atoms: C_19  and  O_20 
REMARK   10  A    between atoms: CB_21  and  CG_22 
ROOT
HETATM    1  N   UNK A   0     -43.170  57.270 -55.215  1.00  0.00    -0.343 N 
HETATM    2  C   UNK A   0     -44.177  56.865 -54.398  1.00  0.00     0.316 C 
HETATM    3  O   UNK A   0     -45.365  56.951 -54.691  1.00  0.00    -0.248 OA
HETATM    4  H   UNK A   0     -42.238  56.942 -55.025  1.00  0.00     0.164 HD
ATOM      5  N   TRP A   1     -43.814  56.381 -53.187  1.00  0.00    -0.336 N 
ATOM      6  H   TRP A   1     -44.609  56.057 -52.646  1.00  0.00     0.164 HD
ENDROOT
BRANCH   5   7
ATOM      7  CA  TRP A   1     -42.485  56.146 -52.608  1.00  0.00     0.114 C 
BRANCH   7   8
ATOM      8  C   TRP A   1     -41.757  57.499 -52.445  1.00  0.00     0.189 C 
BRANCH   8   9
ATOM      9  O   TRP A   1     -40.719  57.639 -53.417  1.00  0.00    -0.399 OA
ATOM     10  H   TRP A   1     -40.305  58.509 -53.284  1.00  0.00     0.209 HD
ENDBRANCH   8   9
ENDBRANCH   7   8
BRANCH   7  11
ATOM     11  CB  TRP A   1     -41.637  55.169 -53.450  1.00  0.00     0.068 C 
BRANCH  11  12
ATOM     12  CG  TRP A   1     -40.972  54.111 -52.619  1.00  0.00    -0.028 A 
ATOM     13  CD2 TRP A   1     -40.583  52.801 -53.046  1.00  0.00    -0.002 A 
ATOM     14  CE2 TRP A   1     -39.982  52.167 -51.958  1.00  0.00     0.042 A 
ATOM     15  CE3 TRP A   1     -40.681  52.092 -54.262  1.00  0.00     0.014 A 
ATOM     16  CZ2 TRP A   1     -39.470  50.866 -52.024  1.00  0.00     0.030 A 
ATOM     17  NE1 TRP A   1     -40.020  53.049 -50.904  1.00  0.00    -0.365 N 
ATOM     18  CH2 TRP A   1     -39.580  50.187 -53.241  1.00  0.00     0.002 A 
ATOM     19  CZ3 TRP A   1     -40.178  50.789 -54.344  1.00  0.00     0.001 A 
ATOM     20  HE1 TRP A   1     -39.660  52.850 -49.980  1.00  0.00     0.165 HD
ATOM     21  CD1 TRP A   1     -40.616  54.220 -51.288  1.00  0.00     0.096 A 
ENDBRANCH  11  12
ENDBRANCH   7  11
ENDBRANCH   5   7
BRANCH   1  22
HETATM   22  C   UNK A   0     -43.417  57.877 -56.509  1.00  0.00     0.129 C 
BRANCH  22  23
HETATM   23  C   UNK A   0     -42.744  57.155 -57.687  1.00  0.00     0.058 C 
BRANCH  23  24
HETATM   24  C   UNK A   0     -43.724  56.455 -58.601  1.00  0.00    -0.056 A 
HETATM   25  C   UNK A   0     -44.895  57.115 -59.007  1.00  0.00     0.024 A 
HETATM   26  C   UNK A   0     -45.803  56.494 -59.877  1.00  0.00     0.040 A 
HETATM   27  C   UNK A   0     -45.537  55.196 -60.331  1.00  0.00     0.017 A 
HETATM   28  C   UNK A   0     -44.377  54.533 -59.928  1.00  0.00     0.002 A 
HETATM   29  C   UNK A   0     -43.472  55.161 -59.070  1.00  0.00     0.007 A 
BRANCH  26  30
HETATM   30  C   UNK A   0     -47.046  57.165 -60.342  1.00  0.00     0.292 C 
HETATM   31  O   UNK A   0     -47.298  58.341 -60.133  1.00  0.00    -0.259 OA
BRANCH  30  32
HETATM   32  O   UNK A   0     -47.843  56.291 -61.009  1.00  0.00    -0.323 OA
HETATM   33  C   UNK A   0     -48.517  56.857 -62.133  1.00  0.00     0.213 C 
ENDBRANCH  30  32
ENDBRANCH  26  30
ENDBRANCH  23  24
ENDBRANCH  22  23
ENDBRANCH   1  22
TORSDOF 10
ENDMDL
MODEL 10
REMARK VINA RESULT:      -7.5     15.322     17.334
REMARK  10 active torsions:
REMARK  status: ('A' for Active; 'I' for Inactive)
REMARK    1  A    between atoms: O_2  and  C_3 
REMARK    2  A    between atoms: C_3  and  C_4 
REMARK    3  A    between atoms: C_6  and  C_7 
REMARK    4  A    between atoms: C_7  and  C_8 
REMARK    5  A    between atoms: C_8  and  N_9 
REMARK       I    between atoms: N_9  and  C_10 
REMARK       I    between atoms: C_10  and  N_17 
REMARK    6  A    between atoms: N_17  and  CA_18 
REMARK    7  A    between atoms: CA_18  and  C_19 
REMARK    8  A    between atoms: CA_18  and  CB_21 
REMARK    9  A    between atoms: C_19  and  O_20 
REMARK   10  A    between atoms: CB_21  and  CG_22 
ROOT
HETATM    1  N   UNK A   0     -35.466  40.670 -51.683  1.00  0.00    -0.343 N 
HETATM    2  C   UNK A   0     -34.547  41.578 -51.265  1.00  0.00     0.316 C 
HETATM    3  O   UNK A   0     -34.672  42.789 -51.413  1.00  0.00    -0.248 OA
HETATM    4  H   UNK A   0     -35.423  39.737 -51.309  1.00  0.00     0.164 HD
ATOM      5  N   TRP A   1     -33.426  41.081 -50.691  1.00  0.00    -0.336 N 
ATOM      6  H   TRP A   1     -32.803  41.812 -50.362  1.00  0.00     0.164 HD
ENDROOT
BRANCH   5   7
ATOM      7  CA  TRP A   1     -33.045  39.699 -50.370  1.00  0.00     0.114 C 
BRANCH   7   8
ATOM      8  C   TRP A   1     -32.322  39.678 -49.004  1.00  0.00     0.189 C 
BRANCH   8   9
ATOM      9  O   TRP A   1     -30.904  39.711 -49.178  1.00  0.00    -0.399 OA
ATOM     10  H   TRP A   1     -30.578  38.797 -49.120  1.00  0.00     0.209 HD
ENDBRANCH   8   9
ENDBRANCH   7   8
BRANCH   7  11
ATOM     11  CB  TRP A   1     -32.163  39.060 -51.463  1.00  0.00     0.068 C 
BRANCH  11  12
ATOM     12  CG  TRP A   1     -32.958  38.543 -52.625  1.00  0.00    -0.028 A 
ATOM     13  CD2 TRP A   1     -32.904  39.007 -53.978  1.00  0.00    -0.002 A 
ATOM     14  CE2 TRP A   1     -33.792  38.231 -54.724  1.00  0.00     0.042 A 
ATOM     15  CE3 TRP A   1     -32.176  40.016 -54.645  1.00  0.00     0.014 A 
ATOM     16  CZ2 TRP A   1     -33.986  38.406 -56.099  1.00  0.00     0.030 A 
ATOM     17  NE1 TRP A   1     -34.379  37.342 -53.856  1.00  0.00    -0.365 N 
ATOM     18  CH2 TRP A   1     -33.251  39.411 -56.734  1.00  0.00     0.002 A 
ATOM     19  CZ3 TRP A   1     -32.360  40.207 -56.019  1.00  0.00     0.001 A 
ATOM     20  HE1 TRP A   1     -35.075  36.658 -54.123  1.00  0.00     0.165 HD
ATOM     21  CD1 TRP A   1     -33.889  37.522 -52.590  1.00  0.00     0.096 A 
ENDBRANCH  11  12
ENDBRANCH   7  11
ENDBRANCH   5   7
BRANCH   1  22
HETATM   22  C   UNK A   0     -36.679  41.057 -52.380  1.00  0.00     0.129 C 
BRANCH  22  23
HETATM   23  C   UNK A   0     -36.965  40.245 -53.653  1.00  0.00     0.058 C 
BRANCH  23  24
HETATM   24  C   UNK A   0     -36.473  40.916 -54.915  1.00  0.00    -0.056 A 
HETATM   25  C   UNK A   0     -36.962  40.500 -56.164  1.00  0.00     0.024 A 
HETATM   26  C   UNK A   0     -36.539  41.129 -57.344  1.00  0.00     0.040 A 
HETATM   27  C   UNK A   0     -35.610  42.173 -57.269  1.00  0.00     0.017 A 
HETATM   28  C   UNK A   0     -35.117  42.589 -56.031  1.00  0.00     0.002 A 
HETATM   29  C   UNK A   0     -35.549  41.966 -54.859  1.00  0.00     0.007 A 
BRANCH  26  30
HETATM   30  C   UNK A   0     -37.045  40.728 -58.685  1.00  0.00     0.292 C 
HETATM   31  O   UNK A   0     -37.411  41.525 -59.535  1.00  0.00    -0.259 OA
BRANCH  30  32
HETATM   32  O   UNK A   0     -37.048  39.377 -58.813  1.00  0.00    -0.323 OA
HETATM   33  C   UNK A   0     -35.926  38.856 -59.526  1.00  0.00     0.213 C 
ENDBRANCH  30  32
ENDBRANCH  26  30
ENDBRANCH  23  24
ENDBRANCH  22  23
ENDBRANCH   1  22
TORSDOF 10
ENDMDL
