MODEL 1
REMARK VINA RESULT:      -8.9      0.000      0.000
REMARK  6 active torsions:
REMARK  status: ('A' for Active; 'I' for Inactive)
REMARK       I    between atoms: N_1  and  C_2 
REMARK    1  A    between atoms: C_2  and  C_4 
REMARK    2  A    between atoms: C_9  and  C_13 
REMARK       I    between atoms: C_13  and  N_15 
REMARK    3  A    between atoms: C_19  and  C_20 
REMARK    4  A    between atoms: C_24  and  C_26 
REMARK       I    between atoms: C_26  and  N_28 
REMARK    5  A    between atoms: N_28  and  C_29 
REMARK    6  A    between atoms: C_34  and  N_38 
ROOT
HETATM    1  C   UNL     1     -43.532  61.592 -51.140  1.00  0.00    -0.034 A 
HETATM    2  C   UNL     1     -43.346  62.777 -50.405  1.00  0.00     0.009 A 
HETATM    3  C   UNL     1     -43.170  64.003 -51.048  1.00  0.00     0.002 A 
HETATM    4  C   UNL     1     -43.168  64.068 -52.440  1.00  0.00     0.017 A 
HETATM    5  C   UNL     1     -43.344  62.897 -53.187  1.00  0.00     0.033 A 
HETATM    6  C   UNL     1     -43.547  61.672 -52.542  1.00  0.00     0.026 A 
ENDROOT
BRANCH   1   7
HETATM    7  C   UNL     1     -43.718  60.280 -50.395  1.00  0.00     0.120 C 
HETATM    8  N   UNL     1     -43.308  59.107 -51.159  1.00  0.00    -0.338 N 
HETATM    9  C   UNL     1     -41.964  58.817 -51.348  1.00  0.00     0.274 C 
HETATM   10  C   UNL     1     -44.452  58.294 -51.545  1.00  0.00     0.127 C 
HETATM   11  O   UNL     1     -41.083  59.577 -50.943  1.00  0.00    -0.266 OA
HETATM   12  C   UNL     1     -45.670  59.151 -51.226  1.00  0.00     0.022 C 
HETATM   13  C   UNL     1     -45.191  60.009 -50.062  1.00  0.00     0.032 C 
BRANCH   9  14
HETATM   14  C   UNL     1     -41.601  57.582 -52.063  1.00  0.00     0.142 A 
HETATM   15  N   UNL     1     -41.432  57.450 -53.433  1.00  0.00    -0.224 NA
HETATM   16  C   UNL     1     -41.134  56.185 -53.640  1.00  0.00     0.134 A 
HETATM   17  C   UNL     1     -40.870  55.463 -54.836  1.00  0.00     0.052 A 
HETATM   18  N   UNL     1     -41.091  55.473 -52.448  1.00  0.00    -0.314 N 
HETATM   19  C   UNL     1     -40.573  54.149 -54.769  1.00  0.00     0.022 A 
HETATM   20  C   UNL     1     -40.499  53.439 -53.492  1.00  0.00     0.047 A 
HETATM   21  C   UNL     1     -40.780  54.119 -52.362  1.00  0.00     0.115 A 
HETATM   22  C   UNL     1     -41.402  56.355 -51.451  1.00  0.00     0.135 A 
BRANCH  20  23
HETATM   23  C   UNL     1     -40.177  51.982 -53.475  1.00  0.00     0.250 C 
HETATM   24  N   UNL     1     -39.455  51.536 -52.411  1.00  0.00    -0.366 N 
HETATM   25  H   UNL     1     -39.155  50.569 -52.440  1.00  0.00     0.159 HD
HETATM   26  H   UNL     1     -39.010  52.152 -51.747  1.00  0.00     0.159 HD
HETATM   27  O   UNL     1     -40.493  51.231 -54.389  1.00  0.00    -0.268 OA
ENDBRANCH  20  23
ENDBRANCH   9  14
ENDBRANCH   1   7
BRANCH   5  28
HETATM   28  C   UNL     1     -43.325  62.921 -54.674  1.00  0.00     0.257 C 
HETATM   29  O   UNL     1     -43.289  64.006 -55.237  1.00  0.00    -0.267 OA
HETATM   30  N   UNL     1     -43.391  61.674 -55.243  1.00  0.00    -0.301 N 
HETATM   31  H   UNL     1     -43.535  60.853 -54.676  1.00  0.00     0.171 HD
BRANCH  30  32
HETATM   32  C   UNL     1     -43.286  61.468 -56.589  1.00  0.00     0.174 A 
HETATM   33  N   UNL     1     -42.239  61.530 -57.371  1.00  0.00    -0.228 NA
HETATM   34  C   UNL     1     -42.605  61.159 -58.646  1.00  0.00     0.050 A 
HETATM   35  C   UNL     1     -41.600  61.055 -59.739  1.00  0.00     0.062 C 
HETATM   36  C   UNL     1     -43.929  60.807 -58.792  1.00  0.00     0.013 A 
HETATM   37  C   UNL     1     -42.212  60.547 -61.062  1.00  0.00     0.031 C 
HETATM   38  C   UNL     1     -43.461  59.617 -60.937  1.00  0.00     0.084 C 
HETATM   39  C   UNL     1     -44.539  60.307 -60.048  1.00  0.00     0.073 C 
HETATM   40  S   UNL     1     -44.763  61.007 -57.324  1.00  0.00    -0.055 SA
BRANCH  38  41
HETATM   41  N   UNL     1     -43.175  58.186 -60.719  1.00  0.00    -0.404 N 
HETATM   42  C   UNL     1     -41.995  57.748 -59.968  1.00  0.00     0.143 C 
HETATM   43  C   UNL     1     -42.240  57.503 -58.472  1.00  0.00     0.187 C 
HETATM   44  O   UNL     1     -43.318  56.577 -58.275  1.00  0.00    -0.388 OA
HETATM   45  C   UNL     1     -44.516  57.070 -58.883  1.00  0.00     0.187 C 
HETATM   46  C   UNL     1     -44.328  57.330 -60.390  1.00  0.00     0.143 C 
ENDBRANCH  38  41
ENDBRANCH  30  32
ENDBRANCH   5  28
TORSDOF 6
ENDMDL
MODEL 2
REMARK VINA RESULT:      -8.9      2.965      7.250
REMARK  6 active torsions:
REMARK  status: ('A' for Active; 'I' for Inactive)
REMARK       I    between atoms: N_1  and  C_2 
REMARK    1  A    between atoms: C_2  and  C_4 
REMARK    2  A    between atoms: C_9  and  C_13 
REMARK       I    between atoms: C_13  and  N_15 
REMARK    3  A    between atoms: C_19  and  C_20 
REMARK    4  A    between atoms: C_24  and  C_26 
REMARK       I    between atoms: C_26  and  N_28 
REMARK    5  A    between atoms: N_28  and  C_29 
REMARK    6  A    between atoms: C_34  and  N_38 
ROOT
HETATM    1  C   UNL     1     -41.258  56.093 -51.310  1.00  0.00    -0.034 A 
HETATM    2  C   UNL     1     -40.789  54.950 -50.639  1.00  0.00     0.009 A 
HETATM    3  C   UNL     1     -40.487  53.779 -51.337  1.00  0.00     0.002 A 
HETATM    4  C   UNL     1     -40.657  53.727 -52.720  1.00  0.00     0.017 A 
HETATM    5  C   UNL     1     -41.129  54.854 -53.401  1.00  0.00     0.033 A 
HETATM    6  C   UNL     1     -41.406  56.035 -52.705  1.00  0.00     0.026 A 
ENDROOT
BRANCH   1   7
HETATM    7  C   UNL     1     -41.575  57.345 -50.506  1.00  0.00     0.120 C 
HETATM    8  N   UNL     1     -42.433  58.292 -51.209  1.00  0.00    -0.338 N 
HETATM    9  C   UNL     1     -43.788  58.042 -51.367  1.00  0.00     0.274 C 
HETATM   10  C   UNL     1     -41.709  59.502 -51.572  1.00  0.00     0.127 C 
HETATM   11  O   UNL     1     -44.292  56.983 -50.985  1.00  0.00    -0.266 OA
HETATM   12  C   UNL     1     -40.244  59.177 -51.310  1.00  0.00     0.022 C 
HETATM   13  C   UNL     1     -40.315  58.156 -50.181  1.00  0.00     0.032 C 
BRANCH   9  14
HETATM   14  C   UNL     1     -44.626  59.063 -52.018  1.00  0.00     0.142 A 
HETATM   15  N   UNL     1     -45.595  59.840 -51.402  1.00  0.00    -0.224 NA
HETATM   16  C   UNL     1     -46.107  60.597 -52.349  1.00  0.00     0.134 A 
HETATM   17  C   UNL     1     -47.141  61.573 -52.319  1.00  0.00     0.052 A 
HETATM   18  N   UNL     1     -45.502  60.354 -53.575  1.00  0.00    -0.314 N 
HETATM   19  C   UNL     1     -47.472  62.227 -53.450  1.00  0.00     0.022 A 
HETATM   20  C   UNL     1     -46.787  61.972 -54.718  1.00  0.00     0.047 A 
HETATM   21  C   UNL     1     -45.829  61.024 -54.750  1.00  0.00     0.115 A 
HETATM   22  C   UNL     1     -44.574  59.370 -53.368  1.00  0.00     0.135 A 
BRANCH  20  23
HETATM   23  C   UNL     1     -47.201  62.715 -55.943  1.00  0.00     0.250 C 
HETATM   24  N   UNL     1     -48.503  62.580 -56.319  1.00  0.00    -0.366 N 
HETATM   25  H   UNL     1     -48.767  63.006 -57.199  1.00  0.00     0.159 HD
HETATM   26  H   UNL     1     -49.128  61.899 -55.914  1.00  0.00     0.159 HD
HETATM   27  O   UNL     1     -46.411  63.369 -56.612  1.00  0.00    -0.268 OA
ENDBRANCH  20  23
ENDBRANCH   9  14
ENDBRANCH   1   7
BRANCH   5  28
HETATM   28  C   UNL     1     -41.344  54.831 -54.873  1.00  0.00     0.257 C 
HETATM   29  O   UNL     1     -40.656  54.080 -55.550  1.00  0.00    -0.267 OA
HETATM   30  N   UNL     1     -42.301  55.718 -55.301  1.00  0.00    -0.301 N 
HETATM   31  H   UNL     1     -42.724  56.372 -54.661  1.00  0.00     0.171 HD
BRANCH  30  32
HETATM   32  C   UNL     1     -42.720  55.783 -56.598  1.00  0.00     0.174 A 
HETATM   33  N   UNL     1     -43.222  54.852 -57.370  1.00  0.00    -0.228 NA
HETATM   34  C   UNL     1     -43.579  55.411 -58.577  1.00  0.00     0.050 A 
HETATM   35  C   UNL     1     -44.256  54.605 -59.631  1.00  0.00     0.062 C 
HETATM   36  C   UNL     1     -43.352  56.766 -58.682  1.00  0.00     0.013 A 
HETATM   37  C   UNL     1     -44.638  55.446 -60.867  1.00  0.00     0.031 C 
HETATM   38  C   UNL     1     -44.920  56.961 -60.616  1.00  0.00     0.084 C 
HETATM   39  C   UNL     1     -43.718  57.598 -59.854  1.00  0.00     0.073 C 
HETATM   40  S   UNL     1     -42.610  57.355 -57.271  1.00  0.00    -0.055 SA
BRANCH  38  41
HETATM   41  N   UNL     1     -46.290  57.295 -60.179  1.00  0.00    -0.404 N 
HETATM   42  C   UNL     1     -46.778  58.677 -60.185  1.00  0.00     0.143 C 
HETATM   43  C   UNL     1     -47.527  59.087 -61.460  1.00  0.00     0.187 C 
HETATM   44  O   UNL     1     -48.609  58.185 -61.733  1.00  0.00    -0.388 OA
HETATM   45  C   UNL     1     -48.118  56.847 -61.874  1.00  0.00     0.187 C 
HETATM   46  C   UNL     1     -47.359  56.381 -60.617  1.00  0.00     0.143 C 
ENDBRANCH  38  41
ENDBRANCH  30  32
ENDBRANCH   5  28
TORSDOF 6
ENDMDL
MODEL 3
REMARK VINA RESULT:      -8.7      5.389      9.646
REMARK  6 active torsions:
REMARK  status: ('A' for Active; 'I' for Inactive)
REMARK       I    between atoms: N_1  and  C_2 
REMARK    1  A    between atoms: C_2  and  C_4 
REMARK    2  A    between atoms: C_9  and  C_13 
REMARK       I    between atoms: C_13  and  N_15 
REMARK    3  A    between atoms: C_19  and  C_20 
REMARK    4  A    between atoms: C_24  and  C_26 
REMARK       I    between atoms: C_26  and  N_28 
REMARK    5  A    between atoms: N_28  and  C_29 
REMARK    6  A    between atoms: C_34  and  N_38 
ROOT
HETATM    1  C   UNL     1     -45.839  63.124 -50.527  1.00  0.00    -0.034 A 
HETATM    2  C   UNL     1     -45.333  63.407 -49.245  1.00  0.00     0.009 A 
HETATM    3  C   UNL     1     -44.789  62.398 -48.448  1.00  0.00     0.002 A 
HETATM    4  C   UNL     1     -44.750  61.085 -48.913  1.00  0.00     0.017 A 
HETATM    5  C   UNL     1     -45.257  60.786 -50.184  1.00  0.00     0.033 A 
HETATM    6  C   UNL     1     -45.776  61.801 -50.993  1.00  0.00     0.026 A 
ENDROOT
BRANCH   1   7
HETATM    7  C   UNL     1     -46.423  64.256 -51.358  1.00  0.00     0.120 C 
HETATM    8  N   UNL     1     -47.584  63.865 -52.149  1.00  0.00    -0.338 N 
HETATM    9  C   UNL     1     -48.818  63.662 -51.547  1.00  0.00     0.274 C 
HETATM   10  C   UNL     1     -47.281  63.853 -53.573  1.00  0.00     0.127 C 
HETATM   11  O   UNL     1     -48.952  63.732 -50.324  1.00  0.00    -0.266 OA
HETATM   12  C   UNL     1     -45.766  63.991 -53.654  1.00  0.00     0.022 C 
HETATM   13  C   UNL     1     -45.425  64.782 -52.398  1.00  0.00     0.032 C 
BRANCH   9  14
HETATM   14  C   UNL     1     -49.976  63.342 -52.398  1.00  0.00     0.142 A 
HETATM   15  N   UNL     1     -51.105  64.126 -52.572  1.00  0.00    -0.224 NA
HETATM   16  C   UNL     1     -51.888  63.457 -53.391  1.00  0.00     0.134 A 
HETATM   17  C   UNL     1     -53.177  63.753 -53.914  1.00  0.00     0.052 A 
HETATM   18  N   UNL     1     -51.310  62.255 -53.776  1.00  0.00    -0.314 N 
HETATM   19  C   UNL     1     -53.767  62.885 -54.761  1.00  0.00     0.022 A 
HETATM   20  C   UNL     1     -53.111  61.644 -55.176  1.00  0.00     0.047 A 
HETATM   21  C   UNL     1     -51.903  61.353 -54.654  1.00  0.00     0.115 A 
HETATM   22  C   UNL     1     -50.105  62.174 -53.135  1.00  0.00     0.135 A 
BRANCH  20  23
HETATM   23  C   UNL     1     -53.814  60.714 -56.106  1.00  0.00     0.250 C 
HETATM   24  N   UNL     1     -53.444  59.405 -56.043  1.00  0.00    -0.366 N 
HETATM   25  H   UNL     1     -53.850  58.786 -56.734  1.00  0.00     0.159 HD
HETATM   26  H   UNL     1     -52.637  59.082 -55.530  1.00  0.00     0.159 HD
HETATM   27  O   UNL     1     -54.638  61.103 -56.923  1.00  0.00    -0.268 OA
ENDBRANCH  20  23
ENDBRANCH   9  14
ENDBRANCH   1   7
BRANCH   5  28
HETATM   28  C   UNL     1     -45.252  59.394 -50.706  1.00  0.00     0.257 C 
HETATM   29  O   UNL     1     -46.240  58.698 -50.518  1.00  0.00    -0.267 OA
HETATM   30  N   UNL     1     -44.077  59.045 -51.326  1.00  0.00    -0.301 N 
HETATM   31  H   UNL     1     -43.285  59.668 -51.320  1.00  0.00     0.171 HD
BRANCH  30  32
HETATM   32  C   UNL     1     -43.903  57.850 -51.961  1.00  0.00     0.174 A 
HETATM   33  N   UNL     1     -43.693  57.591 -53.228  1.00  0.00    -0.228 NA
HETATM   34  C   UNL     1     -43.492  56.237 -53.384  1.00  0.00     0.050 A 
HETATM   35  C   UNL     1     -43.147  55.657 -54.711  1.00  0.00     0.062 C 
HETATM   36  C   UNL     1     -43.539  55.503 -52.220  1.00  0.00     0.013 A 
HETATM   37  C   UNL     1     -42.886  54.137 -54.644  1.00  0.00     0.031 C 
HETATM   38  C   UNL     1     -42.348  53.584 -53.286  1.00  0.00     0.084 C 
HETATM   39  C   UNL     1     -43.283  54.045 -52.127  1.00  0.00     0.073 C 
HETATM   40  S   UNL     1     -43.912  56.506 -50.899  1.00  0.00    -0.055 SA
BRANCH  38  41
HETATM   41  N   UNL     1     -40.888  53.669 -53.093  1.00  0.00    -0.404 N 
HETATM   42  C   UNL     1     -40.293  53.668 -51.752  1.00  0.00     0.143 C 
HETATM   43  C   UNL     1     -39.866  52.285 -51.241  1.00  0.00     0.187 C 
HETATM   44  O   UNL     1     -38.979  51.647 -52.171  1.00  0.00    -0.388 OA
HETATM   45  C   UNL     1     -39.609  51.512 -53.449  1.00  0.00     0.187 C 
HETATM   46  C   UNL     1     -40.056  52.875 -54.013  1.00  0.00     0.143 C 
ENDBRANCH  38  41
ENDBRANCH  30  32
ENDBRANCH   5  28
TORSDOF 6
ENDMDL
MODEL 4
REMARK VINA RESULT:      -8.6      2.502      8.795
REMARK  6 active torsions:
REMARK  status: ('A' for Active; 'I' for Inactive)
REMARK       I    between atoms: N_1  and  C_2 
REMARK    1  A    between atoms: C_2  and  C_4 
REMARK    2  A    between atoms: C_9  and  C_13 
REMARK       I    between atoms: C_13  and  N_15 
REMARK    3  A    between atoms: C_19  and  C_20 
REMARK    4  A    between atoms: C_24  and  C_26 
REMARK       I    between atoms: C_26  and  N_28 
REMARK    5  A    between atoms: N_28  and  C_29 
REMARK    6  A    between atoms: C_34  and  N_38 
ROOT
HETATM    1  C   UNL     1     -43.811  60.138 -59.135  1.00  0.00    -0.034 A 
HETATM    2  C   UNL     1     -43.053  60.256 -60.314  1.00  0.00     0.009 A 
HETATM    3  C   UNL     1     -42.242  59.209 -60.756  1.00  0.00     0.002 A 
HETATM    4  C   UNL     1     -42.167  58.026 -60.022  1.00  0.00     0.017 A 
HETATM    5  C   UNL     1     -42.909  57.896 -58.843  1.00  0.00     0.033 A 
HETATM    6  C   UNL     1     -43.742  58.935 -58.415  1.00  0.00     0.026 A 
ENDROOT
BRANCH   1   7
HETATM    7  C   UNL     1     -44.678  61.307 -58.694  1.00  0.00     0.120 C 
HETATM    8  N   UNL     1     -44.984  61.304 -57.268  1.00  0.00    -0.338 N 
HETATM    9  C   UNL     1     -44.021  61.657 -56.334  1.00  0.00     0.274 C 
HETATM   10  C   UNL     1     -46.391  61.017 -57.023  1.00  0.00     0.127 C 
HETATM   11  O   UNL     1     -42.863  61.910 -56.673  1.00  0.00    -0.266 OA
HETATM   12  C   UNL     1     -46.937  60.554 -58.368  1.00  0.00     0.022 C 
HETATM   13  C   UNL     1     -46.056  61.290 -59.369  1.00  0.00     0.032 C 
BRANCH   9  14
HETATM   14  C   UNL     1     -44.400  61.712 -54.912  1.00  0.00     0.142 A 
HETATM   15  N   UNL     1     -44.897  62.817 -54.239  1.00  0.00    -0.224 NA
HETATM   16  C   UNL     1     -45.079  62.432 -52.995  1.00  0.00     0.134 A 
HETATM   17  C   UNL     1     -45.549  63.134 -51.850  1.00  0.00     0.052 A 
HETATM   18  N   UNL     1     -44.727  61.100 -52.820  1.00  0.00    -0.314 N 
HETATM   19  C   UNL     1     -45.654  62.489 -50.671  1.00  0.00     0.022 A 
HETATM   20  C   UNL     1     -45.311  61.073 -50.531  1.00  0.00     0.047 A 
HETATM   21  C   UNL     1     -44.836  60.420 -51.611  1.00  0.00     0.115 A 
HETATM   22  C   UNL     1     -44.282  60.648 -54.031  1.00  0.00     0.135 A 
BRANCH  20  23
HETATM   23  C   UNL     1     -45.434  60.412 -49.200  1.00  0.00     0.250 C 
HETATM   24  N   UNL     1     -44.765  60.999 -48.170  1.00  0.00    -0.366 N 
HETATM   25  H   UNL     1     -44.769  60.505 -47.287  1.00  0.00     0.159 HD
HETATM   26  H   UNL     1     -44.088  61.737 -48.299  1.00  0.00     0.159 HD
HETATM   27  O   UNL     1     -46.055  59.369 -49.042  1.00  0.00    -0.268 OA
ENDBRANCH  20  23
ENDBRANCH   9  14
ENDBRANCH   1   7
BRANCH   5  28
HETATM   28  C   UNL     1     -42.839  56.658 -58.021  1.00  0.00     0.257 C 
HETATM   29  O   UNL     1     -43.245  55.613 -58.507  1.00  0.00    -0.267 OA
HETATM   30  N   UNL     1     -42.339  56.867 -56.759  1.00  0.00    -0.301 N 
HETATM   31  H   UNL     1     -42.143  57.799 -56.428  1.00  0.00     0.171 HD
BRANCH  30  32
HETATM   32  C   UNL     1     -42.099  55.849 -55.882  1.00  0.00     0.174 A 
HETATM   33  N   UNL     1     -41.131  54.967 -55.859  1.00  0.00    -0.228 NA
HETATM   34  C   UNL     1     -41.257  54.189 -54.730  1.00  0.00     0.050 A 
HETATM   35  C   UNL     1     -40.247  53.148 -54.394  1.00  0.00     0.062 C 
HETATM   36  C   UNL     1     -42.316  54.516 -53.911  1.00  0.00     0.013 A 
HETATM   37  C   UNL     1     -40.538  52.452 -53.047  1.00  0.00     0.031 C 
HETATM   38  C   UNL     1     -41.306  53.296 -51.981  1.00  0.00     0.084 C 
HETATM   39  C   UNL     1     -42.612  53.869 -52.610  1.00  0.00     0.073 C 
HETATM   40  S   UNL     1     -43.225  55.780 -54.593  1.00  0.00    -0.055 SA
BRANCH  38  41
HETATM   41  N   UNL     1     -40.475  54.183 -51.145  1.00  0.00    -0.404 N 
HETATM   42  C   UNL     1     -40.916  55.537 -50.795  1.00  0.00     0.143 C 
HETATM   43  C   UNL     1     -41.652  55.645 -49.452  1.00  0.00     0.187 C 
HETATM   44  O   UNL     1     -40.860  55.097 -48.389  1.00  0.00    -0.388 OA
HETATM   45  C   UNL     1     -40.547  53.726 -48.655  1.00  0.00     0.187 C 
HETATM   46  C   UNL     1     -39.801  53.559 -49.993  1.00  0.00     0.143 C 
ENDBRANCH  38  41
ENDBRANCH  30  32
ENDBRANCH   5  28
TORSDOF 6
ENDMDL
MODEL 5
REMARK VINA RESULT:      -8.3      3.133      8.418
REMARK  6 active torsions:
REMARK  status: ('A' for Active; 'I' for Inactive)
REMARK       I    between atoms: N_1  and  C_2 
REMARK    1  A    between atoms: C_2  and  C_4 
REMARK    2  A    between atoms: C_9  and  C_13 
REMARK       I    between atoms: C_13  and  N_15 
REMARK    3  A    between atoms: C_19  and  C_20 
REMARK    4  A    between atoms: C_24  and  C_26 
REMARK       I    between atoms: C_26  and  N_28 
REMARK    5  A    between atoms: N_28  and  C_29 
REMARK    6  A    between atoms: C_34  and  N_38 
ROOT
HETATM    1  C   UNL     1     -43.898  62.654 -55.744  1.00  0.00    -0.034 A 
HETATM    2  C   UNL     1     -43.442  62.994 -57.030  1.00  0.00     0.009 A 
HETATM    3  C   UNL     1     -42.543  62.175 -57.715  1.00  0.00     0.002 A 
HETATM    4  C   UNL     1     -42.074  61.004 -57.123  1.00  0.00     0.017 A 
HETATM    5  C   UNL     1     -42.512  60.656 -55.839  1.00  0.00     0.033 A 
HETATM    6  C   UNL     1     -43.434  61.462 -55.165  1.00  0.00     0.026 A 
ENDROOT
BRANCH   1   7
HETATM    7  C   UNL     1     -44.876  63.579 -55.037  1.00  0.00     0.120 C 
HETATM    8  N   UNL     1     -45.117  63.223 -53.643  1.00  0.00    -0.338 N 
HETATM    9  C   UNL     1     -44.162  63.480 -52.670  1.00  0.00     0.274 C 
HETATM   10  C   UNL     1     -46.468  62.717 -53.446  1.00  0.00     0.127 C 
HETATM   11  O   UNL     1     -43.059  63.943 -52.963  1.00  0.00    -0.266 OA
HETATM   12  C   UNL     1     -47.015  62.498 -54.852  1.00  0.00     0.022 C 
HETATM   13  C   UNL     1     -46.270  63.540 -55.676  1.00  0.00     0.032 C 
BRANCH   9  14
HETATM   14  C   UNL     1     -44.483  63.171 -51.266  1.00  0.00     0.142 A 
HETATM   15  N   UNL     1     -44.554  64.082 -50.224  1.00  0.00    -0.224 NA
HETATM   16  C   UNL     1     -44.846  63.381 -49.149  1.00  0.00     0.134 A 
HETATM   17  C   UNL     1     -45.028  63.768 -47.793  1.00  0.00     0.052 A 
HETATM   18  N   UNL     1     -44.980  62.032 -49.446  1.00  0.00    -0.314 N 
HETATM   19  C   UNL     1     -45.339  62.835 -46.871  1.00  0.00     0.022 A 
HETATM   20  C   UNL     1     -45.511  61.425 -47.226  1.00  0.00     0.047 A 
HETATM   21  C   UNL     1     -45.307  61.058 -48.507  1.00  0.00     0.115 A 
HETATM   22  C   UNL     1     -44.735  61.896 -50.784  1.00  0.00     0.135 A 
BRANCH  20  23
HETATM   23  C   UNL     1     -45.843  60.432 -46.164  1.00  0.00     0.250 C 
HETATM   24  N   UNL     1     -44.895  60.232 -45.207  1.00  0.00    -0.366 N 
HETATM   25  H   UNL     1     -45.076  59.494 -44.538  1.00  0.00     0.159 HD
HETATM   26  H   UNL     1     -43.955  60.592 -45.276  1.00  0.00     0.159 HD
HETATM   27  O   UNL     1     -46.883  59.787 -46.172  1.00  0.00    -0.268 OA
ENDBRANCH  20  23
ENDBRANCH   9  14
ENDBRANCH   1   7
BRANCH   5  28
HETATM   28  C   UNL     1     -42.017  59.426 -55.165  1.00  0.00     0.257 C 
HETATM   29  O   UNL     1     -41.124  59.535 -54.336  1.00  0.00    -0.267 OA
HETATM   30  N   UNL     1     -42.627  58.277 -55.604  1.00  0.00    -0.301 N 
HETATM   31  H   UNL     1     -43.273  58.298 -56.379  1.00  0.00     0.171 HD
BRANCH  30  32
HETATM   32  C   UNL     1     -42.392  57.054 -55.046  1.00  0.00     0.174 A 
HETATM   33  N   UNL     1     -41.488  56.153 -55.340  1.00  0.00    -0.228 NA
HETATM   34  C   UNL     1     -41.581  55.111 -54.445  1.00  0.00     0.050 A 
HETATM   35  C   UNL     1     -40.622  53.973 -54.482  1.00  0.00     0.062 C 
HETATM   36  C   UNL     1     -42.550  55.260 -53.477  1.00  0.00     0.013 A 
HETATM   37  C   UNL     1     -40.858  52.960 -53.341  1.00  0.00     0.031 C 
HETATM   38  C   UNL     1     -41.484  53.528 -52.028  1.00  0.00     0.084 C 
HETATM   39  C   UNL     1     -42.791  54.307 -52.366  1.00  0.00     0.073 C 
HETATM   40  S   UNL     1     -43.420  56.700 -53.722  1.00  0.00    -0.055 SA
BRANCH  38  41
HETATM   41  N   UNL     1     -40.533  54.124 -51.070  1.00  0.00    -0.404 N 
HETATM   42  C   UNL     1     -40.733  55.474 -50.535  1.00  0.00     0.143 C 
HETATM   43  C   UNL     1     -41.480  55.529 -49.195  1.00  0.00     0.187 C 
HETATM   44  O   UNL     1     -40.835  54.704 -48.214  1.00  0.00    -0.388 OA
HETATM   45  C   UNL     1     -40.766  53.349 -48.670  1.00  0.00     0.187 C 
HETATM   46  C   UNL     1     -40.020  53.234 -50.014  1.00  0.00     0.143 C 
ENDBRANCH  38  41
ENDBRANCH  30  32
ENDBRANCH   5  28
TORSDOF 6
ENDMDL
MODEL 6
REMARK VINA RESULT:      -8.2      5.511      7.050
REMARK  6 active torsions:
REMARK  status: ('A' for Active; 'I' for Inactive)
REMARK       I    between atoms: N_1  and  C_2 
REMARK    1  A    between atoms: C_2  and  C_4 
REMARK    2  A    between atoms: C_9  and  C_13 
REMARK       I    between atoms: C_13  and  N_15 
REMARK    3  A    between atoms: C_19  and  C_20 
REMARK    4  A    between atoms: C_24  and  C_26 
REMARK       I    between atoms: C_26  and  N_28 
REMARK    5  A    between atoms: N_28  and  C_29 
REMARK    6  A    between atoms: C_34  and  N_38 
ROOT
HETATM    1  C   UNL     1     -44.111  59.390 -52.999  1.00  0.00    -0.034 A 
HETATM    2  C   UNL     1     -44.348  58.686 -51.805  1.00  0.00     0.009 A 
HETATM    3  C   UNL     1     -45.453  58.979 -51.003  1.00  0.00     0.002 A 
HETATM    4  C   UNL     1     -46.337  59.990 -51.376  1.00  0.00     0.017 A 
HETATM    5  C   UNL     1     -46.111  60.705 -52.558  1.00  0.00     0.033 A 
HETATM    6  C   UNL     1     -45.019  60.393 -53.374  1.00  0.00     0.026 A 
ENDROOT
BRANCH   1   7
HETATM    7  C   UNL     1     -42.893  59.036 -53.838  1.00  0.00     0.120 C 
HETATM    8  N   UNL     1     -42.258  57.782 -53.449  1.00  0.00    -0.338 N 
HETATM    9  C   UNL     1     -42.839  56.562 -53.766  1.00  0.00     0.274 C 
HETATM   10  C   UNL     1     -40.956  58.009 -52.838  1.00  0.00     0.127 C 
HETATM   11  O   UNL     1     -43.940  56.503 -54.316  1.00  0.00    -0.266 OA
HETATM   12  C   UNL     1     -40.893  59.512 -52.594  1.00  0.00     0.022 C 
HETATM   13  C   UNL     1     -41.775  60.076 -53.700  1.00  0.00     0.032 C 
BRANCH   9  14
HETATM   14  C   UNL     1     -42.122  55.325 -53.417  1.00  0.00     0.142 A 
HETATM   15  N   UNL     1     -41.442  55.078 -52.234  1.00  0.00    -0.224 NA
HETATM   16  C   UNL     1     -40.938  53.869 -52.351  1.00  0.00     0.134 A 
HETATM   17  C   UNL     1     -40.136  53.093 -51.470  1.00  0.00     0.052 A 
HETATM   18  N   UNL     1     -41.269  53.298 -53.573  1.00  0.00    -0.314 N 
HETATM   19  C   UNL     1     -39.756  51.852 -51.835  1.00  0.00     0.022 A 
HETATM   20  C   UNL     1     -40.155  51.267 -53.115  1.00  0.00     0.047 A 
HETATM   21  C   UNL     1     -40.888  52.017 -53.962  1.00  0.00     0.115 A 
HETATM   22  C   UNL     1     -42.006  54.227 -54.255  1.00  0.00     0.135 A 
BRANCH  20  23
HETATM   23  C   UNL     1     -39.696  49.894 -53.475  1.00  0.00     0.250 C 
HETATM   24  N   UNL     1     -39.368  49.077 -52.436  1.00  0.00    -0.366 N 
HETATM   25  H   UNL     1     -38.968  48.178 -52.676  1.00  0.00     0.159 HD
HETATM   26  H   UNL     1     -39.272  49.401 -51.485  1.00  0.00     0.159 HD
HETATM   27  O   UNL     1     -39.565  49.530 -54.636  1.00  0.00    -0.268 OA
ENDBRANCH  20  23
ENDBRANCH   9  14
ENDBRANCH   1   7
BRANCH   5  28
HETATM   28  C   UNL     1     -47.020  61.805 -52.978  1.00  0.00     0.257 C 
HETATM   29  O   UNL     1     -46.557  62.932 -53.090  1.00  0.00    -0.267 OA
HETATM   30  N   UNL     1     -48.321  61.403 -53.157  1.00  0.00    -0.301 N 
HETATM   31  H   UNL     1     -48.609  60.466 -52.923  1.00  0.00     0.171 HD
BRANCH  30  32
HETATM   32  C   UNL     1     -49.292  62.233 -53.637  1.00  0.00     0.174 A 
HETATM   33  N   UNL     1     -49.426  62.777 -54.821  1.00  0.00    -0.228 NA
HETATM   34  C   UNL     1     -50.614  63.472 -54.866  1.00  0.00     0.050 A 
HETATM   35  C   UNL     1     -51.076  64.131 -56.118  1.00  0.00     0.062 C 
HETATM   36  C   UNL     1     -51.362  63.421 -53.710  1.00  0.00     0.013 A 
HETATM   37  C   UNL     1     -52.467  64.782 -55.967  1.00  0.00     0.031 C 
HETATM   38  C   UNL     1     -53.427  64.135 -54.920  1.00  0.00     0.084 C 
HETATM   39  C   UNL     1     -52.705  64.031 -53.543  1.00  0.00     0.073 C 
HETATM   40  S   UNL     1     -50.541  62.545 -52.507  1.00  0.00    -0.055 SA
BRANCH  38  41
HETATM   41  N   UNL     1     -54.211  62.979 -55.396  1.00  0.00    -0.404 N 
HETATM   42  C   UNL     1     -54.487  62.779 -56.822  1.00  0.00     0.143 C 
HETATM   43  C   UNL     1     -53.482  61.873 -57.549  1.00  0.00     0.187 C 
HETATM   44  O   UNL     1     -53.366  60.604 -56.889  1.00  0.00    -0.388 OA
HETATM   45  C   UNL     1     -52.953  60.785 -55.531  1.00  0.00     0.187 C 
HETATM   46  C   UNL     1     -53.931  61.685 -54.750  1.00  0.00     0.143 C 
ENDBRANCH  38  41
ENDBRANCH  30  32
ENDBRANCH   5  28
TORSDOF 6
ENDMDL
MODEL 7
REMARK VINA RESULT:      -8.2      2.786      7.953
REMARK  6 active torsions:
REMARK  status: ('A' for Active; 'I' for Inactive)
REMARK       I    between atoms: N_1  and  C_2 
REMARK    1  A    between atoms: C_2  and  C_4 
REMARK    2  A    between atoms: C_9  and  C_13 
REMARK       I    between atoms: C_13  and  N_15 
REMARK    3  A    between atoms: C_19  and  C_20 
REMARK    4  A    between atoms: C_24  and  C_26 
REMARK       I    between atoms: C_26  and  N_28 
REMARK    5  A    between atoms: N_28  and  C_29 
REMARK    6  A    between atoms: C_34  and  N_38 
ROOT
HETATM    1  C   UNL     1     -44.338  63.079 -55.231  1.00  0.00    -0.034 A 
HETATM    2  C   UNL     1     -44.326  64.125 -54.290  1.00  0.00     0.009 A 
HETATM    3  C   UNL     1     -43.753  63.951 -53.029  1.00  0.00     0.002 A 
HETATM    4  C   UNL     1     -43.189  62.725 -52.681  1.00  0.00     0.017 A 
HETATM    5  C   UNL     1     -43.200  61.672 -53.603  1.00  0.00     0.033 A 
HETATM    6  C   UNL     1     -43.750  61.855 -54.876  1.00  0.00     0.026 A 
ENDROOT
BRANCH   1   7
HETATM    7  C   UNL     1     -44.974  63.316 -56.592  1.00  0.00     0.120 C 
HETATM    8  N   UNL     1     -45.053  62.118 -57.419  1.00  0.00    -0.338 N 
HETATM    9  C   UNL     1     -45.987  61.127 -57.148  1.00  0.00     0.274 C 
HETATM   10  C   UNL     1     -44.150  62.194 -58.558  1.00  0.00     0.127 C 
HETATM   11  O   UNL     1     -46.722  61.195 -56.161  1.00  0.00    -0.266 OA
HETATM   12  C   UNL     1     -43.264  63.401 -58.277  1.00  0.00     0.022 C 
HETATM   13  C   UNL     1     -44.165  64.302 -57.444  1.00  0.00     0.032 C 
BRANCH   9  14
HETATM   14  C   UNL     1     -46.077  59.972 -58.056  1.00  0.00     0.142 A 
HETATM   15  N   UNL     1     -47.070  59.746 -58.996  1.00  0.00    -0.224 NA
HETATM   16  C   UNL     1     -46.775  58.599 -59.567  1.00  0.00     0.134 A 
HETATM   17  C   UNL     1     -47.434  57.854 -60.583  1.00  0.00     0.052 A 
HETATM   18  N   UNL     1     -45.609  58.057 -59.042  1.00  0.00    -0.314 N 
HETATM   19  C   UNL     1     -46.904  56.689 -61.005  1.00  0.00     0.022 A 
HETATM   20  C   UNL     1     -45.652  56.166 -60.456  1.00  0.00     0.047 A 
HETATM   21  C   UNL     1     -45.046  56.859 -59.471  1.00  0.00     0.115 A 
HETATM   22  C   UNL     1     -45.175  58.920 -58.074  1.00  0.00     0.135 A 
BRANCH  20  23
HETATM   23  C   UNL     1     -45.115  54.865 -60.951  1.00  0.00     0.250 C 
HETATM   24  N   UNL     1     -44.808  53.939 -60.001  1.00  0.00    -0.366 N 
HETATM   25  H   UNL     1     -44.358  53.092 -60.323  1.00  0.00     0.159 HD
HETATM   26  H   UNL     1     -44.778  54.148 -59.014  1.00  0.00     0.159 HD
HETATM   27  O   UNL     1     -44.906  54.651 -62.138  1.00  0.00    -0.268 OA
ENDBRANCH  20  23
ENDBRANCH   9  14
ENDBRANCH   1   7
BRANCH   5  28
HETATM   28  C   UNL     1     -42.629  60.343 -53.261  1.00  0.00     0.257 C 
HETATM   29  O   UNL     1     -41.964  60.240 -52.239  1.00  0.00    -0.267 OA
HETATM   30  N   UNL     1     -42.902  59.372 -54.193  1.00  0.00    -0.301 N 
HETATM   31  H   UNL     1     -43.366  59.602 -55.059  1.00  0.00     0.171 HD
BRANCH  30  32
HETATM   32  C   UNL     1     -42.556  58.063 -54.021  1.00  0.00     0.174 A 
HETATM   33  N   UNL     1     -41.585  57.371 -54.561  1.00  0.00    -0.228 NA
HETATM   34  C   UNL     1     -41.576  56.105 -54.017  1.00  0.00     0.050 A 
HETATM   35  C   UNL     1     -40.526  55.115 -54.382  1.00  0.00     0.062 C 
HETATM   36  C   UNL     1     -42.540  55.877 -53.058  1.00  0.00     0.013 A 
HETATM   37  C   UNL     1     -40.659  53.793 -53.596  1.00  0.00     0.031 C 
HETATM   38  C   UNL     1     -41.309  53.889 -52.180  1.00  0.00     0.084 C 
HETATM   39  C   UNL     1     -42.682  54.620 -52.284  1.00  0.00     0.073 C 
HETATM   40  S   UNL     1     -43.530  57.246 -52.873  1.00  0.00    -0.055 SA
BRANCH  38  41
HETATM   41  N   UNL     1     -40.397  54.252 -51.078  1.00  0.00    -0.404 N 
HETATM   42  C   UNL     1     -40.613  55.458 -50.273  1.00  0.00     0.143 C 
HETATM   43  C   UNL     1     -41.416  55.233 -48.984  1.00  0.00     0.187 C 
HETATM   44  O   UNL     1     -40.816  54.208 -48.179  1.00  0.00    -0.388 OA
HETATM   45  C   UNL     1     -40.734  52.982 -48.913  1.00  0.00     0.187 C 
HETATM   46  C   UNL     1     -39.934  53.149 -50.219  1.00  0.00     0.143 C 
ENDBRANCH  38  41
ENDBRANCH  30  32
ENDBRANCH   5  28
TORSDOF 6
ENDMDL
MODEL 8
REMARK VINA RESULT:      -8.1      1.866      2.827
REMARK  6 active torsions:
REMARK  status: ('A' for Active; 'I' for Inactive)
REMARK       I    between atoms: N_1  and  C_2 
REMARK    1  A    between atoms: C_2  and  C_4 
REMARK    2  A    between atoms: C_9  and  C_13 
REMARK       I    between atoms: C_13  and  N_15 
REMARK    3  A    between atoms: C_19  and  C_20 
REMARK    4  A    between atoms: C_24  and  C_26 
REMARK       I    between atoms: C_26  and  N_28 
REMARK    5  A    between atoms: N_28  and  C_29 
REMARK    6  A    between atoms: C_34  and  N_38 
ROOT
HETATM    1  C   UNL     1     -43.549  61.127 -51.543  1.00  0.00    -0.034 A 
HETATM    2  C   UNL     1     -43.299  62.323 -50.848  1.00  0.00     0.009 A 
HETATM    3  C   UNL     1     -43.116  63.528 -51.530  1.00  0.00     0.002 A 
HETATM    4  C   UNL     1     -43.171  63.557 -52.922  1.00  0.00     0.017 A 
HETATM    5  C   UNL     1     -43.412  62.373 -53.629  1.00  0.00     0.033 A 
HETATM    6  C   UNL     1     -43.622  61.172 -52.945  1.00  0.00     0.026 A 
ENDROOT
BRANCH   1   7
HETATM    7  C   UNL     1     -43.740  59.840 -50.756  1.00  0.00     0.120 C 
HETATM    8  N   UNL     1     -43.269  58.649 -51.455  1.00  0.00    -0.338 N 
HETATM    9  C   UNL     1     -41.912  58.384 -51.572  1.00  0.00     0.274 C 
HETATM   10  C   UNL     1     -44.376  57.794 -51.860  1.00  0.00     0.127 C 
HETATM   11  O   UNL     1     -41.067  59.180 -51.157  1.00  0.00    -0.266 OA
HETATM   12  C   UNL     1     -45.626  58.634 -51.630  1.00  0.00     0.022 C 
HETATM   13  C   UNL     1     -45.220  59.547 -50.480  1.00  0.00     0.032 C 
BRANCH   9  14
HETATM   14  C   UNL     1     -41.489  57.132 -52.221  1.00  0.00     0.142 A 
HETATM   15  N   UNL     1     -41.244  56.954 -53.574  1.00  0.00    -0.224 NA
HETATM   16  C   UNL     1     -40.913  55.689 -53.718  1.00  0.00     0.134 A 
HETATM   17  C   UNL     1     -40.572  54.930 -54.872  1.00  0.00     0.052 A 
HETATM   18  N   UNL     1     -40.922  55.021 -52.501  1.00  0.00    -0.314 N 
HETATM   19  C   UNL     1     -40.257  53.626 -54.741  1.00  0.00     0.022 A 
HETATM   20  C   UNL     1     -40.239  52.962 -53.436  1.00  0.00     0.047 A 
HETATM   21  C   UNL     1     -40.592  53.677 -52.349  1.00  0.00     0.115 A 
HETATM   22  C   UNL     1     -41.302  55.931 -51.554  1.00  0.00     0.135 A 
BRANCH  20  23
HETATM   23  C   UNL     1     -39.893  51.514 -53.350  1.00  0.00     0.250 C 
HETATM   24  N   UNL     1     -40.124  50.771 -54.467  1.00  0.00    -0.366 N 
HETATM   25  H   UNL     1     -39.979  49.773 -54.386  1.00  0.00     0.159 HD
HETATM   26  H   UNL     1     -40.646  51.112 -55.261  1.00  0.00     0.159 HD
HETATM   27  O   UNL     1     -39.477  51.000 -52.320  1.00  0.00    -0.268 OA
ENDBRANCH  20  23
ENDBRANCH   9  14
ENDBRANCH   1   7
BRANCH   5  28
HETATM   28  C   UNL     1     -43.456  62.360 -55.116  1.00  0.00     0.257 C 
HETATM   29  O   UNL     1     -43.393  63.427 -55.710  1.00  0.00    -0.267 OA
HETATM   30  N   UNL     1     -43.604  61.103 -55.649  1.00  0.00    -0.301 N 
HETATM   31  H   UNL     1     -43.761  60.304 -55.053  1.00  0.00     0.171 HD
BRANCH  30  32
HETATM   32  C   UNL     1     -43.567  60.859 -56.991  1.00  0.00     0.174 A 
HETATM   33  N   UNL     1     -44.523  60.912 -57.884  1.00  0.00    -0.228 NA
HETATM   34  C   UNL     1     -43.991  60.669 -59.130  1.00  0.00     0.050 A 
HETATM   35  C   UNL     1     -44.831  60.744 -60.357  1.00  0.00     0.062 C 
HETATM   36  C   UNL     1     -42.630  60.453 -59.150  1.00  0.00     0.013 A 
HETATM   37  C   UNL     1     -44.017  60.517 -61.649  1.00  0.00     0.031 C 
HETATM   38  C   UNL     1     -42.510  60.923 -61.600  1.00  0.00     0.084 C 
HETATM   39  C   UNL     1     -41.824  60.242 -60.378  1.00  0.00     0.073 C 
HETATM   40  S   UNL     1     -42.000  60.483 -57.572  1.00  0.00    -0.055 SA
BRANCH  38  41
HETATM   41  N   UNL     1     -42.220  62.344 -61.873  1.00  0.00    -0.404 N 
HETATM   42  C   UNL     1     -42.244  63.347 -60.803  1.00  0.00     0.143 C 
HETATM   43  C   UNL     1     -40.882  63.620 -60.150  1.00  0.00     0.187 C 
HETATM   44  O   UNL     1     -39.903  63.978 -61.135  1.00  0.00    -0.388 OA
HETATM   45  C   UNL     1     -39.768  62.935 -62.106  1.00  0.00     0.187 C 
HETATM   46  C   UNL     1     -41.108  62.621 -62.799  1.00  0.00     0.143 C 
ENDBRANCH  38  41
ENDBRANCH  30  32
ENDBRANCH   5  28
TORSDOF 6
ENDMDL
MODEL 9
REMARK VINA RESULT:      -8.1      1.851      2.564
REMARK  6 active torsions:
REMARK  status: ('A' for Active; 'I' for Inactive)
REMARK       I    between atoms: N_1  and  C_2 
REMARK    1  A    between atoms: C_2  and  C_4 
REMARK    2  A    between atoms: C_9  and  C_13 
REMARK       I    between atoms: C_13  and  N_15 
REMARK    3  A    between atoms: C_19  and  C_20 
REMARK    4  A    between atoms: C_24  and  C_26 
REMARK       I    between atoms: C_26  and  N_28 
REMARK    5  A    between atoms: N_28  and  C_29 
REMARK    6  A    between atoms: C_34  and  N_38 
ROOT
HETATM    1  C   UNL     1     -43.719  61.415 -51.973  1.00  0.00    -0.034 A 
HETATM    2  C   UNL     1     -43.283  62.744 -51.821  1.00  0.00     0.009 A 
HETATM    3  C   UNL     1     -43.177  63.597 -52.921  1.00  0.00     0.002 A 
HETATM    4  C   UNL     1     -43.496  63.134 -54.196  1.00  0.00     0.017 A 
HETATM    5  C   UNL     1     -43.924  61.812 -54.365  1.00  0.00     0.033 A 
HETATM    6  C   UNL     1     -44.056  60.966 -53.259  1.00  0.00     0.026 A 
ENDROOT
BRANCH   1   7
HETATM    7  C   UNL     1     -43.817  60.524 -50.744  1.00  0.00     0.120 C 
HETATM    8  N   UNL     1     -43.379  59.153 -50.978  1.00  0.00    -0.338 N 
HETATM    9  C   UNL     1     -42.030  58.848 -51.099  1.00  0.00     0.274 C 
HETATM   10  C   UNL     1     -44.496  58.220 -50.935  1.00  0.00     0.127 C 
HETATM   11  O   UNL     1     -41.172  59.733 -51.088  1.00  0.00    -0.266 OA
HETATM   12  C   UNL     1     -45.741  59.098 -50.936  1.00  0.00     0.022 C 
HETATM   13  C   UNL     1     -45.263  60.373 -50.255  1.00  0.00     0.032 C 
BRANCH   9  14
HETATM   14  C   UNL     1     -41.635  57.439 -51.259  1.00  0.00     0.142 A 
HETATM   15  N   UNL     1     -41.301  56.562 -50.239  1.00  0.00    -0.224 NA
HETATM   16  C   UNL     1     -40.995  55.425 -50.825  1.00  0.00     0.134 A 
HETATM   17  C   UNL     1     -40.564  54.177 -50.294  1.00  0.00     0.052 A 
HETATM   18  N   UNL     1     -41.124  55.515 -52.204  1.00  0.00    -0.314 N 
HETATM   19  C   UNL     1     -40.325  53.147 -51.129  1.00  0.00     0.022 A 
HETATM   20  C   UNL     1     -40.508  53.265 -52.576  1.00  0.00     0.047 A 
HETATM   21  C   UNL     1     -40.886  54.458 -53.078  1.00  0.00     0.115 A 
HETATM   22  C   UNL     1     -41.514  56.796 -52.481  1.00  0.00     0.135 A 
BRANCH  20  23
HETATM   23  C   UNL     1     -40.217  52.096 -53.456  1.00  0.00     0.250 C 
HETATM   24  N   UNL     1     -39.854  50.944 -52.827  1.00  0.00    -0.366 N 
HETATM   25  H   UNL     1     -39.566  50.176 -53.420  1.00  0.00     0.159 HD
HETATM   26  H   UNL     1     -39.627  50.898 -51.845  1.00  0.00     0.159 HD
HETATM   27  O   UNL     1     -40.246  52.172 -54.677  1.00  0.00    -0.268 OA
ENDBRANCH  20  23
ENDBRANCH   9  14
ENDBRANCH   1   7
BRANCH   5  28
HETATM   28  C   UNL     1     -44.253  61.275 -55.712  1.00  0.00     0.257 C 
HETATM   29  O   UNL     1     -43.433  61.412 -56.610  1.00  0.00    -0.267 OA
HETATM   30  N   UNL     1     -45.500  60.705 -55.786  1.00  0.00    -0.301 N 
HETATM   31  H   UNL     1     -46.137  60.753 -55.006  1.00  0.00     0.171 HD
BRANCH  30  32
HETATM   32  C   UNL     1     -45.956  60.065 -56.902  1.00  0.00     0.174 A 
HETATM   33  N   UNL     1     -46.122  60.513 -58.121  1.00  0.00    -0.228 NA
HETATM   34  C   UNL     1     -46.525  59.475 -58.932  1.00  0.00     0.050 A 
HETATM   35  C   UNL     1     -46.714  59.668 -60.396  1.00  0.00     0.062 C 
HETATM   36  C   UNL     1     -46.638  58.255 -58.303  1.00  0.00     0.013 A 
HETATM   37  C   UNL     1     -47.088  58.359 -61.124  1.00  0.00     0.031 C 
HETATM   38  C   UNL     1     -46.568  57.035 -60.481  1.00  0.00     0.084 C 
HETATM   39  C   UNL     1     -46.987  56.982 -58.980  1.00  0.00     0.073 C 
HETATM   40  S   UNL     1     -46.304  58.408 -56.643  1.00  0.00    -0.055 SA
BRANCH  38  41
HETATM   41  N   UNL     1     -45.193  56.642 -60.845  1.00  0.00    -0.404 N 
HETATM   42  C   UNL     1     -44.029  57.373 -60.334  1.00  0.00     0.143 C 
HETATM   43  C   UNL     1     -43.416  56.788 -59.054  1.00  0.00     0.187 C 
HETATM   44  O   UNL     1     -43.087  55.403 -59.229  1.00  0.00    -0.388 OA
HETATM   45  C   UNL     1     -44.253  54.655 -59.587  1.00  0.00     0.187 C 
HETATM   46  C   UNL     1     -44.909  55.197 -60.872  1.00  0.00     0.143 C 
ENDBRANCH  38  41
ENDBRANCH  30  32
ENDBRANCH   5  28
TORSDOF 6
ENDMDL
MODEL 10
REMARK VINA RESULT:      -8.0      3.531     10.039
REMARK  6 active torsions:
REMARK  status: ('A' for Active; 'I' for Inactive)
REMARK       I    between atoms: N_1  and  C_2 
REMARK    1  A    between atoms: C_2  and  C_4 
REMARK    2  A    between atoms: C_9  and  C_13 
REMARK       I    between atoms: C_13  and  N_15 
REMARK    3  A    between atoms: C_19  and  C_20 
REMARK    4  A    between atoms: C_24  and  C_26 
REMARK       I    between atoms: C_26  and  N_28 
REMARK    5  A    between atoms: N_28  and  C_29 
REMARK    6  A    between atoms: C_34  and  N_38 
ROOT
HETATM    1  C   UNL     1     -44.204  59.293 -59.995  1.00  0.00    -0.034 A 
HETATM    2  C   UNL     1     -43.070  59.609 -60.764  1.00  0.00     0.009 A 
HETATM    3  C   UNL     1     -41.909  58.838 -60.685  1.00  0.00     0.002 A 
HETATM    4  C   UNL     1     -41.857  57.740 -59.828  1.00  0.00     0.017 A 
HETATM    5  C   UNL     1     -42.976  57.417 -59.050  1.00  0.00     0.033 A 
HETATM    6  C   UNL     1     -44.147  58.173 -59.150  1.00  0.00     0.026 A 
ENDROOT
BRANCH   1   7
HETATM    7  C   UNL     1     -45.446  60.164 -60.115  1.00  0.00     0.120 C 
HETATM    8  N   UNL     1     -46.076  60.466 -58.835  1.00  0.00    -0.338 N 
HETATM    9  C   UNL     1     -45.509  61.383 -57.963  1.00  0.00     0.274 C 
HETATM   10  C   UNL     1     -47.361  59.794 -58.701  1.00  0.00     0.127 C 
HETATM   11  O   UNL     1     -44.422  61.911 -58.208  1.00  0.00    -0.266 OA
HETATM   12  C   UNL     1     -47.411  58.805 -59.858  1.00  0.00     0.022 C 
HETATM   13  C   UNL     1     -46.555  59.479 -60.923  1.00  0.00     0.032 C 
BRANCH   9  14
HETATM   14  C   UNL     1     -46.222  61.709 -56.717  1.00  0.00     0.142 A 
HETATM   15  N   UNL     1     -45.789  61.432 -55.429  1.00  0.00    -0.224 NA
HETATM   16  C   UNL     1     -46.733  61.873 -54.627  1.00  0.00     0.134 A 
HETATM   17  C   UNL     1     -46.852  61.850 -53.210  1.00  0.00     0.052 A 
HETATM   18  N   UNL     1     -47.778  62.445 -55.340  1.00  0.00    -0.314 N 
HETATM   19  C   UNL     1     -47.939  62.392 -52.624  1.00  0.00     0.022 A 
HETATM   20  C   UNL     1     -49.004  63.022 -53.406  1.00  0.00     0.047 A 
HETATM   21  C   UNL     1     -48.903  63.014 -54.750  1.00  0.00     0.115 A 
HETATM   22  C   UNL     1     -47.462  62.328 -56.665  1.00  0.00     0.135 A 
BRANCH  20  23
HETATM   23  C   UNL     1     -50.191  63.596 -52.707  1.00  0.00     0.250 C 
HETATM   24  N   UNL     1     -50.946  64.473 -53.424  1.00  0.00    -0.366 N 
HETATM   25  H   UNL     1     -51.697  64.936 -52.927  1.00  0.00     0.159 HD
HETATM   26  H   UNL     1     -50.656  64.857 -54.311  1.00  0.00     0.159 HD
HETATM   27  O   UNL     1     -50.451  63.341 -51.539  1.00  0.00    -0.268 OA
ENDBRANCH  20  23
ENDBRANCH   9  14
ENDBRANCH   1   7
BRANCH   5  28
HETATM   28  C   UNL     1     -42.951  56.267 -58.108  1.00  0.00     0.257 C 
HETATM   29  O   UNL     1     -43.542  55.243 -58.423  1.00  0.00    -0.267 OA
HETATM   30  N   UNL     1     -42.272  56.527 -56.943  1.00  0.00    -0.301 N 
HETATM   31  H   UNL     1     -41.922  57.451 -56.744  1.00  0.00     0.171 HD
BRANCH  30  32
HETATM   32  C   UNL     1     -42.047  55.576 -55.990  1.00  0.00     0.174 A 
HETATM   33  N   UNL     1     -41.080  54.700 -55.886  1.00  0.00    -0.228 NA
HETATM   34  C   UNL     1     -41.225  54.005 -54.706  1.00  0.00     0.050 A 
HETATM   35  C   UNL     1     -40.220  52.994 -54.276  1.00  0.00     0.062 C 
HETATM   36  C   UNL     1     -42.300  54.389 -53.933  1.00  0.00     0.013 A 
HETATM   37  C   UNL     1     -40.536  52.396 -52.889  1.00  0.00     0.031 C 
HETATM   38  C   UNL     1     -41.325  53.313 -51.901  1.00  0.00     0.084 C 
HETATM   39  C   UNL     1     -42.619  53.836 -52.594  1.00  0.00     0.073 C 
HETATM   40  S   UNL     1     -43.197  55.598 -54.721  1.00  0.00    -0.055 SA
BRANCH  38  41
HETATM   41  N   UNL     1     -40.510  54.260 -51.116  1.00  0.00    -0.404 N 
HETATM   42  C   UNL     1     -40.973  55.625 -50.847  1.00  0.00     0.143 C 
HETATM   43  C   UNL     1     -41.715  55.799 -49.514  1.00  0.00     0.187 C 
HETATM   44  O   UNL     1     -40.919  55.327 -48.418  1.00  0.00    -0.388 OA
HETATM   45  C   UNL     1     -40.583  53.948 -48.604  1.00  0.00     0.187 C 
HETATM   46  C   UNL     1     -39.831  53.715 -49.928  1.00  0.00     0.143 C 
ENDBRANCH  38  41
ENDBRANCH  30  32
ENDBRANCH   5  28
TORSDOF 6
ENDMDL
