MODEL 1
REMARK VINA RESULT:      -7.5      0.000      0.000
REMARK  3 active torsions:
REMARK  status: ('A' for Active; 'I' for Inactive)
REMARK    1  A    between atoms: C_8  and  C_9 
REMARK    2  A    between atoms: C_10  and  O_11 
REMARK    3  A    between atoms: C_24  and  N_25 
ROOT
HETATM    1  C   UNL     1     -43.688  60.230 -54.837  1.00  0.00     0.070 C 
HETATM    2  C   UNL     1     -42.827  59.966 -56.010  1.00  0.00     0.035 A 
HETATM    3  N   UNL     1     -41.803  60.807 -56.384  1.00  0.00    -0.280 N 
HETATM    4  H   UNL     1     -41.506  61.668 -55.937  1.00  0.00     0.189 HD
HETATM    5  N   UNL     1     -41.150  60.409 -57.496  1.00  0.00    -0.148 NA
HETATM    6  C   UNL     1     -41.783  59.288 -57.813  1.00  0.00     0.199 A 
HETATM    7  C   UNL     1     -42.808  58.936 -56.929  1.00  0.00     0.034 A 
HETATM    8  C   UNL     1     -43.608  57.698 -57.149  1.00  0.00     0.107 C 
HETATM    9  C   UNL     1     -43.347  57.151 -58.541  1.00  0.00     0.067 C 
HETATM   10  C   UNL     1     -44.412  56.248 -59.142  1.00  0.00     0.020 C 
HETATM   11  N   UNL     1     -45.295  55.499 -59.640  1.00  0.00    -0.096 N 
HETATM   12  C   UNL     1     -42.327  57.582 -59.331  1.00  0.00     0.139 C 
HETATM   13  O   UNL     1     -41.449  58.598 -58.920  1.00  0.00    -0.277 OA
ENDROOT
BRANCH   8  14
HETATM   14  C   UNL     1     -43.187  56.726 -56.053  1.00  0.00    -0.010 A 
HETATM   15  C   UNL     1     -43.959  56.585 -54.890  1.00  0.00     0.076 A 
HETATM   16  C   UNL     1     -43.610  55.648 -53.909  1.00  0.00     0.049 A 
HETATM   17  C   UNL     1     -42.455  54.859 -54.041  1.00  0.00    -0.023 A 
HETATM   18  C   UNL     1     -41.653  55.003 -55.192  1.00  0.00    -0.025 A 
HETATM   19  C   UNL     1     -42.082  53.924 -53.062  1.00  0.00     0.012 A 
HETATM   20  C   UNL     1     -42.036  55.917 -56.185  1.00  0.00     0.023 A 
HETATM   21  C   UNL     1     -40.492  54.225 -55.326  1.00  0.00     0.012 A 
HETATM   22  C   UNL     1     -40.130  53.309 -54.340  1.00  0.00     0.001 A 
HETATM   23  C   UNL     1     -40.927  53.155 -53.210  1.00  0.00     0.001 A 
BRANCH  15  24
HETATM   24  O   UNL     1     -45.103  57.334 -54.789  1.00  0.00    -0.355 OA
HETATM   25  C   UNL     1     -45.319  57.850 -53.477  1.00  0.00     0.210 C 
ENDBRANCH  15  24
ENDBRANCH   8  14
BRANCH  12  26
HETATM   26  N   UNL     1     -42.061  57.135 -60.607  1.00  0.00    -0.282 NA
HETATM   27  H   UNL     1     -41.374  56.390 -60.689  1.00  0.00     0.126 HD
HETATM   28  H   UNL     1     -42.913  56.956 -61.133  1.00  0.00     0.126 HD
ENDBRANCH  12  26
TORSDOF 3
ENDMDL
MODEL 2
REMARK VINA RESULT:      -7.5      3.574      5.909
REMARK  3 active torsions:
REMARK  status: ('A' for Active; 'I' for Inactive)
REMARK    1  A    between atoms: C_8  and  C_9 
REMARK    2  A    between atoms: C_10  and  O_11 
REMARK    3  A    between atoms: C_24  and  N_25 
ROOT
HETATM    1  C   UNL     1     -44.781  57.001 -54.656  1.00  0.00     0.070 C 
HETATM    2  C   UNL     1     -44.434  57.220 -53.235  1.00  0.00     0.035 A 
HETATM    3  N   UNL     1     -45.382  57.259 -52.237  1.00  0.00    -0.280 N 
HETATM    4  H   UNL     1     -46.387  57.147 -52.323  1.00  0.00     0.189 HD
HETATM    5  N   UNL     1     -44.871  57.496 -51.011  1.00  0.00    -0.148 NA
HETATM    6  C   UNL     1     -43.572  57.597 -51.257  1.00  0.00     0.199 A 
HETATM    7  C   UNL     1     -43.225  57.411 -52.598  1.00  0.00     0.034 A 
HETATM    8  C   UNL     1     -41.801  57.489 -53.031  1.00  0.00     0.107 C 
HETATM    9  C   UNL     1     -40.952  58.081 -51.920  1.00  0.00     0.067 C 
HETATM   10  C   UNL     1     -39.633  58.721 -52.322  1.00  0.00     0.020 C 
HETATM   11  N   UNL     1     -38.539  59.252 -52.655  1.00  0.00    -0.096 N 
HETATM   12  C   UNL     1     -41.398  58.239 -50.645  1.00  0.00     0.139 C 
HETATM   13  O   UNL     1     -42.705  57.886 -50.268  1.00  0.00    -0.277 OA
ENDROOT
BRANCH   8  14
HETATM   14  C   UNL     1     -41.389  56.064 -53.382  1.00  0.00    -0.010 A 
HETATM   15  C   UNL     1     -41.362  55.638 -54.718  1.00  0.00     0.076 A 
HETATM   16  C   UNL     1     -40.925  54.349 -55.049  1.00  0.00     0.049 A 
HETATM   17  C   UNL     1     -40.547  53.435 -54.052  1.00  0.00    -0.023 A 
HETATM   18  C   UNL     1     -40.591  53.836 -52.701  1.00  0.00    -0.025 A 
HETATM   19  C   UNL     1     -40.119  52.135 -54.364  1.00  0.00     0.012 A 
HETATM   20  C   UNL     1     -40.993  55.143 -52.386  1.00  0.00     0.023 A 
HETATM   21  C   UNL     1     -40.224  52.925 -51.697  1.00  0.00     0.012 A 
HETATM   22  C   UNL     1     -39.811  51.634 -52.024  1.00  0.00     0.001 A 
HETATM   23  C   UNL     1     -39.754  51.240 -53.356  1.00  0.00     0.001 A 
BRANCH  15  24
HETATM   24  O   UNL     1     -41.699  56.550 -55.685  1.00  0.00    -0.355 OA
HETATM   25  C   UNL     1     -42.399  55.968 -56.782  1.00  0.00     0.210 C 
ENDBRANCH  15  24
ENDBRANCH   8  14
BRANCH  12  26
HETATM   26  N   UNL     1     -40.678  58.789 -49.608  1.00  0.00    -0.282 NA
HETATM   27  H   UNL     1     -40.981  58.545 -48.669  1.00  0.00     0.126 HD
HETATM   28  H   UNL     1     -39.675  58.686 -49.745  1.00  0.00     0.126 HD
ENDBRANCH  12  26
TORSDOF 3
ENDMDL
MODEL 3
REMARK VINA RESULT:      -7.3      2.925      4.537
REMARK  3 active torsions:
REMARK  status: ('A' for Active; 'I' for Inactive)
REMARK    1  A    between atoms: C_8  and  C_9 
REMARK    2  A    between atoms: C_10  and  O_11 
REMARK    3  A    between atoms: C_24  and  N_25 
ROOT
HETATM    1  C   UNL     1     -45.617  57.677 -50.681  1.00  0.00     0.070 C 
HETATM    2  C   UNL     1     -44.589  58.607 -51.194  1.00  0.00     0.035 A 
HETATM    3  N   UNL     1     -44.252  59.774 -50.545  1.00  0.00    -0.280 N 
HETATM    4  H   UNL     1     -44.631  60.138 -49.677  1.00  0.00     0.189 HD
HETATM    5  N   UNL     1     -43.312  60.501 -51.183  1.00  0.00    -0.148 NA
HETATM    6  C   UNL     1     -43.055  59.759 -52.252  1.00  0.00     0.199 A 
HETATM    7  C   UNL     1     -43.781  58.566 -52.312  1.00  0.00     0.034 A 
HETATM    8  C   UNL     1     -43.597  57.624 -53.452  1.00  0.00     0.107 C 
HETATM    9  C   UNL     1     -42.817  58.299 -54.565  1.00  0.00     0.067 C 
HETATM   10  C   UNL     1     -42.977  57.732 -55.967  1.00  0.00     0.020 C 
HETATM   11  N   UNL     1     -43.108  57.262 -57.129  1.00  0.00    -0.096 N 
HETATM   12  C   UNL     1     -42.160  59.479 -54.404  1.00  0.00     0.139 C 
HETATM   13  O   UNL     1     -42.180  60.179 -53.186  1.00  0.00    -0.277 OA
ENDROOT
BRANCH   8  14
HETATM   14  C   UNL     1     -42.867  56.413 -52.882  1.00  0.00    -0.010 A 
HETATM   15  C   UNL     1     -43.027  55.146 -53.462  1.00  0.00     0.076 A 
HETATM   16  C   UNL     1     -42.310  54.043 -52.980  1.00  0.00     0.049 A 
HETATM   17  C   UNL     1     -41.449  54.166 -51.878  1.00  0.00    -0.023 A 
HETATM   18  C   UNL     1     -41.293  55.426 -51.266  1.00  0.00    -0.025 A 
HETATM   19  C   UNL     1     -40.733  53.068 -51.373  1.00  0.00     0.012 A 
HETATM   20  C   UNL     1     -41.987  56.531 -51.783  1.00  0.00     0.023 A 
HETATM   21  C   UNL     1     -40.441  55.555 -50.157  1.00  0.00     0.012 A 
HETATM   22  C   UNL     1     -39.745  54.454 -49.661  1.00  0.00     0.001 A 
HETATM   23  C   UNL     1     -39.887  53.212 -50.272  1.00  0.00     0.001 A 
BRANCH  15  24
HETATM   24  O   UNL     1     -43.843  55.045 -54.559  1.00  0.00    -0.355 OA
HETATM   25  C   UNL     1     -43.382  54.090 -55.512  1.00  0.00     0.210 C 
ENDBRANCH  15  24
ENDBRANCH   8  14
BRANCH  12  26
HETATM   26  N   UNL     1     -41.458  60.144 -55.385  1.00  0.00    -0.282 NA
HETATM   27  H   UNL     1     -40.571  60.554 -55.106  1.00  0.00     0.126 HD
HETATM   28  H   UNL     1     -41.396  59.601 -56.244  1.00  0.00     0.126 HD
ENDBRANCH  12  26
TORSDOF 3
ENDMDL
MODEL 4
REMARK VINA RESULT:      -7.0      3.603      5.677
REMARK  3 active torsions:
REMARK  status: ('A' for Active; 'I' for Inactive)
REMARK    1  A    between atoms: C_8  and  C_9 
REMARK    2  A    between atoms: C_10  and  O_11 
REMARK    3  A    between atoms: C_24  and  N_25 
ROOT
HETATM    1  C   UNL     1     -43.217  55.429 -56.036  1.00  0.00     0.070 C 
HETATM    2  C   UNL     1     -43.633  56.196 -54.842  1.00  0.00     0.035 A 
HETATM    3  N   UNL     1     -44.953  56.461 -54.551  1.00  0.00    -0.280 N 
HETATM    4  H   UNL     1     -45.776  56.183 -55.075  1.00  0.00     0.189 HD
HETATM    5  N   UNL     1     -45.127  57.196 -53.434  1.00  0.00    -0.148 NA
HETATM    6  C   UNL     1     -43.882  57.384 -53.018  1.00  0.00     0.199 A 
HETATM    7  C   UNL     1     -42.911  56.774 -53.818  1.00  0.00     0.034 A 
HETATM    8  C   UNL     1     -41.465  56.891 -53.476  1.00  0.00     0.107 C 
HETATM    9  C   UNL     1     -41.266  57.960 -52.416  1.00  0.00     0.067 C 
HETATM   10  C   UNL     1     -39.886  58.590 -52.318  1.00  0.00     0.020 C 
HETATM   11  N   UNL     1     -38.742  59.113 -52.237  1.00  0.00    -0.096 N 
HETATM   12  C   UNL     1     -42.290  58.505 -51.707  1.00  0.00     0.139 C 
HETATM   13  O   UNL     1     -43.627  58.132 -51.928  1.00  0.00    -0.277 OA
ENDROOT
BRANCH   8  14
HETATM   14  C   UNL     1     -41.033  55.510 -52.998  1.00  0.00    -0.010 A 
HETATM   15  C   UNL     1     -41.006  55.206 -51.629  1.00  0.00     0.076 A 
HETATM   16  C   UNL     1     -40.670  53.919 -51.188  1.00  0.00     0.049 A 
HETATM   17  C   UNL     1     -40.306  52.915 -52.100  1.00  0.00    -0.023 A 
HETATM   18  C   UNL     1     -40.303  53.208 -53.479  1.00  0.00    -0.025 A 
HETATM   19  C   UNL     1     -39.952  51.624 -51.676  1.00  0.00     0.012 A 
HETATM   20  C   UNL     1     -40.681  54.489 -53.909  1.00  0.00     0.023 A 
HETATM   21  C   UNL     1     -39.932  52.212 -54.397  1.00  0.00     0.012 A 
HETATM   22  C   UNL     1     -39.573  50.937 -53.958  1.00  0.00     0.001 A 
HETATM   23  C   UNL     1     -39.588  50.642 -52.599  1.00  0.00     0.001 A 
BRANCH  15  24
HETATM   24  O   UNL     1     -41.397  56.184 -50.751  1.00  0.00    -0.355 OA
HETATM   25  C   UNL     1     -41.359  55.760 -49.390  1.00  0.00     0.210 C 
ENDBRANCH  15  24
ENDBRANCH   8  14
BRANCH  12  26
HETATM   26  N   UNL     1     -42.166  59.491 -50.752  1.00  0.00    -0.282 NA
HETATM   27  H   UNL     1     -41.455  60.197 -50.923  1.00  0.00     0.126 HD
HETATM   28  H   UNL     1     -43.068  59.884 -50.492  1.00  0.00     0.126 HD
ENDBRANCH  12  26
TORSDOF 3
ENDMDL
MODEL 5
REMARK VINA RESULT:      -6.9      2.211      4.084
REMARK  3 active torsions:
REMARK  status: ('A' for Active; 'I' for Inactive)
REMARK    1  A    between atoms: C_8  and  C_9 
REMARK    2  A    between atoms: C_10  and  O_11 
REMARK    3  A    between atoms: C_24  and  N_25 
ROOT
HETATM    1  C   UNL     1     -41.759  57.657 -60.063  1.00  0.00     0.070 C 
HETATM    2  C   UNL     1     -43.196  57.375 -59.863  1.00  0.00     0.035 A 
HETATM    3  N   UNL     1     -43.925  56.581 -60.721  1.00  0.00    -0.280 N 
HETATM    4  H   UNL     1     -43.602  56.103 -61.556  1.00  0.00     0.189 HD
HETATM    5  N   UNL     1     -45.225  56.464 -60.383  1.00  0.00    -0.148 NA
HETATM    6  C   UNL     1     -45.302  57.199 -59.282  1.00  0.00     0.199 A 
HETATM    7  C   UNL     1     -44.088  57.767 -58.884  1.00  0.00     0.034 A 
HETATM    8  C   UNL     1     -44.011  58.616 -57.662  1.00  0.00     0.107 C 
HETATM    9  C   UNL     1     -45.409  58.976 -57.191  1.00  0.00     0.067 C 
HETATM   10  C   UNL     1     -45.551  60.216 -56.324  1.00  0.00     0.020 C 
HETATM   11  N   UNL     1     -45.668  61.245 -55.604  1.00  0.00    -0.096 N 
HETATM   12  C   UNL     1     -46.533  58.371 -57.663  1.00  0.00     0.139 C 
HETATM   13  O   UNL     1     -46.479  57.376 -58.653  1.00  0.00    -0.277 OA
ENDROOT
BRANCH   8  14
HETATM   14  C   UNL     1     -43.242  57.798 -56.630  1.00  0.00    -0.010 A 
HETATM   15  C   UNL     1     -42.370  58.426 -55.729  1.00  0.00     0.076 A 
HETATM   16  C   UNL     1     -41.709  57.687 -54.740  1.00  0.00     0.049 A 
HETATM   17  C   UNL     1     -41.866  56.294 -54.653  1.00  0.00    -0.023 A 
HETATM   18  C   UNL     1     -42.720  55.641 -55.564  1.00  0.00    -0.025 A 
HETATM   19  C   UNL     1     -41.201  55.535 -53.676  1.00  0.00     0.012 A 
HETATM   20  C   UNL     1     -43.406  56.399 -56.525  1.00  0.00     0.023 A 
HETATM   21  C   UNL     1     -42.874  54.247 -55.490  1.00  0.00     0.012 A 
HETATM   22  C   UNL     1     -42.198  53.506 -54.521  1.00  0.00     0.001 A 
HETATM   23  C   UNL     1     -41.366  54.150 -53.611  1.00  0.00     0.001 A 
BRANCH  15  24
HETATM   24  O   UNL     1     -42.253  59.791 -55.801  1.00  0.00    -0.355 OA
HETATM   25  C   UNL     1     -42.270  60.421 -54.523  1.00  0.00     0.210 C 
ENDBRANCH  15  24
ENDBRANCH   8  14
BRANCH  12  26
HETATM   26  N   UNL     1     -47.822  58.675 -57.285  1.00  0.00    -0.282 NA
HETATM   27  H   UNL     1     -48.087  59.655 -57.333  1.00  0.00     0.126 HD
HETATM   28  H   UNL     1     -48.502  58.054 -57.719  1.00  0.00     0.126 HD
ENDBRANCH  12  26
TORSDOF 3
ENDMDL
MODEL 6
REMARK VINA RESULT:      -6.8      2.137      3.334
REMARK  3 active torsions:
REMARK  status: ('A' for Active; 'I' for Inactive)
REMARK    1  A    between atoms: C_8  and  C_9 
REMARK    2  A    between atoms: C_10  and  O_11 
REMARK    3  A    between atoms: C_24  and  N_25 
ROOT
HETATM    1  C   UNL     1     -41.247  59.291 -58.418  1.00  0.00     0.070 C 
HETATM    2  C   UNL     1     -42.048  58.222 -59.051  1.00  0.00     0.035 A 
HETATM    3  N   UNL     1     -41.534  57.376 -60.008  1.00  0.00    -0.280 N 
HETATM    4  H   UNL     1     -40.594  57.362 -60.391  1.00  0.00     0.189 HD
HETATM    5  N   UNL     1     -42.428  56.484 -60.483  1.00  0.00    -0.148 NA
HETATM    6  C   UNL     1     -43.521  56.780 -59.794  1.00  0.00     0.199 A 
HETATM    7  C   UNL     1     -43.356  57.819 -58.873  1.00  0.00     0.034 A 
HETATM    8  C   UNL     1     -44.494  58.263 -58.019  1.00  0.00     0.107 C 
HETATM    9  C   UNL     1     -45.793  57.668 -58.533  1.00  0.00     0.067 C 
HETATM   10  C   UNL     1     -47.080  58.386 -58.159  1.00  0.00     0.020 C 
HETATM   11  N   UNL     1     -48.147  58.981 -57.849  1.00  0.00    -0.096 N 
HETATM   12  C   UNL     1     -45.841  56.668 -59.453  1.00  0.00     0.139 C 
HETATM   13  O   UNL     1     -44.675  56.126 -60.020  1.00  0.00    -0.277 OA
ENDROOT
BRANCH   8  14
HETATM   14  C   UNL     1     -44.163  57.803 -56.604  1.00  0.00    -0.010 A 
HETATM   15  C   UNL     1     -44.348  58.664 -55.513  1.00  0.00     0.076 A 
HETATM   16  C   UNL     1     -44.104  58.225 -54.205  1.00  0.00     0.049 A 
HETATM   17  C   UNL     1     -43.624  56.929 -53.956  1.00  0.00    -0.023 A 
HETATM   18  C   UNL     1     -43.408  56.056 -55.042  1.00  0.00    -0.025 A 
HETATM   19  C   UNL     1     -43.360  56.475 -52.653  1.00  0.00     0.012 A 
HETATM   20  C   UNL     1     -43.694  56.496 -56.343  1.00  0.00     0.023 A 
HETATM   21  C   UNL     1     -42.919  54.761 -54.802  1.00  0.00     0.012 A 
HETATM   22  C   UNL     1     -42.652  54.330 -53.503  1.00  0.00     0.001 A 
HETATM   23  C   UNL     1     -42.878  55.185 -52.429  1.00  0.00     0.001 A 
BRANCH  15  24
HETATM   24  O   UNL     1     -44.851  59.915 -55.765  1.00  0.00    -0.355 OA
HETATM   25  C   UNL     1     -45.345  60.565 -54.596  1.00  0.00     0.210 C 
ENDBRANCH  15  24
ENDBRANCH   8  14
BRANCH  12  26
HETATM   26  N   UNL     1     -46.990  56.108 -59.967  1.00  0.00    -0.282 NA
HETATM   27  H   UNL     1     -47.313  56.480 -60.856  1.00  0.00     0.126 HD
HETATM   28  H   UNL     1     -46.962  55.091 -59.943  1.00  0.00     0.126 HD
ENDBRANCH  12  26
TORSDOF 3
ENDMDL
MODEL 7
REMARK VINA RESULT:      -6.8      3.848      6.434
REMARK  3 active torsions:
REMARK  status: ('A' for Active; 'I' for Inactive)
REMARK    1  A    between atoms: C_8  and  C_9 
REMARK    2  A    between atoms: C_10  and  O_11 
REMARK    3  A    between atoms: C_24  and  N_25 
ROOT
HETATM    1  C   UNL     1     -42.165  60.525 -52.351  1.00  0.00     0.070 C 
HETATM    2  C   UNL     1     -43.213  59.682 -51.737  1.00  0.00     0.035 A 
HETATM    3  N   UNL     1     -44.265  60.209 -51.022  1.00  0.00    -0.280 N 
HETATM    4  H   UNL     1     -44.464  61.185 -50.830  1.00  0.00     0.189 HD
HETATM    5  N   UNL     1     -45.102  59.278 -50.518  1.00  0.00    -0.148 NA
HETATM    6  C   UNL     1     -44.556  58.145 -50.940  1.00  0.00     0.199 A 
HETATM    7  C   UNL     1     -43.408  58.316 -51.720  1.00  0.00     0.034 A 
HETATM    8  C   UNL     1     -42.684  57.136 -52.272  1.00  0.00     0.107 C 
HETATM    9  C   UNL     1     -43.184  55.863 -51.612  1.00  0.00     0.067 C 
HETATM   10  C   UNL     1     -42.255  54.661 -51.631  1.00  0.00     0.020 C 
HETATM   11  N   UNL     1     -41.484  53.663 -51.648  1.00  0.00    -0.096 N 
HETATM   12  C   UNL     1     -44.310  55.812 -50.851  1.00  0.00     0.139 C 
HETATM   13  O   UNL     1     -45.085  56.956 -50.595  1.00  0.00    -0.277 OA
ENDROOT
BRANCH   8  14
HETATM   14  C   UNL     1     -42.940  57.151 -53.775  1.00  0.00    -0.010 A 
HETATM   15  C   UNL     1     -41.969  56.676 -54.668  1.00  0.00     0.076 A 
HETATM   16  C   UNL     1     -42.225  56.631 -56.045  1.00  0.00     0.049 A 
HETATM   17  C   UNL     1     -43.439  57.102 -56.571  1.00  0.00    -0.023 A 
HETATM   18  C   UNL     1     -44.418  57.606 -55.691  1.00  0.00    -0.025 A 
HETATM   19  C   UNL     1     -43.707  57.077 -57.949  1.00  0.00     0.012 A 
HETATM   20  C   UNL     1     -44.165  57.609 -54.311  1.00  0.00     0.023 A 
HETATM   21  C   UNL     1     -45.631  58.089 -56.210  1.00  0.00     0.012 A 
HETATM   22  C   UNL     1     -45.878  58.067 -57.582  1.00  0.00     0.001 A 
HETATM   23  C   UNL     1     -44.918  57.557 -58.451  1.00  0.00     0.001 A 
BRANCH  15  24
HETATM   24  O   UNL     1     -40.802  56.185 -54.141  1.00  0.00    -0.355 OA
HETATM   25  C   UNL     1     -40.331  55.020 -54.814  1.00  0.00     0.210 C 
ENDBRANCH  15  24
ENDBRANCH   8  14
BRANCH  12  26
HETATM   26  N   UNL     1     -44.794  54.691 -50.214  1.00  0.00    -0.282 NA
HETATM   27  H   UNL     1     -45.764  54.728 -49.911  1.00  0.00     0.126 HD
HETATM   28  H   UNL     1     -44.563  53.837 -50.717  1.00  0.00     0.126 HD
ENDBRANCH  12  26
TORSDOF 3
ENDMDL
MODEL 8
REMARK VINA RESULT:      -6.8      4.241      6.815
REMARK  3 active torsions:
REMARK  status: ('A' for Active; 'I' for Inactive)
REMARK    1  A    between atoms: C_8  and  C_9 
REMARK    2  A    between atoms: C_10  and  O_11 
REMARK    3  A    between atoms: C_24  and  N_25 
ROOT
HETATM    1  C   UNL     1     -40.466  55.927 -50.594  1.00  0.00     0.070 C 
HETATM    2  C   UNL     1     -41.626  55.621 -51.459  1.00  0.00     0.035 A 
HETATM    3  N   UNL     1     -42.349  54.455 -51.347  1.00  0.00    -0.280 N 
HETATM    4  H   UNL     1     -42.205  53.690 -50.696  1.00  0.00     0.189 HD
HETATM    5  N   UNL     1     -43.353  54.348 -52.242  1.00  0.00    -0.148 NA
HETATM    6  C   UNL     1     -43.252  55.483 -52.920  1.00  0.00     0.199 A 
HETATM    7  C   UNL     1     -42.232  56.329 -52.477  1.00  0.00     0.034 A 
HETATM    8  C   UNL     1     -41.997  57.644 -53.137  1.00  0.00     0.107 C 
HETATM    9  C   UNL     1     -42.769  57.716 -54.443  1.00  0.00     0.067 C 
HETATM   10  C   UNL     1     -42.272  58.701 -55.489  1.00  0.00     0.020 C 
HETATM   11  N   UNL     1     -41.860  59.518 -56.356  1.00  0.00    -0.096 N 
HETATM   12  C   UNL     1     -43.734  56.822 -54.787  1.00  0.00     0.139 C 
HETATM   13  O   UNL     1     -44.070  55.738 -53.959  1.00  0.00    -0.277 OA
ENDROOT
BRANCH   8  14
HETATM   14  C   UNL     1     -42.447  58.703 -52.137  1.00  0.00    -0.010 A 
HETATM   15  C   UNL     1     -41.505  59.497 -51.467  1.00  0.00     0.076 A 
HETATM   16  C   UNL     1     -41.916  60.512 -50.594  1.00  0.00     0.049 A 
HETATM   17  C   UNL     1     -43.279  60.731 -50.330  1.00  0.00    -0.023 A 
HETATM   18  C   UNL     1     -44.240  59.927 -50.975  1.00  0.00    -0.025 A 
HETATM   19  C   UNL     1     -43.709  61.734 -49.447  1.00  0.00     0.012 A 
HETATM   20  C   UNL     1     -43.816  58.940 -51.877  1.00  0.00     0.023 A 
HETATM   21  C   UNL     1     -45.604  60.133 -50.709  1.00  0.00     0.012 A 
HETATM   22  C   UNL     1     -46.014  61.127 -49.822  1.00  0.00     0.001 A 
HETATM   23  C   UNL     1     -45.068  61.931 -49.195  1.00  0.00     0.001 A 
BRANCH  15  24
HETATM   24  O   UNL     1     -40.180  59.298 -51.759  1.00  0.00    -0.355 OA
HETATM   25  C   UNL     1     -39.324  59.504 -50.638  1.00  0.00     0.210 C 
ENDBRANCH  15  24
ENDBRANCH   8  14
BRANCH  12  26
HETATM   26  N   UNL     1     -44.447  56.829 -55.966  1.00  0.00    -0.282 NA
HETATM   27  H   UNL     1     -44.292  56.044 -56.592  1.00  0.00     0.126 HD
HETATM   28  H   UNL     1     -45.433  57.032 -55.813  1.00  0.00     0.126 HD
ENDBRANCH  12  26
TORSDOF 3
ENDMDL
MODEL 9
REMARK VINA RESULT:      -6.7      3.712      6.676
REMARK  3 active torsions:
REMARK  status: ('A' for Active; 'I' for Inactive)
REMARK    1  A    between atoms: C_8  and  C_9 
REMARK    2  A    between atoms: C_10  and  O_11 
REMARK    3  A    between atoms: C_24  and  N_25 
ROOT
HETATM    1  C   UNL     1     -40.158  58.844 -50.988  1.00  0.00     0.070 C 
HETATM    2  C   UNL     1     -41.147  57.750 -51.099  1.00  0.00     0.035 A 
HETATM    3  N   UNL     1     -41.426  56.892 -50.059  1.00  0.00    -0.280 N 
HETATM    4  H   UNL     1     -41.024  56.888 -49.127  1.00  0.00     0.189 HD
HETATM    5  N   UNL     1     -42.337  55.945 -50.364  1.00  0.00    -0.148 NA
HETATM    6  C   UNL     1     -42.636  56.231 -51.624  1.00  0.00     0.199 A 
HETATM    7  C   UNL     1     -41.964  57.346 -52.135  1.00  0.00     0.034 A 
HETATM    8  C   UNL     1     -42.199  57.795 -53.536  1.00  0.00     0.107 C 
HETATM    9  C   UNL     1     -42.956  56.727 -54.306  1.00  0.00     0.067 C 
HETATM   10  C   UNL     1     -42.832  56.745 -55.820  1.00  0.00     0.020 C 
HETATM   11  N   UNL     1     -42.730  56.760 -57.077  1.00  0.00    -0.096 N 
HETATM   12  C   UNL     1     -43.558  55.665 -53.707  1.00  0.00     0.139 C 
HETATM   13  O   UNL     1     -43.497  55.463 -52.318  1.00  0.00    -0.277 OA
ENDROOT
BRANCH   8  14
HETATM   14  C   UNL     1     -42.979  59.101 -53.434  1.00  0.00    -0.010 A 
HETATM   15  C   UNL     1     -42.650  60.194 -54.249  1.00  0.00     0.076 A 
HETATM   16  C   UNL     1     -43.403  61.374 -54.202  1.00  0.00     0.049 A 
HETATM   17  C   UNL     1     -44.476  61.512 -53.307  1.00  0.00    -0.023 A 
HETATM   18  C   UNL     1     -44.807  60.433 -52.461  1.00  0.00    -0.025 A 
HETATM   19  C   UNL     1     -45.233  62.692 -53.236  1.00  0.00     0.012 A 
HETATM   20  C   UNL     1     -44.069  59.243 -52.547  1.00  0.00     0.023 A 
HETATM   21  C   UNL     1     -45.873  60.566 -51.556  1.00  0.00     0.012 A 
HETATM   22  C   UNL     1     -46.609  61.749 -51.491  1.00  0.00     0.001 A 
HETATM   23  C   UNL     1     -46.292  62.809 -52.334  1.00  0.00     0.001 A 
BRANCH  15  24
HETATM   24  O   UNL     1     -41.623  60.035 -55.145  1.00  0.00    -0.355 OA
HETATM   25  C   UNL     1     -42.006  60.313 -56.489  1.00  0.00     0.210 C 
ENDBRANCH  15  24
ENDBRANCH   8  14
BRANCH  12  26
HETATM   26  N   UNL     1     -44.237  54.659 -54.359  1.00  0.00    -0.282 NA
HETATM   27  H   UNL     1     -44.101  54.602 -55.365  1.00  0.00     0.126 HD
HETATM   28  H   UNL     1     -44.133  53.763 -53.889  1.00  0.00     0.126 HD
ENDBRANCH  12  26
TORSDOF 3
ENDMDL
MODEL 10
REMARK VINA RESULT:      -6.5      3.247      6.711
REMARK  3 active torsions:
REMARK  status: ('A' for Active; 'I' for Inactive)
REMARK    1  A    between atoms: C_8  and  C_9 
REMARK    2  A    between atoms: C_10  and  O_11 
REMARK    3  A    between atoms: C_24  and  N_25 
ROOT
HETATM    1  C   UNL     1     -42.911  55.852 -59.535  1.00  0.00     0.070 C 
HETATM    2  C   UNL     1     -43.014  56.371 -58.154  1.00  0.00     0.035 A 
HETATM    3  N   UNL     1     -42.378  55.776 -57.087  1.00  0.00    -0.280 N 
HETATM    4  H   UNL     1     -41.783  54.954 -57.094  1.00  0.00     0.189 HD
HETATM    5  N   UNL     1     -42.615  56.381 -55.905  1.00  0.00    -0.148 NA
HETATM    6  C   UNL     1     -43.412  57.382 -56.252  1.00  0.00     0.199 A 
HETATM    7  C   UNL     1     -43.679  57.457 -57.622  1.00  0.00     0.034 A 
HETATM    8  C   UNL     1     -44.555  58.533 -58.167  1.00  0.00     0.107 C 
HETATM    9  C   UNL     1     -45.285  59.232 -57.034  1.00  0.00     0.067 C 
HETATM   10  C   UNL     1     -46.572  59.961 -57.384  1.00  0.00     0.020 C 
HETATM   11  N   UNL     1     -47.640  60.566 -57.674  1.00  0.00    -0.096 N 
HETATM   12  C   UNL     1     -44.955  59.071 -55.724  1.00  0.00     0.139 C 
HETATM   13  O   UNL     1     -43.920  58.212 -55.320  1.00  0.00    -0.277 OA
ENDROOT
BRANCH   8  14
HETATM   14  C   UNL     1     -43.636  59.475 -58.936  1.00  0.00    -0.010 A 
HETATM   15  C   UNL     1     -43.841  59.712 -60.303  1.00  0.00     0.076 A 
HETATM   16  C   UNL     1     -43.037  60.624 -60.999  1.00  0.00     0.049 A 
HETATM   17  C   UNL     1     -41.977  61.289 -60.360  1.00  0.00    -0.023 A 
HETATM   18  C   UNL     1     -41.740  61.045 -58.992  1.00  0.00    -0.025 A 
HETATM   19  C   UNL     1     -41.153  62.196 -61.045  1.00  0.00     0.012 A 
HETATM   20  C   UNL     1     -42.577  60.159 -58.297  1.00  0.00     0.023 A 
HETATM   21  C   UNL     1     -40.676  61.698 -58.348  1.00  0.00     0.012 A 
HETATM   22  C   UNL     1     -39.860  62.588 -59.045  1.00  0.00     0.001 A 
HETATM   23  C   UNL     1     -40.101  62.841 -60.392  1.00  0.00     0.001 A 
BRANCH  15  24
HETATM   24  O   UNL     1     -44.900  59.085 -60.907  1.00  0.00    -0.355 OA
HETATM   25  C   UNL     1     -46.006  59.955 -61.139  1.00  0.00     0.210 C 
ENDBRANCH  15  24
ENDBRANCH   8  14
BRANCH  12  26
HETATM   26  N   UNL     1     -45.597  59.664 -54.659  1.00  0.00    -0.282 NA
HETATM   27  H   UNL     1     -46.503  59.278 -54.407  1.00  0.00     0.126 HD
HETATM   28  H   UNL     1     -44.978  59.787 -53.862  1.00  0.00     0.126 HD
ENDBRANCH  12  26
TORSDOF 3
ENDMDL
