MODEL 1
REMARK VINA RESULT:      -7.8      0.000      0.000
REMARK  6 active torsions:
REMARK  status: ('A' for Active; 'I' for Inactive)
REMARK    1  A    between atoms: N_2  and  C_4 
REMARK    2  A    between atoms: N_2  and  C_14 
REMARK    3  A    between atoms: C_5  and  O_6 
REMARK    4  A    between atoms: C_14  and  C_15 
REMARK    5  A    between atoms: C_15  and  O_16 
REMARK    6  A    between atoms: C_15  and  C_17 
ROOT
HETATM    1  C   UNL     1     -43.243  53.920 -52.538  1.00  0.00     0.270 C 
HETATM    2  N   UNL     1     -42.259  54.091 -51.411  1.00  0.00    -0.065 N 
HETATM    3  H   UNL     1     -42.349  53.216 -50.855  1.00  0.00     0.280 HD
ENDROOT
BRANCH   2   4
HETATM    4  C   UNL     1     -40.759  54.112 -51.795  1.00  0.00     0.225 C 
HETATM    5  C   UNL     1     -39.946  53.048 -50.992  1.00  0.00     0.183 C 
HETATM    6  C   UNL     1     -39.905  51.906 -51.965  1.00  0.00    -0.021 A 
HETATM    7  C   UNL     1     -40.227  52.345 -53.261  1.00  0.00    -0.047 A 
HETATM    8  C   UNL     1     -39.573  50.581 -51.731  1.00  0.00     0.010 A 
HETATM    9  C   UNL     1     -40.523  53.815 -53.287  1.00  0.00     0.075 C 
HETATM   10  C   UNL     1     -40.223  51.475 -54.337  1.00  0.00     0.008 A 
HETATM   11  C   UNL     1     -39.905  50.137 -54.102  1.00  0.00     0.001 A 
HETATM   12  C   UNL     1     -39.583  49.694 -52.810  1.00  0.00     0.001 A 
BRANCH   5  13
HETATM   13  O   UNL     1     -40.605  52.746 -49.770  1.00  0.00    -0.389 OA
HETATM   14  H   UNL     1     -40.823  53.599 -49.347  1.00  0.00     0.210 HD
ENDBRANCH   5  13
ENDBRANCH   2   4
BRANCH   2  15
HETATM   15  C   UNL     1     -42.639  55.216 -50.457  1.00  0.00     0.271 C 
BRANCH  15  16
HETATM   16  C   UNL     1     -43.063  56.476 -51.244  1.00  0.00     0.177 C 
BRANCH  16  17
HETATM   17  O   UNL     1     -44.013  57.194 -50.448  1.00  0.00    -0.389 OA
HETATM   18  H   UNL     1     -44.175  56.662 -49.644  1.00  0.00     0.210 HD
ENDBRANCH  16  17
BRANCH  16  19
HETATM   19  C   UNL     1     -41.866  57.325 -51.607  1.00  0.00    -0.028 A 
HETATM   20  C   UNL     1     -41.549  57.531 -52.962  1.00  0.00     0.013 A 
HETATM   21  C   UNL     1     -40.421  58.271 -53.321  1.00  0.00     0.043 A 
HETATM   22  C   UNL     1     -39.608  58.807 -52.331  1.00  0.00     0.116 A 
HETATM   23  F   UNL     1     -38.525  59.512 -52.677  1.00  0.00    -0.206 F 
HETATM   24  C   UNL     1     -39.901  58.616 -50.987  1.00  0.00     0.043 A 
HETATM   25  C   UNL     1     -41.026  57.872 -50.623  1.00  0.00     0.013 A 
ENDBRANCH  16  19
ENDBRANCH  15  16
ENDBRANCH   2  15
TORSDOF 6
ENDMDL
MODEL 2
REMARK VINA RESULT:      -7.5      1.529      1.714
REMARK  6 active torsions:
REMARK  status: ('A' for Active; 'I' for Inactive)
REMARK    1  A    between atoms: N_2  and  C_4 
REMARK    2  A    between atoms: N_2  and  C_14 
REMARK    3  A    between atoms: C_5  and  O_6 
REMARK    4  A    between atoms: C_14  and  C_15 
REMARK    5  A    between atoms: C_15  and  O_16 
REMARK    6  A    between atoms: C_15  and  C_17 
ROOT
HETATM    1  C   UNL     1     -43.194  53.912 -52.541  1.00  0.00     0.270 C 
HETATM    2  N   UNL     1     -42.185  54.307 -51.497  1.00  0.00    -0.065 N 
HETATM    3  H   UNL     1     -42.238  53.549 -50.786  1.00  0.00     0.280 HD
ENDROOT
BRANCH   2   4
HETATM    4  C   UNL     1     -40.697  54.285 -51.924  1.00  0.00     0.225 C 
HETATM    5  C   UNL     1     -39.876  53.248 -51.093  1.00  0.00     0.183 C 
HETATM    6  C   UNL     1     -39.881  52.060 -52.010  1.00  0.00    -0.021 A 
HETATM    7  C   UNL     1     -40.234  52.441 -53.315  1.00  0.00    -0.047 A 
HETATM    8  C   UNL     1     -39.561  50.743 -51.720  1.00  0.00     0.010 A 
HETATM    9  C   UNL     1     -40.509  53.912 -53.406  1.00  0.00     0.075 C 
HETATM   10  C   UNL     1     -40.274  51.519 -54.348  1.00  0.00     0.008 A 
HETATM   11  C   UNL     1     -39.970  50.190 -54.057  1.00  0.00     0.001 A 
HETATM   12  C   UNL     1     -39.616  49.805 -52.754  1.00  0.00     0.001 A 
BRANCH   5  13
HETATM   13  O   UNL     1     -40.504  53.016 -49.839  1.00  0.00    -0.389 OA
HETATM   14  H   UNL     1     -41.363  52.591 -50.027  1.00  0.00     0.210 HD
ENDBRANCH   5  13
ENDBRANCH   2   4
BRANCH   2  15
HETATM   15  C   UNL     1     -42.567  55.582 -50.755  1.00  0.00     0.271 C 
BRANCH  15  16
HETATM   16  C   UNL     1     -43.730  56.300 -51.472  1.00  0.00     0.177 C 
BRANCH  16  17
HETATM   17  O   UNL     1     -44.827  56.388 -50.556  1.00  0.00    -0.389 OA
HETATM   18  H   UNL     1     -45.420  57.094 -50.883  1.00  0.00     0.210 HD
ENDBRANCH  16  17
BRANCH  16  19
HETATM   19  C   UNL     1     -43.306  57.658 -51.984  1.00  0.00    -0.028 A 
HETATM   20  C   UNL     1     -44.271  58.528 -52.521  1.00  0.00     0.013 A 
HETATM   21  C   UNL     1     -43.895  59.768 -53.043  1.00  0.00     0.043 A 
HETATM   22  C   UNL     1     -42.558  60.141 -53.030  1.00  0.00     0.116 A 
HETATM   23  F   UNL     1     -42.199  61.327 -53.535  1.00  0.00    -0.206 F 
HETATM   24  C   UNL     1     -41.588  59.298 -52.505  1.00  0.00     0.043 A 
HETATM   25  C   UNL     1     -41.958  58.055 -51.986  1.00  0.00     0.013 A 
ENDBRANCH  16  19
ENDBRANCH  15  16
ENDBRANCH   2  15
TORSDOF 6
ENDMDL
MODEL 3
REMARK VINA RESULT:      -7.4      3.163      6.110
REMARK  6 active torsions:
REMARK  status: ('A' for Active; 'I' for Inactive)
REMARK    1  A    between atoms: N_2  and  C_4 
REMARK    2  A    between atoms: N_2  and  C_14 
REMARK    3  A    between atoms: C_5  and  O_6 
REMARK    4  A    between atoms: C_14  and  C_15 
REMARK    5  A    between atoms: C_15  and  O_16 
REMARK    6  A    between atoms: C_15  and  C_17 
ROOT
HETATM    1  C   UNL     1     -42.803  55.443 -56.906  1.00  0.00     0.270 C 
HETATM    2  N   UNL     1     -42.215  55.494 -55.521  1.00  0.00    -0.065 N 
HETATM    3  H   UNL     1     -41.237  55.817 -55.667  1.00  0.00     0.280 HD
ENDROOT
BRANCH   2   4
HETATM    4  C   UNL     1     -42.796  56.557 -54.557  1.00  0.00     0.225 C 
HETATM    5  C   UNL     1     -43.915  55.957 -53.648  1.00  0.00     0.183 C 
HETATM    6  C   UNL     1     -43.146  55.633 -52.401  1.00  0.00    -0.021 A 
HETATM    7  C   UNL     1     -41.916  56.313 -52.385  1.00  0.00    -0.047 A 
HETATM    8  C   UNL     1     -43.519  54.824 -51.339  1.00  0.00     0.010 A 
HETATM    9  C   UNL     1     -41.733  57.150 -53.615  1.00  0.00     0.075 C 
HETATM   10  C   UNL     1     -41.044  56.198 -51.316  1.00  0.00     0.008 A 
HETATM   11  C   UNL     1     -41.409  55.371 -50.254  1.00  0.00     0.001 A 
HETATM   12  C   UNL     1     -42.636  54.690 -50.265  1.00  0.00     0.001 A 
BRANCH   5  13
HETATM   13  O   UNL     1     -44.505  54.826 -54.276  1.00  0.00    -0.389 OA
HETATM   14  H   UNL     1     -44.225  54.845 -55.212  1.00  0.00     0.210 HD
ENDBRANCH   5  13
ENDBRANCH   2   4
BRANCH   2  15
HETATM   15  C   UNL     1     -42.093  54.118 -54.878  1.00  0.00     0.271 C 
BRANCH  15  16
HETATM   16  C   UNL     1     -40.678  53.541 -55.094  1.00  0.00     0.177 C 
BRANCH  16  17
HETATM   17  O   UNL     1     -39.758  54.637 -55.150  1.00  0.00    -0.389 OA
HETATM   18  H   UNL     1     -38.859  54.263 -55.059  1.00  0.00     0.210 HD
ENDBRANCH  16  17
BRANCH  16  19
HETATM   19  C   UNL     1     -40.317  52.550 -54.010  1.00  0.00    -0.028 A 
HETATM   20  C   UNL     1     -40.197  52.992 -52.680  1.00  0.00     0.013 A 
HETATM   21  C   UNL     1     -39.818  52.105 -51.671  1.00  0.00     0.043 A 
HETATM   22  C   UNL     1     -39.559  50.777 -51.984  1.00  0.00     0.116 A 
HETATM   23  F   UNL     1     -39.192  49.930 -51.017  1.00  0.00    -0.206 F 
HETATM   24  C   UNL     1     -39.672  50.319 -53.291  1.00  0.00     0.043 A 
HETATM   25  C   UNL     1     -40.046  51.204 -54.305  1.00  0.00     0.013 A 
ENDBRANCH  16  19
ENDBRANCH  15  16
ENDBRANCH   2  15
TORSDOF 6
ENDMDL
MODEL 4
REMARK VINA RESULT:      -7.3      6.147      8.162
REMARK  6 active torsions:
REMARK  status: ('A' for Active; 'I' for Inactive)
REMARK    1  A    between atoms: N_2  and  C_4 
REMARK    2  A    between atoms: N_2  and  C_14 
REMARK    3  A    between atoms: C_5  and  O_6 
REMARK    4  A    between atoms: C_14  and  C_15 
REMARK    5  A    between atoms: C_15  and  O_16 
REMARK    6  A    between atoms: C_15  and  C_17 
ROOT
HETATM    1  C   UNL     1     -44.063  57.442 -56.284  1.00  0.00     0.270 C 
HETATM    2  N   UNL     1     -43.546  56.227 -57.004  1.00  0.00    -0.065 N 
HETATM    3  H   UNL     1     -44.361  55.581 -57.041  1.00  0.00     0.280 HD
ENDROOT
BRANCH   2   4
HETATM    4  C   UNL     1     -43.174  56.408 -58.497  1.00  0.00     0.225 C 
HETATM    5  C   UNL     1     -43.927  55.385 -59.405  1.00  0.00     0.183 C 
HETATM    6  C   UNL     1     -45.096  56.202 -59.872  1.00  0.00    -0.021 A 
HETATM    7  C   UNL     1     -44.860  57.571 -59.663  1.00  0.00    -0.047 A 
HETATM    8  C   UNL     1     -46.269  55.772 -60.472  1.00  0.00     0.010 A 
HETATM    9  C   UNL     1     -43.521  57.810 -59.030  1.00  0.00     0.075 C 
HETATM   10  C   UNL     1     -45.784  58.528 -60.046  1.00  0.00     0.008 A 
HETATM   11  C   UNL     1     -46.973  58.097 -60.634  1.00  0.00     0.001 A 
HETATM   12  C   UNL     1     -47.213  56.730 -60.845  1.00  0.00     0.001 A 
BRANCH   5  13
HETATM   13  O   UNL     1     -44.288  54.233 -58.653  1.00  0.00    -0.389 OA
HETATM   14  H   UNL     1     -43.945  54.367 -57.748  1.00  0.00     0.210 HD
ENDBRANCH   5  13
ENDBRANCH   2   4
BRANCH   2  15
HETATM   15  C   UNL     1     -42.476  55.481 -56.217  1.00  0.00     0.271 C 
BRANCH  15  16
HETATM   16  C   UNL     1     -43.124  54.508 -55.207  1.00  0.00     0.177 C 
BRANCH  16  17
HETATM   17  O   UNL     1     -43.809  53.493 -55.950  1.00  0.00    -0.389 OA
HETATM   18  H   UNL     1     -44.490  53.115 -55.358  1.00  0.00     0.210 HD
ENDBRANCH  16  17
BRANCH  16  19
HETATM   19  C   UNL     1     -42.093  53.928 -54.265  1.00  0.00    -0.028 A 
HETATM   20  C   UNL     1     -41.087  53.087 -54.773  1.00  0.00     0.013 A 
HETATM   21  C   UNL     1     -40.154  52.501 -53.916  1.00  0.00     0.043 A 
HETATM   22  C   UNL     1     -40.222  52.752 -52.552  1.00  0.00     0.116 A 
HETATM   23  F   UNL     1     -39.330  52.186 -51.731  1.00  0.00    -0.206 F 
HETATM   24  C   UNL     1     -41.208  53.579 -52.028  1.00  0.00     0.043 A 
HETATM   25  C   UNL     1     -42.147  54.163 -52.881  1.00  0.00     0.013 A 
ENDBRANCH  16  19
ENDBRANCH  15  16
ENDBRANCH   2  15
TORSDOF 6
ENDMDL
MODEL 5
REMARK VINA RESULT:      -7.1      4.215      5.237
REMARK  6 active torsions:
REMARK  status: ('A' for Active; 'I' for Inactive)
REMARK    1  A    between atoms: N_2  and  C_4 
REMARK    2  A    between atoms: N_2  and  C_14 
REMARK    3  A    between atoms: C_5  and  O_6 
REMARK    4  A    between atoms: C_14  and  C_15 
REMARK    5  A    between atoms: C_15  and  O_16 
REMARK    6  A    between atoms: C_15  and  C_17 
ROOT
HETATM    1  C   UNL     1     -41.141  56.791 -52.801  1.00  0.00     0.270 C 
HETATM    2  N   UNL     1     -41.747  56.276 -54.079  1.00  0.00    -0.065 N 
HETATM    3  H   UNL     1     -40.929  56.055 -54.683  1.00  0.00     0.280 HD
ENDROOT
BRANCH   2   4
HETATM    4  C   UNL     1     -42.500  54.925 -53.998  1.00  0.00     0.225 C 
HETATM    5  C   UNL     1     -41.697  53.778 -54.689  1.00  0.00     0.183 C 
HETATM    6  C   UNL     1     -40.997  53.154 -53.518  1.00  0.00    -0.021 A 
HETATM    7  C   UNL     1     -41.601  53.546 -52.311  1.00  0.00    -0.047 A 
HETATM    8  C   UNL     1     -39.925  52.275 -53.518  1.00  0.00     0.010 A 
HETATM    9  C   UNL     1     -42.755  54.474 -52.548  1.00  0.00     0.075 C 
HETATM   10  C   UNL     1     -41.149  53.071 -51.092  1.00  0.00     0.008 A 
HETATM   11  C   UNL     1     -40.060  52.200 -51.087  1.00  0.00     0.001 A 
HETATM   12  C   UNL     1     -39.453  51.805 -52.290  1.00  0.00     0.001 A 
BRANCH   5  13
HETATM   13  O   UNL     1     -40.821  54.315 -55.671  1.00  0.00    -0.389 OA
HETATM   14  H   UNL     1     -40.148  53.630 -55.855  1.00  0.00     0.210 HD
ENDBRANCH   5  13
ENDBRANCH   2   4
BRANCH   2  15
HETATM   15  C   UNL     1     -42.529  57.342 -54.836  1.00  0.00     0.271 C 
BRANCH  15  16
HETATM   16  C   UNL     1     -43.380  56.701 -55.954  1.00  0.00     0.177 C 
BRANCH  16  17
HETATM   17  O   UNL     1     -44.745  57.079 -55.742  1.00  0.00    -0.389 OA
HETATM   18  H   UNL     1     -45.195  56.313 -55.333  1.00  0.00     0.210 HD
ENDBRANCH  16  17
BRANCH  16  19
HETATM   19  C   UNL     1     -42.883  57.105 -57.323  1.00  0.00    -0.028 A 
HETATM   20  C   UNL     1     -42.344  58.391 -57.512  1.00  0.00     0.013 A 
HETATM   21  C   UNL     1     -41.924  58.803 -58.778  1.00  0.00     0.043 A 
HETATM   22  C   UNL     1     -42.038  57.936 -59.857  1.00  0.00     0.116 A 
HETATM   23  F   UNL     1     -41.638  58.335 -61.069  1.00  0.00    -0.206 F 
HETATM   24  C   UNL     1     -42.566  56.662 -59.693  1.00  0.00     0.043 A 
HETATM   25  C   UNL     1     -42.994  56.246 -58.429  1.00  0.00     0.013 A 
ENDBRANCH  16  19
ENDBRANCH  15  16
ENDBRANCH   2  15
TORSDOF 6
ENDMDL
MODEL 6
REMARK VINA RESULT:      -7.1     14.043     16.225
REMARK  6 active torsions:
REMARK  status: ('A' for Active; 'I' for Inactive)
REMARK    1  A    between atoms: N_2  and  C_4 
REMARK    2  A    between atoms: N_2  and  C_14 
REMARK    3  A    between atoms: C_5  and  O_6 
REMARK    4  A    between atoms: C_14  and  C_15 
REMARK    5  A    between atoms: C_15  and  O_16 
REMARK    6  A    between atoms: C_15  and  C_17 
ROOT
HETATM    1  C   UNL     1     -35.704  42.579 -52.923  1.00  0.00     0.270 C 
HETATM    2  N   UNL     1     -35.099  41.867 -54.103  1.00  0.00    -0.065 N 
HETATM    3  H   UNL     1     -34.139  42.261 -54.178  1.00  0.00     0.280 HD
ENDROOT
BRANCH   2   4
HETATM    4  C   UNL     1     -34.844  40.348 -53.942  1.00  0.00     0.225 C 
HETATM    5  C   UNL     1     -33.317  40.022 -53.916  1.00  0.00     0.183 C 
HETATM    6  C   UNL     1     -33.051  39.951 -52.441  1.00  0.00    -0.021 A 
HETATM    7  C   UNL     1     -34.252  39.810 -51.726  1.00  0.00    -0.047 A 
HETATM    8  C   UNL     1     -31.834  39.975 -51.779  1.00  0.00     0.010 A 
HETATM    9  C   UNL     1     -35.439  39.779 -52.641  1.00  0.00     0.075 C 
HETATM   10  C   UNL     1     -34.259  39.690 -50.346  1.00  0.00     0.008 A 
HETATM   11  C   UNL     1     -33.037  39.731 -49.675  1.00  0.00     0.001 A 
HETATM   12  C   UNL     1     -31.835  39.872 -50.386  1.00  0.00     0.001 A 
BRANCH   5  13
HETATM   13  O   UNL     1     -32.586  41.038 -54.590  1.00  0.00    -0.389 OA
HETATM   14  H   UNL     1     -32.099  40.601 -55.316  1.00  0.00     0.210 HD
ENDBRANCH   5  13
ENDBRANCH   2   4
BRANCH   2  15
HETATM   15  C   UNL     1     -35.782  42.214 -55.420  1.00  0.00     0.271 C 
BRANCH  15  16
HETATM   16  C   UNL     1     -36.976  41.270 -55.678  1.00  0.00     0.177 C 
BRANCH  16  17
HETATM   17  O   UNL     1     -38.147  41.876 -55.117  1.00  0.00    -0.389 OA
HETATM   18  H   UNL     1     -38.893  41.266 -55.283  1.00  0.00     0.210 HD
ENDBRANCH  16  17
BRANCH  16  19
HETATM   19  C   UNL     1     -37.136  40.977 -57.152  1.00  0.00    -0.028 A 
HETATM   20  C   UNL     1     -36.921  42.004 -58.089  1.00  0.00     0.013 A 
HETATM   21  C   UNL     1     -37.110  41.769 -59.453  1.00  0.00     0.043 A 
HETATM   22  C   UNL     1     -37.513  40.513 -59.884  1.00  0.00     0.116 A 
HETATM   23  F   UNL     1     -37.698  40.292 -61.191  1.00  0.00    -0.206 F 
HETATM   24  C   UNL     1     -37.732  39.484 -58.977  1.00  0.00     0.043 A 
HETATM   25  C   UNL     1     -37.549  39.715 -57.611  1.00  0.00     0.013 A 
ENDBRANCH  16  19
ENDBRANCH  15  16
ENDBRANCH   2  15
TORSDOF 6
ENDMDL
MODEL 7
REMARK VINA RESULT:      -7.0      4.836      7.010
REMARK  6 active torsions:
REMARK  status: ('A' for Active; 'I' for Inactive)
REMARK    1  A    between atoms: N_2  and  C_4 
REMARK    2  A    between atoms: N_2  and  C_14 
REMARK    3  A    between atoms: C_5  and  O_6 
REMARK    4  A    between atoms: C_14  and  C_15 
REMARK    5  A    between atoms: C_15  and  O_16 
REMARK    6  A    between atoms: C_15  and  C_17 
ROOT
HETATM    1  C   UNL     1     -44.857  57.429 -54.764  1.00  0.00     0.270 C 
HETATM    2  N   UNL     1     -43.970  56.242 -55.026  1.00  0.00    -0.065 N 
HETATM    3  H   UNL     1     -44.589  55.558 -55.507  1.00  0.00     0.280 HD
ENDROOT
BRANCH   2   4
HETATM    4  C   UNL     1     -42.816  56.446 -56.038  1.00  0.00     0.225 C 
HETATM    5  C   UNL     1     -42.879  55.402 -57.198  1.00  0.00     0.183 C 
HETATM    6  C   UNL     1     -43.595  56.181 -58.263  1.00  0.00    -0.021 A 
HETATM    7  C   UNL     1     -43.567  57.556 -57.977  1.00  0.00    -0.047 A 
HETATM    8  C   UNL     1     -44.198  55.713 -59.420  1.00  0.00     0.010 A 
HETATM    9  C   UNL     1     -42.841  57.838 -56.695  1.00  0.00     0.075 C 
HETATM   10  C   UNL     1     -44.136  58.482 -58.835  1.00  0.00     0.008 A 
HETATM   11  C   UNL     1     -44.758  58.013 -59.991  1.00  0.00     0.001 A 
HETATM   12  C   UNL     1     -44.789  56.640 -60.281  1.00  0.00     0.001 A 
BRANCH   5  13
HETATM   13  O   UNL     1     -43.567  54.234 -56.771  1.00  0.00    -0.389 OA
HETATM   14  H   UNL     1     -44.275  54.528 -56.165  1.00  0.00     0.210 HD
ENDBRANCH   5  13
ENDBRANCH   2   4
BRANCH   2  15
HETATM   15  C   UNL     1     -43.517  55.546 -53.748  1.00  0.00     0.271 C 
BRANCH  15  16
HETATM   16  C   UNL     1     -41.997  55.727 -53.541  1.00  0.00     0.177 C 
BRANCH  16  17
HETATM   17  O   UNL     1     -41.805  56.585 -52.411  1.00  0.00    -0.389 OA
HETATM   18  H   UNL     1     -42.532  57.239 -52.420  1.00  0.00     0.210 HD
ENDBRANCH  16  17
BRANCH  16  19
HETATM   19  C   UNL     1     -41.304  54.395 -53.369  1.00  0.00    -0.028 A 
HETATM   20  C   UNL     1     -40.935  53.967 -52.081  1.00  0.00     0.013 A 
HETATM   21  C   UNL     1     -40.251  52.763 -51.903  1.00  0.00     0.043 A 
HETATM   22  C   UNL     1     -39.935  51.983 -53.007  1.00  0.00     0.116 A 
HETATM   23  F   UNL     1     -39.275  50.832 -52.835  1.00  0.00    -0.206 F 
HETATM   24  C   UNL     1     -40.289  52.385 -54.289  1.00  0.00     0.043 A 
HETATM   25  C   UNL     1     -40.969  53.592 -54.473  1.00  0.00     0.013 A 
ENDBRANCH  16  19
ENDBRANCH  15  16
ENDBRANCH   2  15
TORSDOF 6
ENDMDL
MODEL 8
REMARK VINA RESULT:      -7.0      2.859      3.371
REMARK  6 active torsions:
REMARK  status: ('A' for Active; 'I' for Inactive)
REMARK    1  A    between atoms: N_2  and  C_4 
REMARK    2  A    between atoms: N_2  and  C_14 
REMARK    3  A    between atoms: C_5  and  O_6 
REMARK    4  A    between atoms: C_14  and  C_15 
REMARK    5  A    between atoms: C_15  and  O_16 
REMARK    6  A    between atoms: C_15  and  C_17 
ROOT
HETATM    1  C   UNL     1     -43.026  53.563 -54.807  1.00  0.00     0.270 C 
HETATM    2  N   UNL     1     -42.375  54.373 -53.718  1.00  0.00    -0.065 N 
HETATM    3  H   UNL     1     -42.661  53.900 -52.837  1.00  0.00     0.280 HD
ENDROOT
BRANCH   2   4
HETATM    4  C   UNL     1     -40.828  54.333 -53.652  1.00  0.00     0.225 C 
HETATM    5  C   UNL     1     -40.325  53.879 -52.246  1.00  0.00     0.183 C 
HETATM    6  C   UNL     1     -40.087  52.414 -52.472  1.00  0.00    -0.021 A 
HETATM    7  C   UNL     1     -40.020  52.128 -53.846  1.00  0.00    -0.047 A 
HETATM    8  C   UNL     1     -39.907  51.412 -51.532  1.00  0.00     0.010 A 
HETATM    9  C   UNL     1     -40.214  53.361 -54.676  1.00  0.00     0.075 C 
HETATM   10  C   UNL     1     -39.774  50.845 -54.302  1.00  0.00     0.008 A 
HETATM   11  C   UNL     1     -39.609  49.830 -53.360  1.00  0.00     0.001 A 
HETATM   12  C   UNL     1     -39.675  50.111 -51.986  1.00  0.00     0.001 A 
BRANCH   5  13
HETATM   13  O   UNL     1     -41.307  54.162 -51.257  1.00  0.00    -0.389 OA
HETATM   14  H   UNL     1     -41.600  55.082 -51.405  1.00  0.00     0.210 HD
ENDBRANCH   5  13
ENDBRANCH   2   4
BRANCH   2  15
HETATM   15  C   UNL     1     -42.933  55.787 -53.616  1.00  0.00     0.271 C 
BRANCH  15  16
HETATM   16  C   UNL     1     -43.809  56.115 -54.844  1.00  0.00     0.177 C 
BRANCH  16  17
HETATM   17  O   UNL     1     -45.120  56.449 -54.374  1.00  0.00    -0.389 OA
HETATM   18  H   UNL     1     -45.759  55.978 -54.946  1.00  0.00     0.210 HD
ENDBRANCH  16  17
BRANCH  16  19
HETATM   19  C   UNL     1     -43.201  57.224 -55.672  1.00  0.00    -0.028 A 
HETATM   20  C   UNL     1     -42.882  56.986 -57.021  1.00  0.00     0.013 A 
HETATM   21  C   UNL     1     -42.275  57.980 -57.791  1.00  0.00     0.043 A 
HETATM   22  C   UNL     1     -41.987  59.212 -57.220  1.00  0.00     0.116 A 
HETATM   23  F   UNL     1     -41.401  60.161 -57.958  1.00  0.00    -0.206 F 
HETATM   24  C   UNL     1     -42.293  59.469 -55.890  1.00  0.00     0.043 A 
HETATM   25  C   UNL     1     -42.895  58.476 -55.113  1.00  0.00     0.013 A 
ENDBRANCH  16  19
ENDBRANCH  15  16
ENDBRANCH   2  15
TORSDOF 6
ENDMDL
MODEL 9
REMARK VINA RESULT:      -6.9      5.642      6.863
REMARK  6 active torsions:
REMARK  status: ('A' for Active; 'I' for Inactive)
REMARK    1  A    between atoms: N_2  and  C_4 
REMARK    2  A    between atoms: N_2  and  C_14 
REMARK    3  A    between atoms: C_5  and  O_6 
REMARK    4  A    between atoms: C_14  and  C_15 
REMARK    5  A    between atoms: C_15  and  O_16 
REMARK    6  A    between atoms: C_15  and  C_17 
ROOT
HETATM    1  C   UNL     1     -41.856  57.874 -54.523  1.00  0.00     0.270 C 
HETATM    2  N   UNL     1     -42.882  57.010 -55.204  1.00  0.00    -0.065 N 
HETATM    3  H   UNL     1     -42.330  56.415 -55.855  1.00  0.00     0.280 HD
ENDROOT
BRANCH   2   4
HETATM    4  C   UNL     1     -43.617  55.973 -54.318  1.00  0.00     0.225 C 
HETATM    5  C   UNL     1     -43.443  54.522 -54.868  1.00  0.00     0.183 C 
HETATM    6  C   UNL     1     -42.296  54.023 -54.038  1.00  0.00    -0.021 A 
HETATM    7  C   UNL     1     -42.111  54.836 -52.907  1.00  0.00    -0.047 A 
HETATM    8  C   UNL     1     -41.496  52.911 -54.247  1.00  0.00     0.010 A 
HETATM    9  C   UNL     1     -43.101  55.960 -52.867  1.00  0.00     0.075 C 
HETATM   10  C   UNL     1     -41.130  54.554 -51.971  1.00  0.00     0.008 A 
HETATM   11  C   UNL     1     -40.312  53.445 -52.187  1.00  0.00     0.001 A 
HETATM   12  C   UNL     1     -40.494  52.630 -53.315  1.00  0.00     0.001 A 
BRANCH   5  13
HETATM   13  O   UNL     1     -43.178  54.554 -56.264  1.00  0.00    -0.389 OA
HETATM   14  H   UNL     1     -44.034  54.426 -56.717  1.00  0.00     0.210 HD
ENDBRANCH   5  13
ENDBRANCH   2   4
BRANCH   2  15
HETATM   15  C   UNL     1     -43.832  57.804 -56.092  1.00  0.00     0.271 C 
BRANCH  15  16
HETATM   16  C   UNL     1     -43.426  57.673 -57.576  1.00  0.00     0.177 C 
BRANCH  16  17
HETATM   17  O   UNL     1     -42.334  56.749 -57.654  1.00  0.00    -0.389 OA
HETATM   18  H   UNL     1     -41.833  56.965 -58.466  1.00  0.00     0.210 HD
ENDBRANCH  16  17
BRANCH  16  19
HETATM   19  C   UNL     1     -44.597  57.244 -58.430  1.00  0.00    -0.028 A 
HETATM   20  C   UNL     1     -44.415  56.245 -59.404  1.00  0.00     0.013 A 
HETATM   21  C   UNL     1     -45.470  55.867 -60.237  1.00  0.00     0.043 A 
HETATM   22  C   UNL     1     -46.707  56.482 -60.101  1.00  0.00     0.116 A 
HETATM   23  F   UNL     1     -47.715  56.122 -60.903  1.00  0.00    -0.206 F 
HETATM   24  C   UNL     1     -46.909  57.471 -59.146  1.00  0.00     0.043 A 
HETATM   25  C   UNL     1     -45.856  57.856 -58.313  1.00  0.00     0.013 A 
ENDBRANCH  16  19
ENDBRANCH  15  16
ENDBRANCH   2  15
TORSDOF 6
ENDMDL
MODEL 10
REMARK VINA RESULT:      -6.9     14.486     15.899
REMARK  6 active torsions:
REMARK  status: ('A' for Active; 'I' for Inactive)
REMARK    1  A    between atoms: N_2  and  C_4 
REMARK    2  A    between atoms: N_2  and  C_14 
REMARK    3  A    between atoms: C_5  and  O_6 
REMARK    4  A    between atoms: C_14  and  C_15 
REMARK    5  A    between atoms: C_15  and  O_16 
REMARK    6  A    between atoms: C_15  and  C_17 
ROOT
HETATM    1  C   UNL     1     -34.332  40.781 -54.110  1.00  0.00     0.270 C 
HETATM    2  N   UNL     1     -35.763  41.074 -53.745  1.00  0.00    -0.065 N 
HETATM    3  H   UNL     1     -36.217  40.139 -53.707  1.00  0.00     0.280 HD
ENDROOT
BRANCH   2   4
HETATM    4  C   UNL     1     -36.015  41.646 -52.328  1.00  0.00     0.225 C 
HETATM    5  C   UNL     1     -36.720  40.602 -51.405  1.00  0.00     0.183 C 
HETATM    6  C   UNL     1     -35.550  40.016 -50.669  1.00  0.00    -0.021 A 
HETATM    7  C   UNL     1     -34.423  40.846 -50.786  1.00  0.00    -0.047 A 
HETATM    8  C   UNL     1     -35.494  38.851 -49.921  1.00  0.00     0.010 A 
HETATM    9  C   UNL     1     -34.716  42.061 -51.614  1.00  0.00     0.075 C 
HETATM   10  C   UNL     1     -33.228  40.529 -50.162  1.00  0.00     0.008 A 
HETATM   11  C   UNL     1     -33.163  39.349 -49.422  1.00  0.00     0.001 A 
HETATM   12  C   UNL     1     -34.287  38.517 -49.302  1.00  0.00     0.001 A 
BRANCH   5  13
HETATM   13  O   UNL     1     -37.443  39.662 -52.188  1.00  0.00    -0.389 OA
HETATM   14  H   UNL     1     -38.228  40.129 -52.537  1.00  0.00     0.210 HD
ENDBRANCH   5  13
ENDBRANCH   2   4
BRANCH   2  15
HETATM   15  C   UNL     1     -36.507  41.841 -54.831  1.00  0.00     0.271 C 
BRANCH  15  16
HETATM   16  C   UNL     1     -37.695  41.011 -55.364  1.00  0.00     0.177 C 
BRANCH  16  17
HETATM   17  O   UNL     1     -38.904  41.622 -54.899  1.00  0.00    -0.389 OA
HETATM   18  H   UNL     1     -38.671  42.164 -54.119  1.00  0.00     0.210 HD
ENDBRANCH  16  17
BRANCH  16  19
HETATM   19  C   UNL     1     -37.656  40.900 -56.871  1.00  0.00    -0.028 A 
HETATM   20  C   UNL     1     -38.101  39.718 -57.490  1.00  0.00     0.013 A 
HETATM   21  C   UNL     1     -38.029  39.575 -58.877  1.00  0.00     0.043 A 
HETATM   22  C   UNL     1     -37.514  40.608 -59.649  1.00  0.00     0.116 A 
HETATM   23  F   UNL     1     -37.441  40.466 -60.977  1.00  0.00    -0.206 F 
HETATM   24  C   UNL     1     -37.068  41.783 -59.058  1.00  0.00     0.043 A 
HETATM   25  C   UNL     1     -37.133  41.930 -57.671  1.00  0.00     0.013 A 
ENDBRANCH  16  19
ENDBRANCH  15  16
ENDBRANCH   2  15
TORSDOF 6
ENDMDL
