MODEL 1
REMARK VINA RESULT:      -8.8      0.000      0.000
REMARK  5 active torsions:
REMARK  status: ('A' for Active; 'I' for Inactive)
REMARK    1  A    between atoms: C_8  and  C_9 
REMARK    2  A    between atoms: C_9  and  N_10 
REMARK    3  A    between atoms: N_13  and  C_15 
REMARK    4  A    between atoms: C_15  and  C_16 
REMARK    5  A    between atoms: C_19  and  C_20 
ROOT
HETATM    1  N   UNL     1     -41.763  57.172 -53.800  1.00  0.00    -0.405 N 
HETATM    2  C   UNL     1     -41.172  57.778 -52.599  1.00  0.00     0.150 C 
HETATM    3  C   UNL     1     -42.058  58.080 -51.354  1.00  0.00     0.206 C 
HETATM    4  N   UNL     1     -42.285  56.852 -50.473  1.00  0.00    -0.059 N 
HETATM    5  H   UNL     1     -42.825  57.216 -49.675  1.00  0.00     0.280 HD
HETATM    6  C   UNL     1     -43.156  55.792 -51.097  1.00  0.00     0.242 C 
HETATM    7  C   UNL     1     -43.760  56.244 -52.428  1.00  0.00     0.029 C 
HETATM    8  C   UNL     1     -42.750  56.113 -53.586  1.00  0.00     0.123 C 
HETATM    9  C   UNL     1     -43.433  58.661 -51.693  1.00  0.00     0.035 C 
HETATM   10  C   UNL     1     -44.380  57.639 -52.320  1.00  0.00     0.010 C 
ENDROOT
BRANCH   4  11
HETATM   11  C   UNL     1     -41.044  56.254 -49.808  1.00  0.00     0.302 C 
BRANCH  11  12
HETATM   12  C   UNL     1     -40.712  54.897 -50.284  1.00  0.00     0.107 A 
HETATM   13  O   UNL     1     -40.782  53.920 -49.346  1.00  0.00    -0.216 OA
HETATM   14  N   UNL     1     -40.583  52.700 -49.935  1.00  0.00    -0.128 NA
HETATM   15  C   UNL     1     -40.316  52.931 -51.233  1.00  0.00     0.097 A 
HETATM   16  C   UNL     1     -40.384  54.332 -51.492  1.00  0.00     0.071 A 
BRANCH  15  17
HETATM   17  C   UNL     1     -40.054  51.845 -52.176  1.00  0.00    -0.005 A 
HETATM   18  C   UNL     1     -39.657  50.581 -51.711  1.00  0.00     0.014 A 
HETATM   19  C   UNL     1     -39.433  49.530 -52.603  1.00  0.00     0.001 A 
HETATM   20  C   UNL     1     -39.596  49.732 -53.972  1.00  0.00     0.000 A 
HETATM   21  C   UNL     1     -39.979  50.983 -54.449  1.00  0.00     0.001 A 
HETATM   22  C   UNL     1     -40.208  52.035 -53.557  1.00  0.00     0.014 A 
ENDBRANCH  15  17
ENDBRANCH  11  12
ENDBRANCH   4  11
BRANCH   1  23
HETATM   23  C   UNL     1     -42.137  58.139 -54.854  1.00  0.00     0.176 C 
BRANCH  23  24
HETATM   24  C   UNL     1     -42.839  57.502 -56.016  1.00  0.00     0.050 A 
HETATM   25  C   UNL     1     -44.160  57.530 -56.430  1.00  0.00     0.030 A 
HETATM   26  C   UNL     1     -45.349  58.205 -55.879  1.00  0.00     0.070 C 
HETATM   27  N   UNL     1     -44.215  56.726 -57.562  1.00  0.00    -0.354 N 
HETATM   28  H   UNL     1     -45.059  56.532 -58.100  1.00  0.00     0.166 HD
HETATM   29  C   UNL     1     -43.019  56.208 -57.850  1.00  0.00     0.180 A 
HETATM   30  N   UNL     1     -42.181  56.682 -56.929  1.00  0.00    -0.353 N 
HETATM   31  H   UNL     1     -41.188  56.464 -56.872  1.00  0.00     0.166 HD
ENDBRANCH  23  24
ENDBRANCH   1  23
TORSDOF 5
ENDMDL
MODEL 2
REMARK VINA RESULT:      -8.4      2.019      3.019
REMARK  5 active torsions:
REMARK  status: ('A' for Active; 'I' for Inactive)
REMARK    1  A    between atoms: C_8  and  C_9 
REMARK    2  A    between atoms: C_9  and  N_10 
REMARK    3  A    between atoms: N_13  and  C_15 
REMARK    4  A    between atoms: C_15  and  C_16 
REMARK    5  A    between atoms: C_19  and  C_20 
ROOT
HETATM    1  N   UNL     1     -42.998  57.568 -56.403  1.00  0.00    -0.405 N 
HETATM    2  C   UNL     1     -42.148  58.359 -55.503  1.00  0.00     0.150 C 
HETATM    3  C   UNL     1     -42.705  58.869 -54.141  1.00  0.00     0.206 C 
HETATM    4  N   UNL     1     -42.664  57.805 -53.044  1.00  0.00    -0.059 N 
HETATM    5  H   UNL     1     -43.000  58.300 -52.206  1.00  0.00     0.280 HD
HETATM    6  C   UNL     1     -43.627  56.664 -53.249  1.00  0.00     0.242 C 
HETATM    7  C   UNL     1     -44.558  56.894 -54.441  1.00  0.00     0.029 C 
HETATM    8  C   UNL     1     -43.865  56.567 -55.779  1.00  0.00     0.123 C 
HETATM    9  C   UNL     1     -44.140  59.398 -54.213  1.00  0.00     0.035 C 
HETATM   10  C   UNL     1     -45.178  58.293 -54.408  1.00  0.00     0.010 C 
ENDROOT
BRANCH   4  11
HETATM   11  C   UNL     1     -41.276  57.315 -52.625  1.00  0.00     0.302 C 
BRANCH  11  12
HETATM   12  C   UNL     1     -40.993  55.925 -53.028  1.00  0.00     0.107 A 
HETATM   13  O   UNL     1     -40.605  55.761 -54.317  1.00  0.00    -0.216 OA
HETATM   14  N   UNL     1     -40.247  54.456 -54.529  1.00  0.00    -0.128 NA
HETATM   15  C   UNL     1     -40.485  53.795 -53.384  1.00  0.00     0.097 A 
HETATM   16  C   UNL     1     -40.971  54.705 -52.398  1.00  0.00     0.071 A 
BRANCH  15  17
HETATM   17  C   UNL     1     -40.212  52.365 -53.242  1.00  0.00    -0.005 A 
HETATM   18  C   UNL     1     -40.343  51.505 -54.346  1.00  0.00     0.014 A 
HETATM   19  C   UNL     1     -40.056  50.144 -54.227  1.00  0.00     0.001 A 
HETATM   20  C   UNL     1     -39.642  49.623 -53.002  1.00  0.00     0.000 A 
HETATM   21  C   UNL     1     -39.518  50.462 -51.897  1.00  0.00     0.001 A 
HETATM   22  C   UNL     1     -39.800  51.825 -52.015  1.00  0.00     0.014 A 
ENDBRANCH  15  17
ENDBRANCH  11  12
ENDBRANCH   4  11
BRANCH   1  23
HETATM   23  C   UNL     1     -43.655  58.350 -57.471  1.00  0.00     0.176 C 
BRANCH  23  24
HETATM   24  C   UNL     1     -44.604  57.537 -58.298  1.00  0.00     0.050 A 
HETATM   25  C   UNL     1     -44.402  56.493 -59.186  1.00  0.00     0.030 A 
HETATM   26  C   UNL     1     -43.176  55.804 -59.630  1.00  0.00     0.070 C 
HETATM   27  N   UNL     1     -45.662  56.160 -59.667  1.00  0.00    -0.354 N 
HETATM   28  H   UNL     1     -45.851  55.429 -60.353  1.00  0.00     0.166 HD
HETATM   29  C   UNL     1     -46.607  56.938 -59.137  1.00  0.00     0.180 A 
HETATM   30  N   UNL     1     -45.979  57.763 -58.300  1.00  0.00    -0.353 N 
HETATM   31  H   UNL     1     -46.427  58.488 -57.743  1.00  0.00     0.166 HD
ENDBRANCH  23  24
ENDBRANCH   1  23
TORSDOF 5
ENDMDL
MODEL 3
REMARK VINA RESULT:      -7.9      1.428      2.201
REMARK  5 active torsions:
REMARK  status: ('A' for Active; 'I' for Inactive)
REMARK    1  A    between atoms: C_8  and  C_9 
REMARK    2  A    between atoms: C_9  and  N_10 
REMARK    3  A    between atoms: N_13  and  C_15 
REMARK    4  A    between atoms: C_15  and  C_16 
REMARK    5  A    between atoms: C_19  and  C_20 
ROOT
HETATM    1  N   UNL     1     -44.520  58.154 -54.433  1.00  0.00    -0.405 N 
HETATM    2  C   UNL     1     -43.508  57.142 -54.101  1.00  0.00     0.150 C 
HETATM    3  C   UNL     1     -42.205  57.548 -53.351  1.00  0.00     0.206 C 
HETATM    4  N   UNL     1     -42.401  57.671 -51.840  1.00  0.00    -0.059 N 
HETATM    5  H   UNL     1     -41.457  57.881 -51.485  1.00  0.00     0.280 HD
HETATM    6  C   UNL     1     -43.258  58.836 -51.416  1.00  0.00     0.242 C 
HETATM    7  C   UNL     1     -43.624  59.747 -52.590  1.00  0.00     0.029 C 
HETATM    8  C   UNL     1     -44.792  59.172 -53.416  1.00  0.00     0.123 C 
HETATM    9  C   UNL     1     -41.588  58.862 -53.840  1.00  0.00     0.035 C 
HETATM   10  C   UNL     1     -42.397  60.093 -53.437  1.00  0.00     0.010 C 
ENDROOT
BRANCH   4  11
HETATM   11  C   UNL     1     -42.774  56.386 -51.098  1.00  0.00     0.302 C 
BRANCH  11  12
HETATM   12  C   UNL     1     -41.856  55.262 -51.361  1.00  0.00     0.107 A 
HETATM   13  O   UNL     1     -40.692  55.288 -50.667  1.00  0.00    -0.216 OA
HETATM   14  N   UNL     1     -39.991  54.134 -50.896  1.00  0.00    -0.128 NA
HETATM   15  C   UNL     1     -40.693  53.424 -51.796  1.00  0.00     0.097 A 
HETATM   16  C   UNL     1     -41.894  54.120 -52.123  1.00  0.00     0.071 A 
BRANCH  15  17
HETATM   17  C   UNL     1     -40.241  52.119 -52.277  1.00  0.00    -0.005 A 
HETATM   18  C   UNL     1     -39.863  51.119 -51.365  1.00  0.00     0.014 A 
HETATM   19  C   UNL     1     -39.458  49.860 -51.814  1.00  0.00     0.001 A 
HETATM   20  C   UNL     1     -39.418  49.587 -53.180  1.00  0.00     0.000 A 
HETATM   21  C   UNL     1     -39.779  50.572 -54.096  1.00  0.00     0.001 A 
HETATM   22  C   UNL     1     -40.190  51.831 -53.648  1.00  0.00     0.014 A 
ENDBRANCH  15  17
ENDBRANCH  11  12
ENDBRANCH   4  11
BRANCH   1  23
HETATM   23  C   UNL     1     -44.425  58.689 -55.808  1.00  0.00     0.176 C 
BRANCH  23  24
HETATM   24  C   UNL     1     -43.644  57.804 -56.731  1.00  0.00     0.050 A 
HETATM   25  C   UNL     1     -42.529  58.039 -57.519  1.00  0.00     0.030 A 
HETATM   26  C   UNL     1     -41.706  59.245 -57.724  1.00  0.00     0.070 C 
HETATM   27  N   UNL     1     -42.275  56.841 -58.176  1.00  0.00    -0.354 N 
HETATM   28  H   UNL     1     -41.520  56.690 -58.843  1.00  0.00     0.166 HD
HETATM   29  C   UNL     1     -43.168  55.906 -57.846  1.00  0.00     0.180 A 
HETATM   30  N   UNL     1     -43.989  56.475 -56.965  1.00  0.00    -0.353 N 
HETATM   31  H   UNL     1     -44.787  56.019 -56.526  1.00  0.00     0.166 HD
ENDBRANCH  23  24
ENDBRANCH   1  23
TORSDOF 5
ENDMDL
MODEL 4
REMARK VINA RESULT:      -7.9      2.640      4.791
REMARK  5 active torsions:
REMARK  status: ('A' for Active; 'I' for Inactive)
REMARK    1  A    between atoms: C_8  and  C_9 
REMARK    2  A    between atoms: C_9  and  N_10 
REMARK    3  A    between atoms: N_13  and  C_15 
REMARK    4  A    between atoms: C_15  and  C_16 
REMARK    5  A    between atoms: C_19  and  C_20 
ROOT
HETATM    1  N   UNL     1     -44.727  59.046 -57.942  1.00  0.00    -0.405 N 
HETATM    2  C   UNL     1     -44.168  57.911 -57.197  1.00  0.00     0.150 C 
HETATM    3  C   UNL     1     -42.652  57.872 -56.840  1.00  0.00     0.206 C 
HETATM    4  N   UNL     1     -42.310  58.697 -55.600  1.00  0.00    -0.059 N 
HETATM    5  H   UNL     1     -41.304  58.527 -55.459  1.00  0.00     0.280 HD
HETATM    6  C   UNL     1     -42.443  60.187 -55.788  1.00  0.00     0.242 C 
HETATM    7  C   UNL     1     -42.744  60.566 -57.239  1.00  0.00     0.029 C 
HETATM    8  C   UNL     1     -44.236  60.377 -57.581  1.00  0.00     0.123 C 
HETATM    9  C   UNL     1     -41.734  58.344 -57.971  1.00  0.00     0.035 C 
HETATM   10  C   UNL     1     -41.805  59.851 -58.214  1.00  0.00     0.010 C 
ENDROOT
BRANCH   4  11
HETATM   11  C   UNL     1     -42.930  58.229 -54.282  1.00  0.00     0.302 C 
BRANCH  11  12
HETATM   12  C   UNL     1     -42.597  56.835 -53.933  1.00  0.00     0.107 A 
HETATM   13  O   UNL     1     -43.628  55.957 -54.004  1.00  0.00    -0.216 OA
HETATM   14  N   UNL     1     -43.168  54.686 -53.788  1.00  0.00    -0.128 NA
HETATM   15  C   UNL     1     -41.857  54.788 -53.508  1.00  0.00     0.097 A 
HETATM   16  C   UNL     1     -41.456  56.155 -53.586  1.00  0.00     0.071 A 
BRANCH  15  17
HETATM   17  C   UNL     1     -41.030  53.615 -53.226  1.00  0.00    -0.005 A 
HETATM   18  C   UNL     1     -40.600  53.348 -51.915  1.00  0.00     0.014 A 
HETATM   19  C   UNL     1     -39.835  52.215 -51.632  1.00  0.00     0.001 A 
HETATM   20  C   UNL     1     -39.484  51.338 -52.656  1.00  0.00     0.000 A 
HETATM   21  C   UNL     1     -39.894  51.594 -53.961  1.00  0.00     0.001 A 
HETATM   22  C   UNL     1     -40.664  52.725 -54.246  1.00  0.00     0.014 A 
ENDBRANCH  15  17
ENDBRANCH  11  12
ENDBRANCH   4  11
BRANCH   1  23
HETATM   23  C   UNL     1     -44.846  58.824 -59.399  1.00  0.00     0.176 C 
BRANCH  23  24
HETATM   24  C   UNL     1     -45.503  57.522 -59.745  1.00  0.00     0.050 A 
HETATM   25  C   UNL     1     -44.990  56.257 -59.978  1.00  0.00     0.030 A 
HETATM   26  C   UNL     1     -43.610  55.737 -59.961  1.00  0.00     0.070 C 
HETATM   27  N   UNL     1     -46.086  55.458 -60.280  1.00  0.00    -0.354 N 
HETATM   28  H   UNL     1     -46.039  54.466 -60.513  1.00  0.00     0.166 HD
HETATM   29  C   UNL     1     -47.221  56.159 -60.255  1.00  0.00     0.180 A 
HETATM   30  N   UNL     1     -46.879  57.402 -59.921  1.00  0.00    -0.353 N 
HETATM   31  H   UNL     1     -47.526  58.183 -59.824  1.00  0.00     0.166 HD
ENDBRANCH  23  24
ENDBRANCH   1  23
TORSDOF 5
ENDMDL
MODEL 5
REMARK VINA RESULT:      -7.8      3.309      5.773
REMARK  5 active torsions:
REMARK  status: ('A' for Active; 'I' for Inactive)
REMARK    1  A    between atoms: C_8  and  C_9 
REMARK    2  A    between atoms: C_9  and  N_10 
REMARK    3  A    between atoms: N_13  and  C_15 
REMARK    4  A    between atoms: C_15  and  C_16 
REMARK    5  A    between atoms: C_19  and  C_20 
ROOT
HETATM    1  N   UNL     1     -44.934  58.347 -58.974  1.00  0.00    -0.405 N 
HETATM    2  C   UNL     1     -44.639  57.265 -58.025  1.00  0.00     0.150 C 
HETATM    3  C   UNL     1     -43.276  56.513 -58.087  1.00  0.00     0.206 C 
HETATM    4  N   UNL     1     -42.146  57.268 -57.390  1.00  0.00    -0.059 N 
HETATM    5  H   UNL     1     -41.340  56.630 -57.461  1.00  0.00     0.280 HD
HETATM    6  C   UNL     1     -41.718  58.533 -58.089  1.00  0.00     0.242 C 
HETATM    7  C   UNL     1     -42.407  58.711 -59.443  1.00  0.00     0.029 C 
HETATM    8  C   UNL     1     -43.838  59.265 -59.288  1.00  0.00     0.123 C 
HETATM    9  C   UNL     1     -42.805  56.195 -59.509  1.00  0.00     0.035 C 
HETATM   10  C   UNL     1     -42.342  57.431 -60.280  1.00  0.00     0.010 C 
ENDROOT
BRANCH   4  11
HETATM   11  C   UNL     1     -42.296  57.471 -55.880  1.00  0.00     0.302 C 
BRANCH  11  12
HETATM   12  C   UNL     1     -42.093  56.240 -55.094  1.00  0.00     0.107 A 
HETATM   13  O   UNL     1     -43.227  55.610 -54.699  1.00  0.00    -0.216 OA
HETATM   14  N   UNL     1     -42.909  54.421 -54.097  1.00  0.00    -0.128 NA
HETATM   15  C   UNL     1     -41.567  54.352 -54.053  1.00  0.00     0.097 A 
HETATM   16  C   UNL     1     -41.009  55.506 -54.679  1.00  0.00     0.071 A 
BRANCH  15  17
HETATM   17  C   UNL     1     -40.868  53.205 -53.476  1.00  0.00    -0.005 A 
HETATM   18  C   UNL     1     -40.523  52.106 -54.280  1.00  0.00     0.014 A 
HETATM   19  C   UNL     1     -39.830  51.019 -53.743  1.00  0.00     0.001 A 
HETATM   20  C   UNL     1     -39.479  51.014 -52.394  1.00  0.00     0.000 A 
HETATM   21  C   UNL     1     -39.824  52.092 -51.583  1.00  0.00     0.001 A 
HETATM   22  C   UNL     1     -40.514  53.182 -52.119  1.00  0.00     0.014 A 
ENDBRANCH  15  17
ENDBRANCH  11  12
ENDBRANCH   4  11
BRANCH   1  23
HETATM   23  C   UNL     1     -45.724  57.930 -60.152  1.00  0.00     0.176 C 
BRANCH  23  24
HETATM   24  C   UNL     1     -46.826  58.889 -60.491  1.00  0.00     0.050 A 
HETATM   25  C   UNL     1     -47.718  59.594 -59.700  1.00  0.00     0.030 A 
HETATM   26  C   UNL     1     -47.898  59.659 -58.238  1.00  0.00     0.070 C 
HETATM   27  N   UNL     1     -48.523  60.302 -60.584  1.00  0.00    -0.354 N 
HETATM   28  H   UNL     1     -49.292  60.913 -60.311  1.00  0.00     0.166 HD
HETATM   29  C   UNL     1     -48.184  60.062 -61.852  1.00  0.00     0.180 A 
HETATM   30  N   UNL     1     -47.152  59.220 -61.804  1.00  0.00    -0.353 N 
HETATM   31  H   UNL     1     -46.666  58.840 -62.614  1.00  0.00     0.166 HD
ENDBRANCH  23  24
ENDBRANCH   1  23
TORSDOF 5
ENDMDL
MODEL 6
REMARK VINA RESULT:      -7.7      1.867      3.168
REMARK  5 active torsions:
REMARK  status: ('A' for Active; 'I' for Inactive)
REMARK    1  A    between atoms: C_8  and  C_9 
REMARK    2  A    between atoms: C_9  and  N_10 
REMARK    3  A    between atoms: N_13  and  C_15 
REMARK    4  A    between atoms: C_15  and  C_16 
REMARK    5  A    between atoms: C_19  and  C_20 
ROOT
HETATM    1  N   UNL     1     -44.598  58.227 -56.436  1.00  0.00    -0.405 N 
HETATM    2  C   UNL     1     -43.624  57.471 -55.638  1.00  0.00     0.150 C 
HETATM    3  C   UNL     1     -42.769  58.188 -54.552  1.00  0.00     0.206 C 
HETATM    4  N   UNL     1     -43.518  58.377 -53.233  1.00  0.00    -0.059 N 
HETATM    5  H   UNL     1     -42.817  58.801 -52.609  1.00  0.00     0.280 HD
HETATM    6  C   UNL     1     -44.650  59.370 -53.298  1.00  0.00     0.242 C 
HETATM    7  C   UNL     1     -44.709  60.099 -54.642  1.00  0.00     0.029 C 
HETATM    8  C   UNL     1     -45.385  59.239 -55.729  1.00  0.00     0.123 C 
HETATM    9  C   UNL     1     -42.242  59.561 -54.980  1.00  0.00     0.035 C 
HETATM   10  C   UNL     1     -43.334  60.627 -55.057  1.00  0.00     0.010 C 
ENDROOT
BRANCH   4  11
HETATM   11  C   UNL     1     -43.919  57.101 -52.491  1.00  0.00     0.302 C 
BRANCH  11  12
HETATM   12  C   UNL     1     -42.866  56.068 -52.479  1.00  0.00     0.107 A 
HETATM   13  O   UNL     1     -41.879  56.255 -51.568  1.00  0.00    -0.216 OA
HETATM   14  N   UNL     1     -41.042  55.171 -51.565  1.00  0.00    -0.128 NA
HETATM   15  C   UNL     1     -41.472  54.343 -52.532  1.00  0.00     0.097 A 
HETATM   16  C   UNL     1     -42.639  54.889 -53.145  1.00  0.00     0.071 A 
BRANCH  15  17
HETATM   17  C   UNL     1     -40.811  53.069 -52.813  1.00  0.00    -0.005 A 
HETATM   18  C   UNL     1     -40.099  52.401 -51.803  1.00  0.00     0.014 A 
HETATM   19  C   UNL     1     -39.490  51.170 -52.054  1.00  0.00     0.001 A 
HETATM   20  C   UNL     1     -39.577  50.595 -53.320  1.00  0.00     0.000 A 
HETATM   21  C   UNL     1     -40.270  51.251 -54.335  1.00  0.00     0.001 A 
HETATM   22  C   UNL     1     -40.885  52.480 -54.084  1.00  0.00     0.014 A 
ENDBRANCH  15  17
ENDBRANCH  11  12
ENDBRANCH   4  11
BRANCH   1  23
HETATM   23  C   UNL     1     -44.099  58.669 -57.756  1.00  0.00     0.176 C 
BRANCH  23  24
HETATM   24  C   UNL     1     -43.802  57.530 -58.685  1.00  0.00     0.050 A 
HETATM   25  C   UNL     1     -44.623  56.712 -59.442  1.00  0.00     0.030 A 
HETATM   26  C   UNL     1     -46.088  56.675 -59.612  1.00  0.00     0.070 C 
HETATM   27  N   UNL     1     -43.775  55.819 -60.083  1.00  0.00    -0.354 N 
HETATM   28  H   UNL     1     -44.077  55.074 -60.710  1.00  0.00     0.166 HD
HETATM   29  C   UNL     1     -42.500  56.036 -59.754  1.00  0.00     0.180 A 
HETATM   30  N   UNL     1     -42.507  57.075 -58.921  1.00  0.00    -0.353 N 
HETATM   31  H   UNL     1     -41.682  57.484 -58.484  1.00  0.00     0.166 HD
ENDBRANCH  23  24
ENDBRANCH   1  23
TORSDOF 5
ENDMDL
MODEL 7
REMARK VINA RESULT:      -7.7      2.746      3.668
REMARK  5 active torsions:
REMARK  status: ('A' for Active; 'I' for Inactive)
REMARK    1  A    between atoms: C_8  and  C_9 
REMARK    2  A    between atoms: C_9  and  N_10 
REMARK    3  A    between atoms: N_13  and  C_15 
REMARK    4  A    between atoms: C_15  and  C_16 
REMARK    5  A    between atoms: C_19  and  C_20 
ROOT
HETATM    1  N   UNL     1     -42.885  58.629 -56.876  1.00  0.00    -0.405 N 
HETATM    2  C   UNL     1     -42.206  59.144 -55.680  1.00  0.00     0.150 C 
HETATM    3  C   UNL     1     -42.871  59.010 -54.278  1.00  0.00     0.206 C 
HETATM    4  N   UNL     1     -42.668  57.631 -53.651  1.00  0.00    -0.059 N 
HETATM    5  H   UNL     1     -43.102  57.716 -52.721  1.00  0.00     0.280 HD
HETATM    6  C   UNL     1     -43.412  56.518 -54.342  1.00  0.00     0.242 C 
HETATM    7  C   UNL     1     -44.344  57.034 -55.439  1.00  0.00     0.029 C 
HETATM    8  C   UNL     1     -43.577  57.346 -56.740  1.00  0.00     0.123 C 
HETATM    9  C   UNL     1     -44.374  59.299 -54.271  1.00  0.00     0.035 C 
HETATM   10  C   UNL     1     -45.199  58.204 -54.947  1.00  0.00     0.010 C 
ENDROOT
BRANCH   4  11
HETATM   11  C   UNL     1     -41.225  57.239 -53.326  1.00  0.00     0.302 C 
BRANCH  11  12
HETATM   12  C   UNL     1     -40.932  55.812 -53.557  1.00  0.00     0.107 A 
HETATM   13  O   UNL     1     -40.497  55.504 -54.804  1.00  0.00    -0.216 OA
HETATM   14  N   UNL     1     -40.137  54.183 -54.854  1.00  0.00    -0.128 NA
HETATM   15  C   UNL     1     -40.421  53.655 -53.651  1.00  0.00     0.097 A 
HETATM   16  C   UNL     1     -40.939  54.671 -52.793  1.00  0.00     0.071 A 
BRANCH  15  17
HETATM   17  C   UNL     1     -40.159  52.251 -53.338  1.00  0.00    -0.005 A 
HETATM   18  C   UNL     1     -40.204  51.278 -54.351  1.00  0.00     0.014 A 
HETATM   19  C   UNL     1     -39.927  49.940 -54.068  1.00  0.00     0.001 A 
HETATM   20  C   UNL     1     -39.609  49.554 -52.767  1.00  0.00     0.000 A 
HETATM   21  C   UNL     1     -39.571  50.506 -51.750  1.00  0.00     0.001 A 
HETATM   22  C   UNL     1     -39.843  51.847 -52.033  1.00  0.00     0.014 A 
ENDBRANCH  15  17
ENDBRANCH  11  12
ENDBRANCH   4  11
BRANCH   1  23
HETATM   23  C   UNL     1     -43.647  59.645 -57.633  1.00  0.00     0.176 C 
BRANCH  23  24
HETATM   24  C   UNL     1     -43.014  60.001 -58.944  1.00  0.00     0.050 A 
HETATM   25  C   UNL     1     -41.914  60.780 -59.263  1.00  0.00     0.030 A 
HETATM   26  C   UNL     1     -40.966  61.534 -58.421  1.00  0.00     0.070 C 
HETATM   27  N   UNL     1     -41.829  60.760 -60.649  1.00  0.00    -0.354 N 
HETATM   28  H   UNL     1     -41.125  61.253 -61.198  1.00  0.00     0.166 HD
HETATM   29  C   UNL     1     -42.810  60.032 -61.187  1.00  0.00     0.180 A 
HETATM   30  N   UNL     1     -43.521  59.559 -60.164  1.00  0.00    -0.353 N 
HETATM   31  H   UNL     1     -44.347  58.969 -60.246  1.00  0.00     0.166 HD
ENDBRANCH  23  24
ENDBRANCH   1  23
TORSDOF 5
ENDMDL
MODEL 8
REMARK VINA RESULT:      -7.4      3.294      5.854
REMARK  5 active torsions:
REMARK  status: ('A' for Active; 'I' for Inactive)
REMARK    1  A    between atoms: C_8  and  C_9 
REMARK    2  A    between atoms: C_9  and  N_10 
REMARK    3  A    between atoms: N_13  and  C_15 
REMARK    4  A    between atoms: C_15  and  C_16 
REMARK    5  A    between atoms: C_19  and  C_20 
ROOT
HETATM    1  N   UNL     1     -43.857  60.140 -50.728  1.00  0.00    -0.405 N 
HETATM    2  C   UNL     1     -44.967  59.712 -51.589  1.00  0.00     0.150 C 
HETATM    3  C   UNL     1     -44.886  59.905 -53.133  1.00  0.00     0.206 C 
HETATM    4  N   UNL     1     -44.083  58.806 -53.829  1.00  0.00    -0.059 N 
HETATM    5  H   UNL     1     -44.169  59.033 -54.830  1.00  0.00     0.280 HD
HETATM    6  C   UNL     1     -42.604  58.836 -53.536  1.00  0.00     0.242 C 
HETATM    7  C   UNL     1     -42.197  60.065 -52.721  1.00  0.00     0.029 C 
HETATM    8  C   UNL     1     -42.503  59.882 -51.221  1.00  0.00     0.123 C 
HETATM    9  C   UNL     1     -44.291  61.249 -53.562  1.00  0.00     0.035 C 
HETATM   10  C   UNL     1     -42.788  61.350 -53.307  1.00  0.00     0.010 C 
ENDROOT
BRANCH   4  11
HETATM   11  C   UNL     1     -44.654  57.390 -53.744  1.00  0.00     0.302 C 
BRANCH  11  12
HETATM   12  C   UNL     1     -43.674  56.381 -53.299  1.00  0.00     0.107 A 
HETATM   13  O   UNL     1     -43.542  56.253 -51.955  1.00  0.00    -0.216 OA
HETATM   14  N   UNL     1     -42.709  55.204 -51.671  1.00  0.00    -0.128 NA
HETATM   15  C   UNL     1     -42.265  54.728 -52.847  1.00  0.00     0.097 A 
HETATM   16  C   UNL     1     -42.860  55.464 -53.915  1.00  0.00     0.071 A 
BRANCH  15  17
HETATM   17  C   UNL     1     -41.349  53.591 -52.928  1.00  0.00    -0.005 A 
HETATM   18  C   UNL     1     -41.150  52.926 -54.149  1.00  0.00     0.014 A 
HETATM   19  C   UNL     1     -40.256  51.857 -54.241  1.00  0.00     0.001 A 
HETATM   20  C   UNL     1     -39.555  51.436 -53.113  1.00  0.00     0.000 A 
HETATM   21  C   UNL     1     -39.751  52.078 -51.894  1.00  0.00     0.001 A 
HETATM   22  C   UNL     1     -40.642  53.151 -51.800  1.00  0.00     0.014 A 
ENDBRANCH  15  17
ENDBRANCH  11  12
ENDBRANCH   4  11
BRANCH   1  23
HETATM   23  C   UNL     1     -44.031  61.478 -50.122  1.00  0.00     0.176 C 
BRANCH  23  24
HETATM   24  C   UNL     1     -44.872  61.458 -48.882  1.00  0.00     0.050 A 
HETATM   25  C   UNL     1     -46.091  62.041 -48.577  1.00  0.00     0.030 A 
HETATM   26  C   UNL     1     -47.002  62.886 -49.371  1.00  0.00     0.070 C 
HETATM   27  N   UNL     1     -46.356  61.688 -47.260  1.00  0.00    -0.354 N 
HETATM   28  H   UNL     1     -47.182  61.974 -46.734  1.00  0.00     0.166 HD
HETATM   29  C   UNL     1     -45.376  60.942 -46.748  1.00  0.00     0.180 A 
HETATM   30  N   UNL     1     -44.482  60.788 -47.724  1.00  0.00    -0.353 N 
HETATM   31  H   UNL     1     -43.610  60.269 -47.646  1.00  0.00     0.166 HD
ENDBRANCH  23  24
ENDBRANCH   1  23
TORSDOF 5
ENDMDL
MODEL 9
REMARK VINA RESULT:      -7.3      2.932      3.760
REMARK  5 active torsions:
REMARK  status: ('A' for Active; 'I' for Inactive)
REMARK    1  A    between atoms: C_8  and  C_9 
REMARK    2  A    between atoms: C_9  and  N_10 
REMARK    3  A    between atoms: N_13  and  C_15 
REMARK    4  A    between atoms: C_15  and  C_16 
REMARK    5  A    between atoms: C_19  and  C_20 
ROOT
HETATM    1  N   UNL     1     -43.119  59.778 -56.281  1.00  0.00    -0.405 N 
HETATM    2  C   UNL     1     -42.311  58.598 -55.945  1.00  0.00     0.150 C 
HETATM    3  C   UNL     1     -41.863  58.343 -54.475  1.00  0.00     0.206 C 
HETATM    4  N   UNL     1     -42.951  57.689 -53.625  1.00  0.00    -0.059 N 
HETATM    5  H   UNL     1     -42.494  57.532 -52.716  1.00  0.00     0.280 HD
HETATM    6  C   UNL     1     -44.131  58.580 -53.332  1.00  0.00     0.242 C 
HETATM    7  C   UNL     1     -43.914  60.013 -53.822  1.00  0.00     0.029 C 
HETATM    8  C   UNL     1     -44.175  60.144 -55.336  1.00  0.00     0.123 C 
HETATM    9  C   UNL     1     -41.401  59.603 -53.738  1.00  0.00     0.035 C 
HETATM   10  C   UNL     1     -42.548  60.553 -53.395  1.00  0.00     0.010 C 
ENDROOT
BRANCH   4  11
HETATM   11  C   UNL     1     -43.386  56.283 -54.043  1.00  0.00     0.302 C 
BRANCH  11  12
HETATM   12  C   UNL     1     -42.405  55.235 -53.706  1.00  0.00     0.107 A 
HETATM   13  O   UNL     1     -41.525  55.557 -52.725  1.00  0.00    -0.216 OA
HETATM   14  N   UNL     1     -40.759  54.465 -52.414  1.00  0.00    -0.128 NA
HETATM   15  C   UNL     1     -41.117  53.483 -53.260  1.00  0.00     0.097 A 
HETATM   16  C   UNL     1     -42.168  53.944 -54.109  1.00  0.00     0.071 A 
BRANCH  15  17
HETATM   17  C   UNL     1     -40.503  52.157 -53.214  1.00  0.00    -0.005 A 
HETATM   18  C   UNL     1     -39.933  51.680 -52.022  1.00  0.00     0.014 A 
HETATM   19  C   UNL     1     -39.369  50.404 -51.962  1.00  0.00     0.001 A 
HETATM   20  C   UNL     1     -39.363  49.591 -53.094  1.00  0.00     0.000 A 
HETATM   21  C   UNL     1     -39.915  50.055 -54.285  1.00  0.00     0.001 A 
HETATM   22  C   UNL     1     -40.483  51.330 -54.346  1.00  0.00     0.014 A 
ENDBRANCH  15  17
ENDBRANCH  11  12
ENDBRANCH   4  11
BRANCH   1  23
HETATM   23  C   UNL     1     -42.342  60.928 -56.789  1.00  0.00     0.176 C 
BRANCH  23  24
HETATM   24  C   UNL     1     -42.124  60.884 -58.271  1.00  0.00     0.050 A 
HETATM   25  C   UNL     1     -41.208  61.519 -59.094  1.00  0.00     0.030 A 
HETATM   26  C   UNL     1     -40.113  62.462 -58.803  1.00  0.00     0.070 C 
HETATM   27  N   UNL     1     -41.513  61.104 -60.384  1.00  0.00    -0.354 N 
HETATM   28  H   UNL     1     -41.024  61.407 -61.226  1.00  0.00     0.166 HD
HETATM   29  C   UNL     1     -42.557  60.273 -60.395  1.00  0.00     0.180 A 
HETATM   30  N   UNL     1     -42.922  60.124 -59.123  1.00  0.00    -0.353 N 
HETATM   31  H   UNL     1     -43.699  59.551 -58.798  1.00  0.00     0.166 HD
ENDBRANCH  23  24
ENDBRANCH   1  23
TORSDOF 5
ENDMDL
MODEL 10
REMARK VINA RESULT:      -7.2     15.018     17.915
REMARK  5 active torsions:
REMARK  status: ('A' for Active; 'I' for Inactive)
REMARK    1  A    between atoms: C_8  and  C_9 
REMARK    2  A    between atoms: C_9  and  N_10 
REMARK    3  A    between atoms: N_13  and  C_15 
REMARK    4  A    between atoms: C_15  and  C_16 
REMARK    5  A    between atoms: C_19  and  C_20 
ROOT
HETATM    1  N   UNL     1     -33.067  39.095 -53.556  1.00  0.00    -0.405 N 
HETATM    2  C   UNL     1     -34.123  38.549 -52.693  1.00  0.00     0.150 C 
HETATM    3  C   UNL     1     -34.043  38.720 -51.147  1.00  0.00     0.206 C 
HETATM    4  N   UNL     1     -34.532  40.088 -50.673  1.00  0.00    -0.059 N 
HETATM    5  H   UNL     1     -34.477  40.028 -49.646  1.00  0.00     0.280 HD
HETATM    6  C   UNL     1     -33.635  41.237 -51.057  1.00  0.00     0.242 C 
HETATM    7  C   UNL     1     -32.334  40.766 -51.711  1.00  0.00     0.029 C 
HETATM    8  C   UNL     1     -32.538  40.413 -53.198  1.00  0.00     0.123 C 
HETATM    9  C   UNL     1     -32.641  38.509 -50.569  1.00  0.00     0.035 C 
HETATM   10  C   UNL     1     -31.675  39.644 -50.907  1.00  0.00     0.010 C 
ENDROOT
BRANCH   4  11
HETATM   11  C   UNL     1     -36.008  40.406 -50.924  1.00  0.00     0.302 C 
BRANCH  11  12
HETATM   12  C   UNL     1     -36.282  40.914 -52.282  1.00  0.00     0.107 A 
HETATM   13  O   UNL     1     -36.026  42.232 -52.471  1.00  0.00    -0.216 OA
HETATM   14  N   UNL     1     -36.193  42.550 -53.793  1.00  0.00    -0.128 NA
HETATM   15  C   UNL     1     -36.625  41.437 -54.410  1.00  0.00     0.097 A 
HETATM   16  C   UNL     1     -36.700  40.367 -53.470  1.00  0.00     0.071 A 
BRANCH  15  17
HETATM   17  C   UNL     1     -36.906  41.405 -55.845  1.00  0.00    -0.005 A 
HETATM   18  C   UNL     1     -36.038  42.037 -56.752  1.00  0.00     0.014 A 
HETATM   19  C   UNL     1     -36.283  41.987 -58.126  1.00  0.00     0.001 A 
HETATM   20  C   UNL     1     -37.401  41.311 -58.610  1.00  0.00     0.000 A 
HETATM   21  C   UNL     1     -38.275  40.689 -57.723  1.00  0.00     0.001 A 
HETATM   22  C   UNL     1     -38.030  40.734 -56.348  1.00  0.00     0.014 A 
ENDBRANCH  15  17
ENDBRANCH  11  12
ENDBRANCH   4  11
BRANCH   1  23
HETATM   23  C   UNL     1     -32.029  38.118 -53.948  1.00  0.00     0.176 C 
BRANCH  23  24
HETATM   24  C   UNL     1     -31.404  38.423 -55.276  1.00  0.00     0.050 A 
HETATM   25  C   UNL     1     -31.946  38.811 -56.490  1.00  0.00     0.030 A 
HETATM   26  C   UNL     1     -33.336  39.070 -56.907  1.00  0.00     0.070 C 
HETATM   27  N   UNL     1     -30.871  38.919 -57.363  1.00  0.00    -0.354 N 
HETATM   28  H   UNL     1     -30.942  39.178 -58.347  1.00  0.00     0.166 HD
HETATM   29  C   UNL     1     -29.721  38.611 -56.761  1.00  0.00     0.180 A 
HETATM   30  N   UNL     1     -30.032  38.324 -55.498  1.00  0.00    -0.353 N 
HETATM   31  H   UNL     1     -29.368  38.043 -54.779  1.00  0.00     0.166 HD
ENDBRANCH  23  24
ENDBRANCH   1  23
TORSDOF 5
ENDMDL
