MODEL 1
REMARK VINA RESULT:      -6.9      0.000      0.000
REMARK  10 active torsions:
REMARK  status: ('A' for Active; 'I' for Inactive)
REMARK    1  A    between atoms: O_2  and  C_3 
REMARK    2  A    between atoms: C_4  and  O_5 
REMARK    3  A    between atoms: O_5  and  C_6 
REMARK    4  A    between atoms: C_6  and  C_7 
REMARK       I    between atoms: C_7  and  N_8 
REMARK    5  A    between atoms: N_8  and  C_9 
REMARK    6  A    between atoms: C_9  and  N_10 
REMARK    7  A    between atoms: N_10  and  N_11 
REMARK    8  A    between atoms: N_11  and  C_12 
REMARK    9  A    between atoms: C_12  and  N_13 
REMARK   10  A    between atoms: N_13  and  C_14 
ROOT
HETATM    1  C   UNL     1     -44.261  56.400 -54.299  1.00  0.00     0.193 C 
HETATM    2  S   UNL     1     -44.755  57.866 -53.661  1.00  0.00    -0.039 SA
ENDROOT
BRANCH   1   3
HETATM    3  N   UNL     1     -43.955  56.137 -55.637  1.00  0.00    -0.301 N 
HETATM    4  C   UNL     1     -42.720  55.958 -56.271  1.00  0.00     0.248 C 
HETATM    5  O   UNL     1     -41.617  56.038 -55.741  1.00  0.00    -0.271 OA
HETATM    6  H   UNL     1     -44.755  56.107 -56.251  1.00  0.00     0.171 HD
BRANCH   4   7
HETATM    7  C   UNL     1     -42.866  55.664 -57.771  1.00  0.00     0.278 C 
BRANCH   7   8
HETATM    8  O   UNL     1     -43.232  56.776 -58.583  1.00  0.00    -0.339 OA
BRANCH   8   9
HETATM    9  C   UNL     1     -44.446  56.628 -59.196  1.00  0.00     0.102 A 
HETATM   10  C   UNL     1     -45.623  57.221 -58.728  1.00  0.00     0.101 A 
HETATM   11  C   UNL     1     -46.817  57.069 -59.435  1.00  0.00     0.039 A 
HETATM   12  C   UNL     1     -46.846  56.273 -60.581  1.00  0.00     0.003 A 
HETATM   13  C   UNL     1     -45.684  55.638 -61.021  1.00  0.00     0.003 A 
HETATM   14  C   UNL     1     -44.485  55.811 -60.326  1.00  0.00     0.039 A 
BRANCH  10  15
HETATM   15  O   UNL     1     -45.637  58.025 -57.620  1.00  0.00    -0.353 OA
HETATM   16  C   UNL     1     -45.701  59.397 -58.020  1.00  0.00     0.210 C 
ENDBRANCH  10  15
ENDBRANCH   8   9
ENDBRANCH   7   8
ENDBRANCH   4   7
ENDBRANCH   1   3
BRANCH   1  17
HETATM   17  N   UNL     1     -44.048  55.262 -53.516  1.00  0.00    -0.274 N 
HETATM   18  H   UNL     1     -44.597  54.416 -53.656  1.00  0.00     0.189 HD
BRANCH  17  19
HETATM   19  N   UNL     1     -43.480  55.373 -52.231  1.00  0.00    -0.274 N 
HETATM   20  H   UNL     1     -44.132  55.651 -51.497  1.00  0.00     0.189 HD
BRANCH  19  21
HETATM   21  C   UNL     1     -42.150  55.651 -52.069  1.00  0.00     0.191 C 
HETATM   22  S   UNL     1     -41.536  56.652 -50.868  1.00  0.00    -0.039 SA
BRANCH  21  23
HETATM   23  N   UNL     1     -41.263  55.054 -52.918  1.00  0.00    -0.332 N 
HETATM   24  H   UNL     1     -41.020  55.643 -53.708  1.00  0.00     0.168 HD
BRANCH  23  25
HETATM   25  C   UNL     1     -40.704  53.759 -52.935  1.00  0.00     0.034 A 
HETATM   26  C   UNL     1     -40.133  53.132 -51.826  1.00  0.00     0.029 A 
HETATM   27  C   UNL     1     -39.622  51.834 -51.930  1.00  0.00     0.002 A 
HETATM   28  C   UNL     1     -39.694  51.145 -53.138  1.00  0.00     0.000 A 
HETATM   29  C   UNL     1     -40.288  51.749 -54.242  1.00  0.00     0.002 A 
HETATM   30  C   UNL     1     -40.796  53.047 -54.138  1.00  0.00     0.029 A 
ENDBRANCH  23  25
ENDBRANCH  21  23
ENDBRANCH  19  21
ENDBRANCH  17  19
ENDBRANCH   1  17
TORSDOF 10
ENDMDL
MODEL 2
REMARK VINA RESULT:      -6.8      2.537      7.600
REMARK  10 active torsions:
REMARK  status: ('A' for Active; 'I' for Inactive)
REMARK    1  A    between atoms: O_2  and  C_3 
REMARK    2  A    between atoms: C_4  and  O_5 
REMARK    3  A    between atoms: O_5  and  C_6 
REMARK    4  A    between atoms: C_6  and  C_7 
REMARK       I    between atoms: C_7  and  N_8 
REMARK    5  A    between atoms: N_8  and  C_9 
REMARK    6  A    between atoms: C_9  and  N_10 
REMARK    7  A    between atoms: N_10  and  N_11 
REMARK    8  A    between atoms: N_11  and  C_12 
REMARK    9  A    between atoms: C_12  and  N_13 
REMARK   10  A    between atoms: N_13  and  C_14 
ROOT
HETATM    1  C   UNL     1     -43.430  56.658 -52.486  1.00  0.00     0.193 C 
HETATM    2  S   UNL     1     -42.769  57.622 -51.288  1.00  0.00    -0.039 SA
ENDROOT
BRANCH   1   3
HETATM    3  N   UNL     1     -42.896  55.465 -52.981  1.00  0.00    -0.301 N 
HETATM    4  C   UNL     1     -41.741  55.228 -53.735  1.00  0.00     0.248 C 
HETATM    5  O   UNL     1     -40.962  56.079 -54.150  1.00  0.00    -0.271 OA
HETATM    6  H   UNL     1     -43.456  54.646 -52.794  1.00  0.00     0.171 HD
BRANCH   4   7
HETATM    7  C   UNL     1     -41.533  53.737 -54.040  1.00  0.00     0.278 C 
BRANCH   7   8
HETATM    8  O   UNL     1     -40.177  53.303 -54.092  1.00  0.00    -0.339 OA
BRANCH   8   9
HETATM    9  C   UNL     1     -39.969  52.090 -53.496  1.00  0.00     0.102 A 
HETATM   10  C   UNL     1     -39.663  51.940 -52.140  1.00  0.00     0.101 A 
HETATM   11  C   UNL     1     -39.514  50.666 -51.588  1.00  0.00     0.039 A 
HETATM   12  C   UNL     1     -39.614  49.542 -52.409  1.00  0.00     0.003 A 
HETATM   13  C   UNL     1     -39.867  49.691 -53.773  1.00  0.00     0.003 A 
HETATM   14  C   UNL     1     -40.039  50.965 -54.317  1.00  0.00     0.039 A 
BRANCH  10  15
HETATM   15  O   UNL     1     -39.576  53.013 -51.294  1.00  0.00    -0.353 OA
HETATM   16  C   UNL     1     -40.613  52.941 -50.313  1.00  0.00     0.210 C 
ENDBRANCH  10  15
ENDBRANCH   8   9
ENDBRANCH   7   8
ENDBRANCH   4   7
ENDBRANCH   1   3
BRANCH   1  17
HETATM   17  N   UNL     1     -44.656  56.935 -53.096  1.00  0.00    -0.274 N 
HETATM   18  H   UNL     1     -45.505  57.052 -52.545  1.00  0.00     0.189 HD
BRANCH  17  19
HETATM   19  N   UNL     1     -44.887  56.570 -54.438  1.00  0.00    -0.274 N 
HETATM   20  H   UNL     1     -44.924  55.565 -54.608  1.00  0.00     0.189 HD
BRANCH  19  21
HETATM   21  C   UNL     1     -44.529  57.399 -55.467  1.00  0.00     0.191 C 
HETATM   22  S   UNL     1     -45.471  58.674 -56.021  1.00  0.00    -0.039 SA
BRANCH  21  23
HETATM   23  N   UNL     1     -43.317  57.195 -56.061  1.00  0.00    -0.332 N 
HETATM   24  H   UNL     1     -42.548  57.207 -55.398  1.00  0.00     0.168 HD
BRANCH  23  25
HETATM   25  C   UNL     1     -42.945  57.058 -57.415  1.00  0.00     0.034 A 
HETATM   26  C   UNL     1     -43.196  55.924 -58.190  1.00  0.00     0.029 A 
HETATM   27  C   UNL     1     -42.810  55.885 -59.535  1.00  0.00     0.002 A 
HETATM   28  C   UNL     1     -42.188  56.984 -60.120  1.00  0.00     0.000 A 
HETATM   29  C   UNL     1     -41.961  58.131 -59.364  1.00  0.00     0.002 A 
HETATM   30  C   UNL     1     -42.344  58.169 -58.021  1.00  0.00     0.029 A 
ENDBRANCH  23  25
ENDBRANCH  21  23
ENDBRANCH  19  21
ENDBRANCH  17  19
ENDBRANCH   1  17
TORSDOF 10
ENDMDL
MODEL 3
REMARK VINA RESULT:      -6.8      1.927      7.829
REMARK  10 active torsions:
REMARK  status: ('A' for Active; 'I' for Inactive)
REMARK    1  A    between atoms: O_2  and  C_3 
REMARK    2  A    between atoms: C_4  and  O_5 
REMARK    3  A    between atoms: O_5  and  C_6 
REMARK    4  A    between atoms: C_6  and  C_7 
REMARK       I    between atoms: C_7  and  N_8 
REMARK    5  A    between atoms: N_8  and  C_9 
REMARK    6  A    between atoms: C_9  and  N_10 
REMARK    7  A    between atoms: N_10  and  N_11 
REMARK    8  A    between atoms: N_11  and  C_12 
REMARK    9  A    between atoms: C_12  and  N_13 
REMARK   10  A    between atoms: N_13  and  C_14 
ROOT
HETATM    1  C   UNL     1     -44.098  56.432 -53.823  1.00  0.00     0.193 C 
HETATM    2  S   UNL     1     -43.919  57.629 -52.667  1.00  0.00    -0.039 SA
ENDROOT
BRANCH   1   3
HETATM    3  N   UNL     1     -43.333  55.269 -53.940  1.00  0.00    -0.301 N 
HETATM    4  C   UNL     1     -42.339  54.921 -54.862  1.00  0.00     0.248 C 
HETATM    5  O   UNL     1     -41.962  55.602 -55.810  1.00  0.00    -0.271 OA
HETATM    6  H   UNL     1     -43.561  54.548 -53.270  1.00  0.00     0.171 HD
BRANCH   4   7
HETATM    7  C   UNL     1     -41.745  53.531 -54.590  1.00  0.00     0.278 C 
BRANCH   7   8
HETATM    8  O   UNL     1     -40.546  53.514 -53.820  1.00  0.00    -0.339 OA
BRANCH   8   9
HETATM    9  C   UNL     1     -40.197  52.266 -53.381  1.00  0.00     0.102 A 
HETATM   10  C   UNL     1     -39.734  52.005 -52.088  1.00  0.00     0.101 A 
HETATM   11  C   UNL     1     -39.445  50.698 -51.694  1.00  0.00     0.039 A 
HETATM   12  C   UNL     1     -39.563  49.656 -52.615  1.00  0.00     0.003 A 
HETATM   13  C   UNL     1     -39.975  49.921 -53.922  1.00  0.00     0.003 A 
HETATM   14  C   UNL     1     -40.287  51.226 -54.307  1.00  0.00     0.039 A 
BRANCH  10  15
HETATM   15  O   UNL     1     -39.622  52.993 -51.146  1.00  0.00    -0.353 OA
HETATM   16  C   UNL     1     -40.464  52.694 -50.030  1.00  0.00     0.210 C 
ENDBRANCH  10  15
ENDBRANCH   8   9
ENDBRANCH   7   8
ENDBRANCH   4   7
ENDBRANCH   1   3
BRANCH   1  17
HETATM   17  N   UNL     1     -45.104  56.454 -54.792  1.00  0.00    -0.274 N 
HETATM   18  H   UNL     1     -45.454  55.594 -55.209  1.00  0.00     0.189 HD
BRANCH  17  19
HETATM   19  N   UNL     1     -45.309  57.601 -55.585  1.00  0.00    -0.274 N 
HETATM   20  H   UNL     1     -46.272  57.744 -55.891  1.00  0.00     0.189 HD
BRANCH  19  21
HETATM   21  C   UNL     1     -44.294  58.132 -56.336  1.00  0.00     0.191 C 
HETATM   22  S   UNL     1     -43.646  59.662 -56.096  1.00  0.00    -0.039 SA
BRANCH  21  23
HETATM   23  N   UNL     1     -43.756  57.357 -57.322  1.00  0.00    -0.332 N 
HETATM   24  H   UNL     1     -42.744  57.302 -57.270  1.00  0.00     0.168 HD
BRANCH  23  25
HETATM   25  C   UNL     1     -44.340  56.703 -58.428  1.00  0.00     0.034 A 
HETATM   26  C   UNL     1     -45.448  57.180 -59.131  1.00  0.00     0.029 A 
HETATM   27  C   UNL     1     -45.947  56.476 -60.232  1.00  0.00     0.002 A 
HETATM   28  C   UNL     1     -45.331  55.299 -60.651  1.00  0.00     0.000 A 
HETATM   29  C   UNL     1     -44.207  54.831 -59.976  1.00  0.00     0.002 A 
HETATM   30  C   UNL     1     -43.712  55.533 -58.874  1.00  0.00     0.029 A 
ENDBRANCH  23  25
ENDBRANCH  21  23
ENDBRANCH  19  21
ENDBRANCH  17  19
ENDBRANCH   1  17
TORSDOF 10
ENDMDL
MODEL 4
REMARK VINA RESULT:      -6.7      2.119      2.892
REMARK  10 active torsions:
REMARK  status: ('A' for Active; 'I' for Inactive)
REMARK    1  A    between atoms: O_2  and  C_3 
REMARK    2  A    between atoms: C_4  and  O_5 
REMARK    3  A    between atoms: O_5  and  C_6 
REMARK    4  A    between atoms: C_6  and  C_7 
REMARK       I    between atoms: C_7  and  N_8 
REMARK    5  A    between atoms: N_8  and  C_9 
REMARK    6  A    between atoms: C_9  and  N_10 
REMARK    7  A    between atoms: N_10  and  N_11 
REMARK    8  A    between atoms: N_11  and  C_12 
REMARK    9  A    between atoms: C_12  and  N_13 
REMARK   10  A    between atoms: N_13  and  C_14 
ROOT
HETATM    1  C   UNL     1     -43.349  56.624 -57.452  1.00  0.00     0.193 C 
HETATM    2  S   UNL     1     -43.376  58.133 -56.730  1.00  0.00    -0.039 SA
ENDROOT
BRANCH   1   3
HETATM    3  N   UNL     1     -44.160  56.192 -58.505  1.00  0.00    -0.301 N 
HETATM    4  C   UNL     1     -43.850  55.922 -59.843  1.00  0.00     0.248 C 
HETATM    5  O   UNL     1     -42.751  56.057 -60.372  1.00  0.00    -0.271 OA
HETATM    6  H   UNL     1     -45.136  56.094 -58.268  1.00  0.00     0.171 HD
BRANCH   4   7
HETATM    7  C   UNL     1     -45.069  55.444 -60.645  1.00  0.00     0.278 C 
BRANCH   7   8
HETATM    8  O   UNL     1     -46.336  55.676 -60.036  1.00  0.00    -0.339 OA
BRANCH   8   9
HETATM    9  C   UNL     1     -47.011  56.740 -60.568  1.00  0.00     0.102 A 
HETATM   10  C   UNL     1     -47.002  58.019 -60.004  1.00  0.00     0.101 A 
HETATM   11  C   UNL     1     -47.672  59.071 -60.631  1.00  0.00     0.039 A 
HETATM   12  C   UNL     1     -48.402  58.828 -61.795  1.00  0.00     0.003 A 
HETATM   13  C   UNL     1     -48.456  57.541 -62.332  1.00  0.00     0.003 A 
HETATM   14  C   UNL     1     -47.765  56.496 -61.716  1.00  0.00     0.039 A 
BRANCH  10  15
HETATM   15  O   UNL     1     -46.283  58.307 -58.874  1.00  0.00    -0.353 OA
HETATM   16  C   UNL     1     -47.121  58.182 -57.722  1.00  0.00     0.210 C 
ENDBRANCH  10  15
ENDBRANCH   8   9
ENDBRANCH   7   8
ENDBRANCH   4   7
ENDBRANCH   1   3
BRANCH   1  17
HETATM   17  N   UNL     1     -42.441  55.625 -57.093  1.00  0.00    -0.274 N 
HETATM   18  H   UNL     1     -42.582  54.657 -57.377  1.00  0.00     0.189 HD
BRANCH  17  19
HETATM   19  N   UNL     1     -41.622  55.776 -55.956  1.00  0.00    -0.274 N 
HETATM   20  H   UNL     1     -40.640  55.968 -56.157  1.00  0.00     0.189 HD
BRANCH  19  21
HETATM   21  C   UNL     1     -41.945  55.176 -54.768  1.00  0.00     0.191 C 
HETATM   22  S   UNL     1     -43.509  54.767 -54.315  1.00  0.00    -0.039 SA
BRANCH  21  23
HETATM   23  N   UNL     1     -40.929  54.866 -53.911  1.00  0.00    -0.332 N 
HETATM   24  H   UNL     1     -40.373  55.675 -53.652  1.00  0.00     0.168 HD
BRANCH  23  25
HETATM   25  C   UNL     1     -40.474  53.632 -53.400  1.00  0.00     0.034 A 
HETATM   26  C   UNL     1     -40.301  53.358 -52.042  1.00  0.00     0.029 A 
HETATM   27  C   UNL     1     -39.865  52.095 -51.624  1.00  0.00     0.002 A 
HETATM   28  C   UNL     1     -39.618  51.092 -52.557  1.00  0.00     0.000 A 
HETATM   29  C   UNL     1     -39.817  51.346 -53.911  1.00  0.00     0.002 A 
HETATM   30  C   UNL     1     -40.249  52.608 -54.329  1.00  0.00     0.029 A 
ENDBRANCH  23  25
ENDBRANCH  21  23
ENDBRANCH  19  21
ENDBRANCH  17  19
ENDBRANCH   1  17
TORSDOF 10
ENDMDL
MODEL 5
REMARK VINA RESULT:      -6.6      2.757      7.469
REMARK  10 active torsions:
REMARK  status: ('A' for Active; 'I' for Inactive)
REMARK    1  A    between atoms: O_2  and  C_3 
REMARK    2  A    between atoms: C_4  and  O_5 
REMARK    3  A    between atoms: O_5  and  C_6 
REMARK    4  A    between atoms: C_6  and  C_7 
REMARK       I    between atoms: C_7  and  N_8 
REMARK    5  A    between atoms: N_8  and  C_9 
REMARK    6  A    between atoms: C_9  and  N_10 
REMARK    7  A    between atoms: N_10  and  N_11 
REMARK    8  A    between atoms: N_11  and  C_12 
REMARK    9  A    between atoms: C_12  and  N_13 
REMARK   10  A    between atoms: N_13  and  C_14 
ROOT
HETATM    1  C   UNL     1     -42.077  56.646 -51.751  1.00  0.00     0.193 C 
HETATM    2  S   UNL     1     -41.458  58.197 -51.642  1.00  0.00    -0.039 SA
ENDROOT
BRANCH   1   3
HETATM    3  N   UNL     1     -41.477  55.477 -51.274  1.00  0.00    -0.301 N 
HETATM    4  C   UNL     1     -41.956  54.502 -50.391  1.00  0.00     0.248 C 
HETATM    5  O   UNL     1     -43.040  54.517 -49.816  1.00  0.00    -0.271 OA
HETATM    6  H   UNL     1     -40.530  55.333 -51.591  1.00  0.00     0.171 HD
BRANCH   4   7
HETATM    7  C   UNL     1     -40.948  53.365 -50.167  1.00  0.00     0.278 C 
BRANCH   7   8
HETATM    8  O   UNL     1     -39.797  53.390 -51.006  1.00  0.00    -0.339 OA
BRANCH   8   9
HETATM    9  C   UNL     1     -39.839  52.470 -52.017  1.00  0.00     0.102 A 
HETATM   10  C   UNL     1     -40.225  52.779 -53.325  1.00  0.00     0.101 A 
HETATM   11  C   UNL     1     -40.194  51.800 -54.318  1.00  0.00     0.039 A 
HETATM   12  C   UNL     1     -39.833  50.492 -53.990  1.00  0.00     0.003 A 
HETATM   13  C   UNL     1     -39.497  50.169 -52.675  1.00  0.00     0.003 A 
HETATM   14  C   UNL     1     -39.505  51.156 -51.687  1.00  0.00     0.039 A 
BRANCH  10  15
HETATM   15  O   UNL     1     -40.568  54.052 -53.697  1.00  0.00    -0.353 OA
HETATM   16  C   UNL     1     -40.298  54.238 -55.089  1.00  0.00     0.210 C 
ENDBRANCH  10  15
ENDBRANCH   8   9
ENDBRANCH   7   8
ENDBRANCH   4   7
ENDBRANCH   1   3
BRANCH   1  17
HETATM   17  N   UNL     1     -43.327  56.363 -52.306  1.00  0.00    -0.274 N 
HETATM   18  H   UNL     1     -44.070  55.946 -51.748  1.00  0.00     0.189 HD
BRANCH  17  19
HETATM   19  N   UNL     1     -43.463  56.152 -53.693  1.00  0.00    -0.274 N 
HETATM   20  H   UNL     1     -43.176  55.228 -54.016  1.00  0.00     0.189 HD
BRANCH  19  21
HETATM   21  C   UNL     1     -43.422  57.199 -54.574  1.00  0.00     0.191 C 
HETATM   22  S   UNL     1     -44.451  58.524 -54.510  1.00  0.00    -0.039 SA
BRANCH  21  23
HETATM   23  N   UNL     1     -42.466  57.179 -55.547  1.00  0.00    -0.332 N 
HETATM   24  H   UNL     1     -41.540  57.397 -55.193  1.00  0.00     0.168 HD
BRANCH  23  25
HETATM   25  C   UNL     1     -42.550  56.996 -56.944  1.00  0.00     0.034 A 
HETATM   26  C   UNL     1     -43.085  55.863 -57.559  1.00  0.00     0.029 A 
HETATM   27  C   UNL     1     -43.149  55.777 -58.954  1.00  0.00     0.002 A 
HETATM   28  C   UNL     1     -42.696  56.830 -59.745  1.00  0.00     0.000 A 
HETATM   29  C   UNL     1     -42.189  57.977 -59.141  1.00  0.00     0.002 A 
HETATM   30  C   UNL     1     -42.123  58.061 -57.748  1.00  0.00     0.029 A 
ENDBRANCH  23  25
ENDBRANCH  21  23
ENDBRANCH  19  21
ENDBRANCH  17  19
ENDBRANCH   1  17
TORSDOF 10
ENDMDL
MODEL 6
REMARK VINA RESULT:      -6.5      2.702      3.979
REMARK  10 active torsions:
REMARK  status: ('A' for Active; 'I' for Inactive)
REMARK    1  A    between atoms: O_2  and  C_3 
REMARK    2  A    between atoms: C_4  and  O_5 
REMARK    3  A    between atoms: O_5  and  C_6 
REMARK    4  A    between atoms: C_6  and  C_7 
REMARK       I    between atoms: C_7  and  N_8 
REMARK    5  A    between atoms: N_8  and  C_9 
REMARK    6  A    between atoms: C_9  and  N_10 
REMARK    7  A    between atoms: N_10  and  N_11 
REMARK    8  A    between atoms: N_11  and  C_12 
REMARK    9  A    between atoms: C_12  and  N_13 
REMARK   10  A    between atoms: N_13  and  C_14 
ROOT
HETATM    1  C   UNL     1     -41.602  58.588 -50.984  1.00  0.00     0.193 C 
HETATM    2  S   UNL     1     -40.945  59.717 -49.937  1.00  0.00    -0.039 SA
ENDROOT
BRANCH   1   3
HETATM    3  N   UNL     1     -41.859  58.769 -52.346  1.00  0.00    -0.301 N 
HETATM    4  C   UNL     1     -40.982  58.928 -53.425  1.00  0.00     0.248 C 
HETATM    5  O   UNL     1     -39.758  58.975 -53.361  1.00  0.00    -0.271 OA
HETATM    6  H   UNL     1     -42.838  58.830 -52.582  1.00  0.00     0.171 HD
BRANCH   4   7
HETATM    7  C   UNL     1     -41.718  59.075 -54.765  1.00  0.00     0.278 C 
BRANCH   7   8
HETATM    8  O   UNL     1     -43.032  58.526 -54.808  1.00  0.00    -0.339 OA
BRANCH   8   9
HETATM    9  C   UNL     1     -43.062  57.209 -55.175  1.00  0.00     0.102 A 
HETATM   10  C   UNL     1     -42.776  56.764 -56.469  1.00  0.00     0.101 A 
HETATM   11  C   UNL     1     -42.776  55.399 -56.760  1.00  0.00     0.039 A 
HETATM   12  C   UNL     1     -43.120  54.480 -55.767  1.00  0.00     0.003 A 
HETATM   13  C   UNL     1     -43.457  54.926 -54.489  1.00  0.00     0.003 A 
HETATM   14  C   UNL     1     -43.433  56.290 -54.194  1.00  0.00     0.039 A 
BRANCH  10  15
HETATM   15  O   UNL     1     -42.414  57.627 -57.469  1.00  0.00    -0.353 OA
HETATM   16  C   UNL     1     -42.780  57.078 -58.738  1.00  0.00     0.210 C 
ENDBRANCH  10  15
ENDBRANCH   8   9
ENDBRANCH   7   8
ENDBRANCH   4   7
ENDBRANCH   1   3
BRANCH   1  17
HETATM   17  N   UNL     1     -41.922  57.286 -50.594  1.00  0.00    -0.274 N 
HETATM   18  H   UNL     1     -42.365  57.098 -49.696  1.00  0.00     0.189 HD
BRANCH  17  19
HETATM   19  N   UNL     1     -41.228  56.185 -51.134  1.00  0.00    -0.274 N 
HETATM   20  H   UNL     1     -40.689  56.389 -51.976  1.00  0.00     0.189 HD
BRANCH  19  21
HETATM   21  C   UNL     1     -41.665  54.904 -50.927  1.00  0.00     0.191 C 
HETATM   22  S   UNL     1     -43.279  54.476 -50.755  1.00  0.00    -0.039 SA
BRANCH  21  23
HETATM   23  N   UNL     1     -40.732  53.908 -50.887  1.00  0.00    -0.332 N 
HETATM   24  H   UNL     1     -40.183  53.919 -50.034  1.00  0.00     0.168 HD
BRANCH  23  25
HETATM   25  C   UNL     1     -40.348  52.940 -51.840  1.00  0.00     0.034 A 
HETATM   26  C   UNL     1     -39.813  51.691 -51.521  1.00  0.00     0.029 A 
HETATM   27  C   UNL     1     -39.481  50.782 -52.533  1.00  0.00     0.002 A 
HETATM   28  C   UNL     1     -39.700  51.108 -53.869  1.00  0.00     0.000 A 
HETATM   29  C   UNL     1     -40.262  52.339 -54.195  1.00  0.00     0.002 A 
HETATM   30  C   UNL     1     -40.590  53.246 -53.185  1.00  0.00     0.029 A 
ENDBRANCH  23  25
ENDBRANCH  21  23
ENDBRANCH  19  21
ENDBRANCH  17  19
ENDBRANCH   1  17
TORSDOF 10
ENDMDL
MODEL 7
REMARK VINA RESULT:      -6.5      2.630      7.198
REMARK  10 active torsions:
REMARK  status: ('A' for Active; 'I' for Inactive)
REMARK    1  A    between atoms: O_2  and  C_3 
REMARK    2  A    between atoms: C_4  and  O_5 
REMARK    3  A    between atoms: O_5  and  C_6 
REMARK    4  A    between atoms: C_6  and  C_7 
REMARK       I    between atoms: C_7  and  N_8 
REMARK    5  A    between atoms: N_8  and  C_9 
REMARK    6  A    between atoms: C_9  and  N_10 
REMARK    7  A    between atoms: N_10  and  N_11 
REMARK    8  A    between atoms: N_11  and  C_12 
REMARK    9  A    between atoms: C_12  and  N_13 
REMARK   10  A    between atoms: N_13  and  C_14 
ROOT
HETATM    1  C   UNL     1     -44.258  57.250 -52.177  1.00  0.00     0.193 C 
HETATM    2  S   UNL     1     -44.970  58.533 -51.373  1.00  0.00    -0.039 SA
ENDROOT
BRANCH   1   3
HETATM    3  N   UNL     1     -43.246  56.420 -51.686  1.00  0.00    -0.301 N 
HETATM    4  C   UNL     1     -41.945  56.720 -51.267  1.00  0.00     0.248 C 
HETATM    5  O   UNL     1     -41.416  57.826 -51.289  1.00  0.00    -0.271 OA
HETATM    6  H   UNL     1     -43.483  55.439 -51.665  1.00  0.00     0.171 HD
BRANCH   4   7
HETATM    7  C   UNL     1     -41.184  55.479 -50.777  1.00  0.00     0.278 C 
BRANCH   7   8
HETATM    8  O   UNL     1     -41.828  54.230 -51.011  1.00  0.00    -0.339 OA
BRANCH   8   9
HETATM    9  C   UNL     1     -41.223  53.477 -51.979  1.00  0.00     0.102 A 
HETATM   10  C   UNL     1     -41.585  53.521 -53.328  1.00  0.00     0.101 A 
HETATM   11  C   UNL     1     -40.889  52.762 -54.270  1.00  0.00     0.039 A 
HETATM   12  C   UNL     1     -39.866  51.910 -53.851  1.00  0.00     0.003 A 
HETATM   13  C   UNL     1     -39.537  51.825 -52.498  1.00  0.00     0.003 A 
HETATM   14  C   UNL     1     -40.219  52.603 -51.561  1.00  0.00     0.039 A 
BRANCH  10  15
HETATM   15  O   UNL     1     -42.569  54.357 -53.787  1.00  0.00    -0.353 OA
HETATM   16  C   UNL     1     -42.898  54.020 -55.137  1.00  0.00     0.210 C 
ENDBRANCH  10  15
ENDBRANCH   8   9
ENDBRANCH   7   8
ENDBRANCH   4   7
ENDBRANCH   1   3
BRANCH   1  17
HETATM   17  N   UNL     1     -44.657  56.834 -53.450  1.00  0.00    -0.274 N 
HETATM   18  H   UNL     1     -45.207  55.987 -53.579  1.00  0.00     0.189 HD
BRANCH  17  19
HETATM   19  N   UNL     1     -43.932  57.229 -54.592  1.00  0.00    -0.274 N 
HETATM   20  H   UNL     1     -42.930  57.352 -54.443  1.00  0.00     0.189 HD
BRANCH  19  21
HETATM   21  C   UNL     1     -44.536  57.921 -55.607  1.00  0.00     0.191 C 
HETATM   22  S   UNL     1     -45.154  59.474 -55.450  1.00  0.00    -0.039 SA
BRANCH  21  23
HETATM   23  N   UNL     1     -44.615  57.323 -56.831  1.00  0.00    -0.332 N 
HETATM   24  H   UNL     1     -45.443  56.745 -56.932  1.00  0.00     0.168 HD
BRANCH  23  25
HETATM   25  C   UNL     1     -43.725  57.300 -57.926  1.00  0.00     0.034 A 
HETATM   26  C   UNL     1     -42.953  58.388 -58.336  1.00  0.00     0.029 A 
HETATM   27  C   UNL     1     -42.078  58.267 -59.422  1.00  0.00     0.002 A 
HETATM   28  C   UNL     1     -41.954  57.054 -60.093  1.00  0.00     0.000 A 
HETATM   29  C   UNL     1     -42.696  55.954 -59.672  1.00  0.00     0.002 A 
HETATM   30  C   UNL     1     -43.572  56.076 -58.590  1.00  0.00     0.029 A 
ENDBRANCH  23  25
ENDBRANCH  21  23
ENDBRANCH  19  21
ENDBRANCH  17  19
ENDBRANCH   1  17
TORSDOF 10
ENDMDL
MODEL 8
REMARK VINA RESULT:      -6.5      3.413      6.009
REMARK  10 active torsions:
REMARK  status: ('A' for Active; 'I' for Inactive)
REMARK    1  A    between atoms: O_2  and  C_3 
REMARK    2  A    between atoms: C_4  and  O_5 
REMARK    3  A    between atoms: O_5  and  C_6 
REMARK    4  A    between atoms: C_6  and  C_7 
REMARK       I    between atoms: C_7  and  N_8 
REMARK    5  A    between atoms: N_8  and  C_9 
REMARK    6  A    between atoms: C_9  and  N_10 
REMARK    7  A    between atoms: N_10  and  N_11 
REMARK    8  A    between atoms: N_11  and  C_12 
REMARK    9  A    between atoms: C_12  and  N_13 
REMARK   10  A    between atoms: N_13  and  C_14 
ROOT
HETATM    1  C   UNL     1     -42.407  57.704 -57.024  1.00  0.00     0.193 C 
HETATM    2  S   UNL     1     -42.035  58.614 -58.379  1.00  0.00    -0.039 SA
ENDROOT
BRANCH   1   3
HETATM    3  N   UNL     1     -43.003  58.168 -55.849  1.00  0.00    -0.301 N 
HETATM    4  C   UNL     1     -42.539  59.073 -54.888  1.00  0.00     0.248 C 
HETATM    5  O   UNL     1     -41.446  59.629 -54.886  1.00  0.00    -0.271 OA
HETATM    6  H   UNL     1     -43.901  57.754 -55.644  1.00  0.00     0.171 HD
BRANCH   4   7
HETATM    7  C   UNL     1     -43.555  59.306 -53.760  1.00  0.00     0.278 C 
BRANCH   7   8
HETATM    8  O   UNL     1     -42.999  59.526 -52.467  1.00  0.00    -0.339 OA
BRANCH   8   9
HETATM    9  C   UNL     1     -42.664  58.372 -51.813  1.00  0.00     0.102 A 
HETATM   10  C   UNL     1     -41.357  58.053 -51.435  1.00  0.00     0.101 A 
HETATM   11  C   UNL     1     -41.096  56.881 -50.724  1.00  0.00     0.039 A 
HETATM   12  C   UNL     1     -42.138  55.997 -50.442  1.00  0.00     0.003 A 
HETATM   13  C   UNL     1     -43.435  56.288 -50.863  1.00  0.00     0.003 A 
HETATM   14  C   UNL     1     -43.698  57.473 -51.554  1.00  0.00     0.039 A 
BRANCH  10  15
HETATM   15  O   UNL     1     -40.307  58.900 -51.673  1.00  0.00    -0.353 OA
HETATM   16  C   UNL     1     -39.917  59.541 -50.456  1.00  0.00     0.210 C 
ENDBRANCH  10  15
ENDBRANCH   8   9
ENDBRANCH   7   8
ENDBRANCH   4   7
ENDBRANCH   1   3
BRANCH   1  17
HETATM   17  N   UNL     1     -42.194  56.325 -56.953  1.00  0.00    -0.274 N 
HETATM   18  H   UNL     1     -42.784  55.673 -57.468  1.00  0.00     0.189 HD
BRANCH  17  19
HETATM   19  N   UNL     1     -41.549  55.756 -55.836  1.00  0.00    -0.274 N 
HETATM   20  H   UNL     1     -40.531  55.820 -55.851  1.00  0.00     0.189 HD
BRANCH  19  21
HETATM   21  C   UNL     1     -42.134  54.746 -55.121  1.00  0.00     0.191 C 
HETATM   22  S   UNL     1     -43.634  54.866 -54.376  1.00  0.00    -0.039 SA
BRANCH  21  23
HETATM   23  N   UNL     1     -41.469  53.557 -55.032  1.00  0.00    -0.332 N 
HETATM   24  H   UNL     1     -41.544  53.002 -55.879  1.00  0.00     0.168 HD
BRANCH  23  25
HETATM   25  C   UNL     1     -40.784  52.941 -53.964  1.00  0.00     0.034 A 
HETATM   26  C   UNL     1     -40.633  53.504 -52.695  1.00  0.00     0.029 A 
HETATM   27  C   UNL     1     -39.956  52.809 -51.687  1.00  0.00     0.002 A 
HETATM   28  C   UNL     1     -39.440  51.540 -51.933  1.00  0.00     0.000 A 
HETATM   29  C   UNL     1     -39.611  50.956 -53.185  1.00  0.00     0.002 A 
HETATM   30  C   UNL     1     -40.285  51.652 -54.193  1.00  0.00     0.029 A 
ENDBRANCH  23  25
ENDBRANCH  21  23
ENDBRANCH  19  21
ENDBRANCH  17  19
ENDBRANCH   1  17
TORSDOF 10
ENDMDL
MODEL 9
REMARK VINA RESULT:      -6.5      2.212      7.600
REMARK  10 active torsions:
REMARK  status: ('A' for Active; 'I' for Inactive)
REMARK    1  A    between atoms: O_2  and  C_3 
REMARK    2  A    between atoms: C_4  and  O_5 
REMARK    3  A    between atoms: O_5  and  C_6 
REMARK    4  A    between atoms: C_6  and  C_7 
REMARK       I    between atoms: C_7  and  N_8 
REMARK    5  A    between atoms: N_8  and  C_9 
REMARK    6  A    between atoms: C_9  and  N_10 
REMARK    7  A    between atoms: N_10  and  N_11 
REMARK    8  A    between atoms: N_11  and  C_12 
REMARK    9  A    between atoms: C_12  and  N_13 
REMARK   10  A    between atoms: N_13  and  C_14 
ROOT
HETATM    1  C   UNL     1     -44.339  56.994 -53.421  1.00  0.00     0.193 C 
HETATM    2  S   UNL     1     -44.426  58.577 -52.887  1.00  0.00    -0.039 SA
ENDROOT
BRANCH   1   3
HETATM    3  N   UNL     1     -43.644  55.947 -52.809  1.00  0.00    -0.301 N 
HETATM    4  C   UNL     1     -43.617  55.529 -51.474  1.00  0.00     0.248 C 
HETATM    5  O   UNL     1     -44.209  56.059 -50.539  1.00  0.00    -0.271 OA
HETATM    6  H   UNL     1     -43.033  55.432 -53.427  1.00  0.00     0.171 HD
BRANCH   4   7
HETATM    7  C   UNL     1     -42.718  54.303 -51.258  1.00  0.00     0.278 C 
BRANCH   7   8
HETATM    8  O   UNL     1     -41.335  54.497 -51.543  1.00  0.00    -0.339 OA
BRANCH   8   9
HETATM    9  C   UNL     1     -40.774  53.468 -52.248  1.00  0.00     0.102 A 
HETATM   10  C   UNL     1     -40.900  53.323 -53.633  1.00  0.00     0.101 A 
HETATM   11  C   UNL     1     -40.256  52.276 -54.292  1.00  0.00     0.039 A 
HETATM   12  C   UNL     1     -39.532  51.336 -53.557  1.00  0.00     0.003 A 
HETATM   13  C   UNL     1     -39.447  51.449 -52.169  1.00  0.00     0.003 A 
HETATM   14  C   UNL     1     -40.073  52.511 -51.513  1.00  0.00     0.039 A 
BRANCH  10  15
HETATM   15  O   UNL     1     -41.584  54.231 -54.396  1.00  0.00    -0.353 OA
HETATM   16  C   UNL     1     -40.700  55.276 -54.812  1.00  0.00     0.210 C 
ENDBRANCH  10  15
ENDBRANCH   8   9
ENDBRANCH   7   8
ENDBRANCH   4   7
ENDBRANCH   1   3
BRANCH   1  17
HETATM   17  N   UNL     1     -45.022  56.533 -54.550  1.00  0.00    -0.274 N 
HETATM   18  H   UNL     1     -44.997  55.551 -54.817  1.00  0.00     0.189 HD
BRANCH  17  19
HETATM   19  N   UNL     1     -45.324  57.410 -55.611  1.00  0.00    -0.274 N 
HETATM   20  H   UNL     1     -46.303  57.414 -55.898  1.00  0.00     0.189 HD
BRANCH  19  21
HETATM   21  C   UNL     1     -44.369  57.767 -56.525  1.00  0.00     0.191 C 
HETATM   22  S   UNL     1     -43.675  59.294 -56.614  1.00  0.00    -0.039 SA
BRANCH  21  23
HETATM   23  N   UNL     1     -43.932  56.815 -57.401  1.00  0.00    -0.332 N 
HETATM   24  H   UNL     1     -43.037  56.418 -57.134  1.00  0.00     0.168 HD
BRANCH  23  25
HETATM   25  C   UNL     1     -44.455  56.357 -58.629  1.00  0.00     0.034 A 
HETATM   26  C   UNL     1     -43.999  55.224 -59.305  1.00  0.00     0.029 A 
HETATM   27  C   UNL     1     -44.592  54.830 -60.509  1.00  0.00     0.002 A 
HETATM   28  C   UNL     1     -45.658  55.554 -61.037  1.00  0.00     0.000 A 
HETATM   29  C   UNL     1     -46.140  56.668 -60.355  1.00  0.00     0.002 A 
HETATM   30  C   UNL     1     -45.545  57.062 -59.154  1.00  0.00     0.029 A 
ENDBRANCH  23  25
ENDBRANCH  21  23
ENDBRANCH  19  21
ENDBRANCH  17  19
ENDBRANCH   1  17
TORSDOF 10
ENDMDL
MODEL 10
REMARK VINA RESULT:      -6.3      2.794      3.857
REMARK  10 active torsions:
REMARK  status: ('A' for Active; 'I' for Inactive)
REMARK    1  A    between atoms: O_2  and  C_3 
REMARK    2  A    between atoms: C_4  and  O_5 
REMARK    3  A    between atoms: O_5  and  C_6 
REMARK    4  A    between atoms: C_6  and  C_7 
REMARK       I    between atoms: C_7  and  N_8 
REMARK    5  A    between atoms: N_8  and  C_9 
REMARK    6  A    between atoms: C_9  and  N_10 
REMARK    7  A    between atoms: N_10  and  N_11 
REMARK    8  A    between atoms: N_11  and  C_12 
REMARK    9  A    between atoms: C_12  and  N_13 
REMARK   10  A    between atoms: N_13  and  C_14 
ROOT
HETATM    1  C   UNL     1     -41.990  58.875 -51.188  1.00  0.00     0.193 C 
HETATM    2  S   UNL     1     -41.141  59.629 -49.958  1.00  0.00    -0.039 SA
ENDROOT
BRANCH   1   3
HETATM    3  N   UNL     1     -42.286  59.412 -52.444  1.00  0.00    -0.301 N 
HETATM    4  C   UNL     1     -41.475  59.599 -53.570  1.00  0.00     0.248 C 
HETATM    5  O   UNL     1     -40.279  59.339 -53.650  1.00  0.00    -0.271 OA
HETATM    6  H   UNL     1     -43.230  59.755 -52.540  1.00  0.00     0.171 HD
BRANCH   4   7
HETATM    7  C   UNL     1     -42.241  60.213 -54.751  1.00  0.00     0.278 C 
BRANCH   7   8
HETATM    8  O   UNL     1     -43.430  59.529 -55.136  1.00  0.00    -0.339 OA
BRANCH   8   9
HETATM    9  C   UNL     1     -43.201  58.448 -55.942  1.00  0.00     0.102 A 
HETATM   10  C   UNL     1     -43.115  57.136 -55.465  1.00  0.00     0.101 A 
HETATM   11  C   UNL     1     -42.931  56.075 -56.353  1.00  0.00     0.039 A 
HETATM   12  C   UNL     1     -42.774  56.333 -57.716  1.00  0.00     0.003 A 
HETATM   13  C   UNL     1     -42.807  57.646 -58.187  1.00  0.00     0.003 A 
HETATM   14  C   UNL     1     -43.015  58.703 -57.300  1.00  0.00     0.039 A 
BRANCH  10  15
HETATM   15  O   UNL     1     -43.283  56.834 -54.140  1.00  0.00    -0.353 OA
HETATM   16  C   UNL     1     -44.546  56.191 -53.947  1.00  0.00     0.210 C 
ENDBRANCH  10  15
ENDBRANCH   8   9
ENDBRANCH   7   8
ENDBRANCH   4   7
ENDBRANCH   1   3
BRANCH   1  17
HETATM   17  N   UNL     1     -42.460  57.563 -51.095  1.00  0.00    -0.274 N 
HETATM   18  H   UNL     1     -43.051  57.269 -50.319  1.00  0.00     0.189 HD
BRANCH  17  19
HETATM   19  N   UNL     1     -41.768  56.508 -51.722  1.00  0.00    -0.274 N 
HETATM   20  H   UNL     1     -41.541  56.668 -52.704  1.00  0.00     0.189 HD
BRANCH  19  21
HETATM   21  C   UNL     1     -41.894  55.219 -51.279  1.00  0.00     0.191 C 
HETATM   22  S   UNL     1     -43.320  54.563 -50.682  1.00  0.00    -0.039 SA
BRANCH  21  23
HETATM   23  N   UNL     1     -40.799  54.407 -51.352  1.00  0.00    -0.332 N 
HETATM   24  H   UNL     1     -40.053  54.697 -50.728  1.00  0.00     0.168 HD
BRANCH  23  25
HETATM   25  C   UNL     1     -40.496  53.310 -52.186  1.00  0.00     0.034 A 
HETATM   26  C   UNL     1     -40.722  53.282 -53.564  1.00  0.00     0.029 A 
HETATM   27  C   UNL     1     -40.368  52.157 -54.318  1.00  0.00     0.002 A 
HETATM   28  C   UNL     1     -39.769  51.060 -53.705  1.00  0.00     0.000 A 
HETATM   29  C   UNL     1     -39.511  51.091 -52.337  1.00  0.00     0.002 A 
HETATM   30  C   UNL     1     -39.867  52.213 -51.584  1.00  0.00     0.029 A 
ENDBRANCH  23  25
ENDBRANCH  21  23
ENDBRANCH  19  21
ENDBRANCH  17  19
ENDBRANCH   1  17
TORSDOF 10
ENDMDL
