MODEL 1
REMARK VINA RESULT:      -9.1      0.000      0.000
REMARK  3 active torsions:
REMARK  status: ('A' for Active; 'I' for Inactive)
REMARK    1  A    between atoms: N_12  and  C_13 
REMARK    2  A    between atoms: C_13  and  C_14 
REMARK       I    between atoms: C_14  and  N_15 
REMARK    3  A    between atoms: N_15  and  C_16 
ROOT
HETATM    1  C   UNL     1     -41.383  63.309 -60.636  1.00  0.00     0.048 C 
HETATM    2  C   UNL     1     -41.636  61.867 -60.306  1.00  0.00    -0.061 A 
HETATM    3  C   UNL     1     -41.683  61.438 -58.969  1.00  0.00     0.021 A 
HETATM    4  C   UNL     1     -41.927  60.080 -58.676  1.00  0.00     0.005 A 
HETATM    5  C   UNL     1     -42.119  59.186 -59.735  1.00  0.00     0.044 A 
HETATM    6  N   UNL     1     -42.342  57.937 -59.188  1.00  0.00    -0.350 N 
HETATM    7  H   UNL     1     -42.522  57.089 -59.711  1.00  0.00     0.166 HD
HETATM    8  C   UNL     1     -42.296  58.021 -57.827  1.00  0.00     0.116 A 
HETATM    9  C   UNL     1     -42.044  59.325 -57.484  1.00  0.00     0.028 A 
HETATM   10  C   UNL     1     -42.485  56.976 -56.862  1.00  0.00     0.291 A 
HETATM   11  O   UNL     1     -42.734  55.817 -57.176  1.00  0.00    -0.264 OA
HETATM   12  N   UNL     1     -42.336  57.425 -55.535  1.00  0.00    -0.224 N 
HETATM   13  N   UNL     1     -42.109  58.770 -55.171  1.00  0.00    -0.180 NA
HETATM   14  C   UNL     1     -41.962  59.674 -56.096  1.00  0.00     0.153 A 
HETATM   15  C   UNL     1     -42.077  59.589 -61.074  1.00  0.00     0.031 A 
HETATM   16  C   UNL     1     -41.833  60.942 -61.337  1.00  0.00     0.009 A 
ENDROOT
BRANCH  12  17
HETATM   17  C   UNL     1     -42.643  56.510 -54.447  1.00  0.00     0.258 C 
BRANCH  17  18
HETATM   18  C   UNL     1     -41.590  55.517 -53.927  1.00  0.00     0.244 C 
HETATM   19  N   UNL     1     -41.952  54.450 -53.101  1.00  0.00    -0.320 N 
HETATM   20  C   UNL     1     -43.318  54.161 -52.680  1.00  0.00     0.159 C 
HETATM   21  O   UNL     1     -40.440  55.634 -54.378  1.00  0.00    -0.271 OA
BRANCH  19  22
HETATM   22  C   UNL     1     -41.005  53.410 -52.837  1.00  0.00     0.043 A 
HETATM   23  C   UNL     1     -40.328  53.325 -51.606  1.00  0.00    -0.035 A 
HETATM   24  C   UNL     1     -40.423  54.395 -50.553  1.00  0.00     0.050 C 
HETATM   25  C   UNL     1     -39.516  52.206 -51.354  1.00  0.00     0.009 A 
HETATM   26  C   UNL     1     -39.356  51.203 -52.313  1.00  0.00     0.007 A 
HETATM   27  C   UNL     1     -39.992  51.302 -53.551  1.00  0.00    -0.060 A 
HETATM   28  C   UNL     1     -39.859  50.217 -54.577  1.00  0.00     0.048 C 
HETATM   29  C   UNL     1     -40.814  52.408 -53.803  1.00  0.00     0.037 A 
ENDBRANCH  19  22
ENDBRANCH  17  18
ENDBRANCH  12  17
TORSDOF 3
ENDMDL
MODEL 2
REMARK VINA RESULT:      -8.9      4.344      9.585
REMARK  3 active torsions:
REMARK  status: ('A' for Active; 'I' for Inactive)
REMARK    1  A    between atoms: N_12  and  C_13 
REMARK    2  A    between atoms: C_13  and  C_14 
REMARK       I    between atoms: C_14  and  N_15 
REMARK    3  A    between atoms: N_15  and  C_16 
ROOT
HETATM    1  C   UNL     1     -39.451  49.502 -54.552  1.00  0.00     0.048 C 
HETATM    2  C   UNL     1     -39.673  50.323 -53.315  1.00  0.00    -0.061 A 
HETATM    3  C   UNL     1     -39.994  51.687 -53.412  1.00  0.00     0.021 A 
HETATM    4  C   UNL     1     -40.204  52.443 -52.240  1.00  0.00     0.005 A 
HETATM    5  C   UNL     1     -40.088  51.808 -50.998  1.00  0.00     0.044 A 
HETATM    6  N   UNL     1     -40.343  52.754 -50.024  1.00  0.00    -0.350 N 
HETATM    7  H   UNL     1     -40.340  52.586 -49.025  1.00  0.00     0.166 HD
HETATM    8  C   UNL     1     -40.616  53.954 -50.613  1.00  0.00     0.116 A 
HETATM    9  C   UNL     1     -40.538  53.793 -51.973  1.00  0.00     0.028 A 
HETATM   10  C   UNL     1     -40.947  55.201 -49.986  1.00  0.00     0.291 A 
HETATM   11  O   UNL     1     -41.038  55.331 -48.769  1.00  0.00    -0.264 OA
HETATM   12  N   UNL     1     -41.137  56.244 -50.913  1.00  0.00    -0.224 N 
HETATM   13  N   UNL     1     -41.092  56.082 -52.314  1.00  0.00    -0.180 NA
HETATM   14  C   UNL     1     -40.800  54.919 -52.821  1.00  0.00     0.153 A 
HETATM   15  C   UNL     1     -39.769  50.452 -50.876  1.00  0.00     0.031 A 
HETATM   16  C   UNL     1     -39.565  49.725 -52.055  1.00  0.00     0.009 A 
ENDROOT
BRANCH  12  17
HETATM   17  C   UNL     1     -41.620  57.529 -50.432  1.00  0.00     0.258 C 
BRANCH  17  18
HETATM   18  C   UNL     1     -42.387  58.486 -51.363  1.00  0.00     0.244 C 
HETATM   19  N   UNL     1     -43.744  58.296 -51.630  1.00  0.00    -0.320 N 
HETATM   20  C   UNL     1     -44.555  57.227 -51.059  1.00  0.00     0.159 C 
HETATM   21  O   UNL     1     -41.777  59.493 -51.753  1.00  0.00    -0.271 OA
BRANCH  19  22
HETATM   22  C   UNL     1     -44.484  59.328 -52.291  1.00  0.00     0.043 A 
HETATM   23  C   UNL     1     -44.675  59.320 -53.686  1.00  0.00    -0.035 A 
HETATM   24  C   UNL     1     -43.993  58.333 -54.592  1.00  0.00     0.050 C 
HETATM   25  C   UNL     1     -45.524  60.282 -54.259  1.00  0.00     0.009 A 
HETATM   26  C   UNL     1     -46.150  61.250 -53.471  1.00  0.00     0.007 A 
HETATM   27  C   UNL     1     -45.931  61.289 -52.094  1.00  0.00    -0.060 A 
HETATM   28  C   UNL     1     -46.623  62.299 -51.229  1.00  0.00     0.048 C 
HETATM   29  C   UNL     1     -45.098  60.324 -51.514  1.00  0.00     0.037 A 
ENDBRANCH  19  22
ENDBRANCH  17  18
ENDBRANCH  12  17
TORSDOF 3
ENDMDL
MODEL 3
REMARK VINA RESULT:      -8.9      4.388      6.238
REMARK  3 active torsions:
REMARK  status: ('A' for Active; 'I' for Inactive)
REMARK    1  A    between atoms: N_12  and  C_13 
REMARK    2  A    between atoms: C_13  and  C_14 
REMARK       I    between atoms: C_14  and  N_15 
REMARK    3  A    between atoms: N_15  and  C_16 
ROOT
HETATM    1  C   UNL     1     -45.194  62.865 -47.673  1.00  0.00     0.048 C 
HETATM    2  C   UNL     1     -44.518  62.390 -48.926  1.00  0.00    -0.061 A 
HETATM    3  C   UNL     1     -44.675  61.064 -49.363  1.00  0.00     0.021 A 
HETATM    4  C   UNL     1     -44.036  60.636 -50.545  1.00  0.00     0.005 A 
HETATM    5  C   UNL     1     -43.257  61.551 -51.261  1.00  0.00     0.044 A 
HETATM    6  N   UNL     1     -42.754  60.892 -52.366  1.00  0.00    -0.350 N 
HETATM    7  H   UNL     1     -42.159  61.302 -53.075  1.00  0.00     0.166 HD
HETATM    8  C   UNL     1     -43.192  59.600 -52.366  1.00  0.00     0.116 A 
HETATM    9  C   UNL     1     -43.982  59.414 -51.260  1.00  0.00     0.028 A 
HETATM   10  C   UNL     1     -42.927  58.567 -53.325  1.00  0.00     0.291 A 
HETATM   11  O   UNL     1     -42.239  58.748 -54.325  1.00  0.00    -0.264 OA
HETATM   12  N   UNL     1     -43.525  57.339 -52.984  1.00  0.00    -0.224 N 
HETATM   13  N   UNL     1     -44.366  57.146 -51.868  1.00  0.00    -0.180 NA
HETATM   14  C   UNL     1     -44.580  58.129 -51.042  1.00  0.00     0.153 A 
HETATM   15  C   UNL     1     -43.085  62.876 -50.846  1.00  0.00     0.031 A 
HETATM   16  C   UNL     1     -43.729  63.275 -49.669  1.00  0.00     0.009 A 
ENDROOT
BRANCH  12  17
HETATM   17  C   UNL     1     -43.465  56.241 -53.937  1.00  0.00     0.258 C 
BRANCH  17  18
HETATM   18  C   UNL     1     -42.772  54.916 -53.576  1.00  0.00     0.244 C 
HETATM   19  N   UNL     1     -41.408  54.729 -53.809  1.00  0.00    -0.320 N 
HETATM   20  C   UNL     1     -40.523  55.741 -54.375  1.00  0.00     0.159 C 
HETATM   21  O   UNL     1     -43.451  54.082 -52.957  1.00  0.00    -0.271 OA
BRANCH  19  22
HETATM   22  C   UNL     1     -40.745  53.594 -53.244  1.00  0.00     0.043 A 
HETATM   23  C   UNL     1     -40.427  53.532 -51.874  1.00  0.00    -0.035 A 
HETATM   24  C   UNL     1     -40.611  54.701 -50.946  1.00  0.00     0.050 C 
HETATM   25  C   UNL     1     -39.901  52.338 -51.353  1.00  0.00     0.009 A 
HETATM   26  C   UNL     1     -39.669  51.235 -52.177  1.00  0.00     0.007 A 
HETATM   27  C   UNL     1     -39.942  51.304 -53.544  1.00  0.00    -0.060 A 
HETATM   28  C   UNL     1     -39.732  50.117 -54.435  1.00  0.00     0.048 C 
HETATM   29  C   UNL     1     -40.480  52.486 -54.067  1.00  0.00     0.037 A 
ENDBRANCH  19  22
ENDBRANCH  17  18
ENDBRANCH  12  17
TORSDOF 3
ENDMDL
MODEL 4
REMARK VINA RESULT:      -8.8      2.793      9.013
REMARK  3 active torsions:
REMARK  status: ('A' for Active; 'I' for Inactive)
REMARK    1  A    between atoms: N_12  and  C_13 
REMARK    2  A    between atoms: C_13  and  C_14 
REMARK       I    between atoms: C_14  and  N_15 
REMARK    3  A    between atoms: N_15  and  C_16 
ROOT
HETATM    1  C   UNL     1     -39.467  49.798 -54.217  1.00  0.00     0.048 C 
HETATM    2  C   UNL     1     -39.825  51.118 -53.599  1.00  0.00    -0.061 A 
HETATM    3  C   UNL     1     -40.488  52.102 -54.351  1.00  0.00     0.021 A 
HETATM    4  C   UNL     1     -40.822  53.335 -53.753  1.00  0.00     0.005 A 
HETATM    5  C   UNL     1     -40.484  53.549 -52.413  1.00  0.00     0.044 A 
HETATM    6  N   UNL     1     -40.921  54.814 -52.071  1.00  0.00    -0.350 N 
HETATM    7  H   UNL     1     -40.823  55.244 -51.160  1.00  0.00     0.166 HD
HETATM    8  C   UNL     1     -41.520  55.397 -53.150  1.00  0.00     0.116 A 
HETATM    9  C   UNL     1     -41.475  54.511 -54.197  1.00  0.00     0.028 A 
HETATM   10  C   UNL     1     -42.124  56.694 -53.242  1.00  0.00     0.291 A 
HETATM   11  O   UNL     1     -42.182  57.471 -52.294  1.00  0.00    -0.264 OA
HETATM   12  N   UNL     1     -42.622  56.974 -54.530  1.00  0.00    -0.224 N 
HETATM   13  N   UNL     1     -42.610  56.058 -55.604  1.00  0.00    -0.180 NA
HETATM   14  C   UNL     1     -42.059  54.889 -55.451  1.00  0.00     0.153 A 
HETATM   15  C   UNL     1     -39.824  52.585 -51.643  1.00  0.00     0.031 A 
HETATM   16  C   UNL     1     -39.503  51.370 -52.260  1.00  0.00     0.009 A 
ENDROOT
BRANCH  12  17
HETATM   17  C   UNL     1     -43.391  58.191 -54.735  1.00  0.00     0.258 C 
BRANCH  17  18
HETATM   18  C   UNL     1     -44.535  58.242 -55.763  1.00  0.00     0.244 C 
HETATM   19  N   UNL     1     -44.312  58.687 -57.067  1.00  0.00    -0.320 N 
HETATM   20  C   UNL     1     -43.014  59.111 -57.583  1.00  0.00     0.159 C 
HETATM   21  O   UNL     1     -45.620  57.752 -55.414  1.00  0.00    -0.271 OA
BRANCH  19  22
HETATM   22  C   UNL     1     -45.322  58.493 -58.062  1.00  0.00     0.043 A 
HETATM   23  C   UNL     1     -46.261  59.497 -58.364  1.00  0.00    -0.035 A 
HETATM   24  C   UNL     1     -46.375  60.766 -57.567  1.00  0.00     0.050 C 
HETATM   25  C   UNL     1     -47.140  59.300 -59.442  1.00  0.00     0.009 A 
HETATM   26  C   UNL     1     -47.109  58.121 -60.191  1.00  0.00     0.007 A 
HETATM   27  C   UNL     1     -46.209  57.105 -59.869  1.00  0.00    -0.060 A 
HETATM   28  C   UNL     1     -46.138  55.849 -60.685  1.00  0.00     0.048 C 
HETATM   29  C   UNL     1     -45.320  57.300 -58.805  1.00  0.00     0.037 A 
ENDBRANCH  19  22
ENDBRANCH  17  18
ENDBRANCH  12  17
TORSDOF 3
ENDMDL
MODEL 5
REMARK VINA RESULT:      -8.7      2.670      9.112
REMARK  3 active torsions:
REMARK  status: ('A' for Active; 'I' for Inactive)
REMARK    1  A    between atoms: N_12  and  C_13 
REMARK    2  A    between atoms: C_13  and  C_14 
REMARK       I    between atoms: C_14  and  N_15 
REMARK    3  A    between atoms: N_15  and  C_16 
ROOT
HETATM    1  C   UNL     1     -39.339  49.763 -54.060  1.00  0.00     0.048 C 
HETATM    2  C   UNL     1     -39.744  51.104 -53.521  1.00  0.00    -0.061 A 
HETATM    3  C   UNL     1     -40.311  52.072 -54.367  1.00  0.00     0.021 A 
HETATM    4  C   UNL     1     -40.691  53.325 -53.843  1.00  0.00     0.005 A 
HETATM    5  C   UNL     1     -40.493  53.575 -52.481  1.00  0.00     0.044 A 
HETATM    6  N   UNL     1     -40.948  54.853 -52.223  1.00  0.00    -0.350 N 
HETATM    7  H   UNL     1     -40.942  55.310 -51.319  1.00  0.00     0.166 HD
HETATM    8  C   UNL     1     -41.423  55.410 -53.376  1.00  0.00     0.116 A 
HETATM    9  C   UNL     1     -41.278  54.493 -54.387  1.00  0.00     0.028 A 
HETATM   10  C   UNL     1     -41.998  56.709 -53.568  1.00  0.00     0.291 A 
HETATM   11  O   UNL     1     -42.146  57.514 -52.654  1.00  0.00    -0.264 OA
HETATM   12  N   UNL     1     -42.353  56.956 -54.909  1.00  0.00    -0.224 N 
HETATM   13  N   UNL     1     -42.239  56.009 -55.949  1.00  0.00    -0.180 NA
HETATM   14  C   UNL     1     -41.722  54.840 -55.706  1.00  0.00     0.153 A 
HETATM   15  C   UNL     1     -39.931  52.628 -51.619  1.00  0.00     0.031 A 
HETATM   16  C   UNL     1     -39.562  51.392 -52.164  1.00  0.00     0.009 A 
ENDROOT
BRANCH  12  17
HETATM   17  C   UNL     1     -43.081  58.174 -55.229  1.00  0.00     0.258 C 
BRANCH  17  18
HETATM   18  C   UNL     1     -44.205  58.173 -56.280  1.00  0.00     0.244 C 
HETATM   19  N   UNL     1     -43.947  58.509 -57.610  1.00  0.00    -0.320 N 
HETATM   20  C   UNL     1     -42.631  58.861 -58.131  1.00  0.00     0.159 C 
HETATM   21  O   UNL     1     -45.309  57.737 -55.916  1.00  0.00    -0.271 OA
BRANCH  19  22
HETATM   22  C   UNL     1     -44.945  58.263 -58.606  1.00  0.00     0.043 A 
HETATM   23  C   UNL     1     -45.041  57.021 -59.262  1.00  0.00    -0.035 A 
HETATM   24  C   UNL     1     -44.021  55.931 -59.087  1.00  0.00     0.050 C 
HETATM   25  C   UNL     1     -46.124  56.795 -60.129  1.00  0.00     0.009 A 
HETATM   26  C   UNL     1     -47.078  57.787 -60.363  1.00  0.00     0.007 A 
HETATM   27  C   UNL     1     -46.965  59.034 -59.748  1.00  0.00    -0.060 A 
HETATM   28  C   UNL     1     -48.000  60.098 -59.961  1.00  0.00     0.048 C 
HETATM   29  C   UNL     1     -45.896  59.262 -58.872  1.00  0.00     0.037 A 
ENDBRANCH  19  22
ENDBRANCH  17  18
ENDBRANCH  12  17
TORSDOF 3
ENDMDL
MODEL 6
REMARK VINA RESULT:      -8.7      1.702      9.384
REMARK  3 active torsions:
REMARK  status: ('A' for Active; 'I' for Inactive)
REMARK    1  A    between atoms: N_12  and  C_13 
REMARK    2  A    between atoms: C_13  and  C_14 
REMARK       I    between atoms: C_14  and  N_15 
REMARK    3  A    between atoms: N_15  and  C_16 
ROOT
HETATM    1  C   UNL     1     -39.473  49.731 -53.976  1.00  0.00     0.048 C 
HETATM    2  C   UNL     1     -39.823  51.100 -53.469  1.00  0.00    -0.061 A 
HETATM    3  C   UNL     1     -40.354  52.068 -54.337  1.00  0.00     0.021 A 
HETATM    4  C   UNL     1     -40.682  53.348 -53.843  1.00  0.00     0.005 A 
HETATM    5  C   UNL     1     -40.470  53.622 -52.488  1.00  0.00     0.044 A 
HETATM    6  N   UNL     1     -40.873  54.924 -52.261  1.00  0.00    -0.350 N 
HETATM    7  H   UNL     1     -40.846  55.401 -51.368  1.00  0.00     0.166 HD
HETATM    8  C   UNL     1     -41.328  55.471 -53.425  1.00  0.00     0.116 A 
HETATM    9  C   UNL     1     -41.224  54.525 -54.414  1.00  0.00     0.028 A 
HETATM   10  C   UNL     1     -41.852  56.788 -53.648  1.00  0.00     0.291 A 
HETATM   11  O   UNL     1     -41.965  57.620 -52.754  1.00  0.00    -0.264 OA
HETATM   12  N   UNL     1     -42.201  57.015 -54.994  1.00  0.00    -0.224 N 
HETATM   13  N   UNL     1     -42.128  56.040 -56.011  1.00  0.00    -0.180 NA
HETATM   14  C   UNL     1     -41.657  54.857 -55.740  1.00  0.00     0.153 A 
HETATM   15  C   UNL     1     -39.943  52.675 -51.604  1.00  0.00     0.031 A 
HETATM   16  C   UNL     1     -39.626  51.413 -52.120  1.00  0.00     0.009 A 
ENDROOT
BRANCH  12  17
HETATM   17  C   UNL     1     -42.880  58.253 -55.341  1.00  0.00     0.258 C 
BRANCH  17  18
HETATM   18  C   UNL     1     -42.575  58.981 -56.662  1.00  0.00     0.244 C 
HETATM   19  N   UNL     1     -43.409  58.839 -57.773  1.00  0.00    -0.320 N 
HETATM   20  C   UNL     1     -44.627  58.036 -57.791  1.00  0.00     0.159 C 
HETATM   21  O   UNL     1     -41.634  59.791 -56.649  1.00  0.00    -0.271 OA
BRANCH  19  22
HETATM   22  C   UNL     1     -43.243  59.710 -58.896  1.00  0.00     0.043 A 
HETATM   23  C   UNL     1     -42.561  59.295 -60.056  1.00  0.00    -0.035 A 
HETATM   24  C   UNL     1     -41.828  57.986 -60.140  1.00  0.00     0.050 C 
HETATM   25  C   UNL     1     -42.550  60.144 -61.176  1.00  0.00     0.009 A 
HETATM   26  C   UNL     1     -43.179  61.390 -61.140  1.00  0.00     0.007 A 
HETATM   27  C   UNL     1     -43.820  61.825 -59.979  1.00  0.00    -0.060 A 
HETATM   28  C   UNL     1     -44.530  63.145 -59.936  1.00  0.00     0.048 C 
HETATM   29  C   UNL     1     -43.848  60.978 -58.865  1.00  0.00     0.037 A 
ENDBRANCH  19  22
ENDBRANCH  17  18
ENDBRANCH  12  17
TORSDOF 3
ENDMDL
MODEL 7
REMARK VINA RESULT:      -8.4     15.537     19.506
REMARK  3 active torsions:
REMARK  status: ('A' for Active; 'I' for Inactive)
REMARK    1  A    between atoms: N_12  and  C_13 
REMARK    2  A    between atoms: C_13  and  C_14 
REMARK       I    between atoms: C_14  and  N_15 
REMARK    3  A    between atoms: N_15  and  C_16 
ROOT
HETATM    1  C   UNL     1     -30.660  39.406 -47.275  1.00  0.00     0.048 C 
HETATM    2  C   UNL     1     -31.867  39.108 -48.117  1.00  0.00    -0.061 A 
HETATM    3  C   UNL     1     -32.388  40.080 -48.986  1.00  0.00     0.021 A 
HETATM    4  C   UNL     1     -33.519  39.782 -49.774  1.00  0.00     0.005 A 
HETATM    5  C   UNL     1     -34.098  38.512 -49.670  1.00  0.00     0.044 A 
HETATM    6  N   UNL     1     -35.172  38.473 -50.538  1.00  0.00    -0.350 N 
HETATM    7  H   UNL     1     -35.780  37.678 -50.686  1.00  0.00     0.166 HD
HETATM    8  C   UNL     1     -35.283  39.673 -51.180  1.00  0.00     0.116 A 
HETATM    9  C   UNL     1     -34.281  40.495 -50.731  1.00  0.00     0.028 A 
HETATM   10  C   UNL     1     -36.243  40.069 -52.169  1.00  0.00     0.291 A 
HETATM   11  O   UNL     1     -37.121  39.319 -52.583  1.00  0.00    -0.264 OA
HETATM   12  N   UNL     1     -36.071  41.401 -52.593  1.00  0.00    -0.224 N 
HETATM   13  N   UNL     1     -35.024  42.244 -52.163  1.00  0.00    -0.180 NA
HETATM   14  C   UNL     1     -34.176  41.819 -51.272  1.00  0.00     0.153 A 
HETATM   15  C   UNL     1     -33.597  37.528 -48.811  1.00  0.00     0.031 A 
HETATM   16  C   UNL     1     -32.474  37.850 -48.040  1.00  0.00     0.009 A 
ENDROOT
BRANCH  12  17
HETATM   17  C   UNL     1     -36.877  41.895 -53.698  1.00  0.00     0.258 C 
BRANCH  17  18
HETATM   18  C   UNL     1     -36.627  41.414 -55.138  1.00  0.00     0.244 C 
HETATM   19  N   UNL     1     -37.688  41.074 -55.979  1.00  0.00    -0.320 N 
HETATM   20  C   UNL     1     -39.096  41.159 -55.605  1.00  0.00     0.159 C 
HETATM   21  O   UNL     1     -35.457  41.468 -55.549  1.00  0.00    -0.271 OA
BRANCH  19  22
HETATM   22  C   UNL     1     -37.446  40.871 -57.375  1.00  0.00     0.043 A 
HETATM   23  C   UNL     1     -37.295  39.580 -57.916  1.00  0.00    -0.035 A 
HETATM   24  C   UNL     1     -37.217  38.347 -57.060  1.00  0.00     0.050 C 
HETATM   25  C   UNL     1     -37.197  39.437 -59.311  1.00  0.00     0.009 A 
HETATM   26  C   UNL     1     -37.221  40.552 -60.152  1.00  0.00     0.007 A 
HETATM   27  C   UNL     1     -37.327  41.837 -59.618  1.00  0.00    -0.060 A 
HETATM   28  C   UNL     1     -37.390  43.041 -60.509  1.00  0.00     0.048 C 
HETATM   29  C   UNL     1     -37.441  41.985 -58.230  1.00  0.00     0.037 A 
ENDBRANCH  19  22
ENDBRANCH  17  18
ENDBRANCH  12  17
TORSDOF 3
ENDMDL
MODEL 8
REMARK VINA RESULT:      -8.1      4.753      9.221
REMARK  3 active torsions:
REMARK  status: ('A' for Active; 'I' for Inactive)
REMARK    1  A    between atoms: N_12  and  C_13 
REMARK    2  A    between atoms: C_13  and  C_14 
REMARK       I    between atoms: C_14  and  N_15 
REMARK    3  A    between atoms: N_15  and  C_16 
ROOT
HETATM    1  C   UNL     1     -39.333  50.214 -54.406  1.00  0.00     0.048 C 
HETATM    2  C   UNL     1     -39.853  51.319 -53.532  1.00  0.00    -0.061 A 
HETATM    3  C   UNL     1     -40.775  52.252 -54.034  1.00  0.00     0.021 A 
HETATM    4  C   UNL     1     -41.257  53.281 -53.198  1.00  0.00     0.005 A 
HETATM    5  C   UNL     1     -40.801  53.345 -51.877  1.00  0.00     0.044 A 
HETATM    6  N   UNL     1     -41.420  54.424 -51.277  1.00  0.00    -0.350 N 
HETATM    7  H   UNL     1     -41.292  54.717 -50.316  1.00  0.00     0.166 HD
HETATM    8  C   UNL     1     -42.247  55.034 -52.176  1.00  0.00     0.116 A 
HETATM    9  C   UNL     1     -42.167  54.353 -53.363  1.00  0.00     0.028 A 
HETATM   10  C   UNL     1     -43.089  56.178 -51.979  1.00  0.00     0.291 A 
HETATM   11  O   UNL     1     -43.173  56.768 -50.907  1.00  0.00    -0.264 OA
HETATM   12  N   UNL     1     -43.786  56.549 -53.146  1.00  0.00    -0.224 N 
HETATM   13  N   UNL     1     -43.737  55.836 -54.363  1.00  0.00    -0.180 NA
HETATM   14  C   UNL     1     -42.963  54.795 -54.472  1.00  0.00     0.153 A 
HETATM   15  C   UNL     1     -39.882  52.429 -51.355  1.00  0.00     0.031 A 
HETATM   16  C   UNL     1     -39.419  51.418 -52.205  1.00  0.00     0.009 A 
ENDROOT
BRANCH  12  17
HETATM   17  C   UNL     1     -44.788  57.599 -53.060  1.00  0.00     0.258 C 
BRANCH  17  18
HETATM   18  C   UNL     1     -44.381  59.068 -52.848  1.00  0.00     0.244 C 
HETATM   19  N   UNL     1     -44.866  59.801 -51.763  1.00  0.00    -0.320 N 
HETATM   20  C   UNL     1     -45.758  59.266 -50.740  1.00  0.00     0.159 C 
HETATM   21  O   UNL     1     -43.509  59.520 -53.607  1.00  0.00    -0.271 OA
BRANCH  19  22
HETATM   22  C   UNL     1     -44.285  61.071 -51.453  1.00  0.00     0.043 A 
HETATM   23  C   UNL     1     -43.032  61.174 -50.819  1.00  0.00    -0.035 A 
HETATM   24  C   UNL     1     -42.296  59.979 -50.281  1.00  0.00     0.050 C 
HETATM   25  C   UNL     1     -42.453  62.445 -50.665  1.00  0.00     0.009 A 
HETATM   26  C   UNL     1     -43.111  63.595 -51.107  1.00  0.00     0.007 A 
HETATM   27  C   UNL     1     -44.371  63.503 -51.698  1.00  0.00    -0.060 A 
HETATM   28  C   UNL     1     -45.076  64.723 -52.210  1.00  0.00     0.048 C 
HETATM   29  C   UNL     1     -44.949  62.238 -51.868  1.00  0.00     0.037 A 
ENDBRANCH  19  22
ENDBRANCH  17  18
ENDBRANCH  12  17
TORSDOF 3
ENDMDL
MODEL 9
REMARK VINA RESULT:      -8.1      1.597      2.326
REMARK  3 active torsions:
REMARK  status: ('A' for Active; 'I' for Inactive)
REMARK    1  A    between atoms: N_12  and  C_13 
REMARK    2  A    between atoms: C_13  and  C_14 
REMARK       I    between atoms: C_14  and  N_15 
REMARK    3  A    between atoms: N_15  and  C_16 
ROOT
HETATM    1  C   UNL     1     -41.738  60.696 -61.753  1.00  0.00     0.048 C 
HETATM    2  C   UNL     1     -41.785  60.764 -60.254  1.00  0.00    -0.061 A 
HETATM    3  C   UNL     1     -42.271  59.679 -59.506  1.00  0.00     0.021 A 
HETATM    4  C   UNL     1     -42.304  59.757 -58.098  1.00  0.00     0.005 A 
HETATM    5  C   UNL     1     -41.846  60.923 -57.476  1.00  0.00     0.044 A 
HETATM    6  N   UNL     1     -41.977  60.746 -56.113  1.00  0.00    -0.350 N 
HETATM    7  H   UNL     1     -41.718  61.420 -55.403  1.00  0.00     0.166 HD
HETATM    8  C   UNL     1     -42.500  59.510 -55.862  1.00  0.00     0.116 A 
HETATM    9  C   UNL     1     -42.710  58.881 -57.062  1.00  0.00     0.028 A 
HETATM   10  C   UNL     1     -42.791  58.905 -54.594  1.00  0.00     0.291 A 
HETATM   11  O   UNL     1     -42.577  59.465 -53.524  1.00  0.00    -0.264 OA
HETATM   12  N   UNL     1     -43.354  57.620 -54.720  1.00  0.00    -0.224 N 
HETATM   13  N   UNL     1     -43.544  56.951 -55.948  1.00  0.00    -0.180 NA
HETATM   14  C   UNL     1     -43.245  57.550 -57.064  1.00  0.00     0.153 A 
HETATM   15  C   UNL     1     -41.357  62.017 -58.199  1.00  0.00     0.031 A 
HETATM   16  C   UNL     1     -41.336  61.914 -59.595  1.00  0.00     0.009 A 
ENDROOT
BRANCH  12  17
HETATM   17  C   UNL     1     -43.565  56.827 -53.519  1.00  0.00     0.258 C 
BRANCH  17  18
HETATM   18  C   UNL     1     -42.841  55.485 -53.319  1.00  0.00     0.244 C 
HETATM   19  N   UNL     1     -41.455  55.431 -53.155  1.00  0.00    -0.320 N 
HETATM   20  C   UNL     1     -40.582  56.600 -53.131  1.00  0.00     0.159 C 
HETATM   21  O   UNL     1     -43.556  54.479 -53.183  1.00  0.00    -0.271 OA
BRANCH  19  22
HETATM   22  C   UNL     1     -40.842  54.211 -52.727  1.00  0.00     0.043 A 
HETATM   23  C   UNL     1     -40.553  53.966 -51.372  1.00  0.00    -0.035 A 
HETATM   24  C   UNL     1     -40.716  55.014 -50.307  1.00  0.00     0.050 C 
HETATM   25  C   UNL     1     -40.078  52.697 -50.998  1.00  0.00     0.009 A 
HETATM   26  C   UNL     1     -39.867  51.699 -51.951  1.00  0.00     0.007 A 
HETATM   27  C   UNL     1     -40.111  51.949 -53.302  1.00  0.00    -0.060 A 
HETATM   28  C   UNL     1     -39.924  50.877 -54.333  1.00  0.00     0.048 C 
HETATM   29  C   UNL     1     -40.599  53.206 -53.679  1.00  0.00     0.037 A 
ENDBRANCH  19  22
ENDBRANCH  17  18
ENDBRANCH  12  17
TORSDOF 3
ENDMDL
MODEL 10
REMARK VINA RESULT:      -8.1      3.491      9.072
REMARK  3 active torsions:
REMARK  status: ('A' for Active; 'I' for Inactive)
REMARK    1  A    between atoms: N_12  and  C_13 
REMARK    2  A    between atoms: C_13  and  C_14 
REMARK       I    between atoms: C_14  and  N_15 
REMARK    3  A    between atoms: N_15  and  C_16 
ROOT
HETATM    1  C   UNL     1     -39.714  49.749 -54.197  1.00  0.00     0.048 C 
HETATM    2  C   UNL     1     -39.959  51.119 -53.636  1.00  0.00    -0.061 A 
HETATM    3  C   UNL     1     -40.440  52.152 -54.457  1.00  0.00     0.021 A 
HETATM    4  C   UNL     1     -40.669  53.432 -53.913  1.00  0.00     0.005 A 
HETATM    5  C   UNL     1     -40.411  53.643 -52.555  1.00  0.00     0.044 A 
HETATM    6  N   UNL     1     -40.718  54.961 -52.274  1.00  0.00    -0.350 N 
HETATM    7  H   UNL     1     -40.640  55.403 -51.366  1.00  0.00     0.166 HD
HETATM    8  C   UNL     1     -41.160  55.578 -53.408  1.00  0.00     0.116 A 
HETATM    9  C   UNL     1     -41.141  54.663 -54.430  1.00  0.00     0.028 A 
HETATM   10  C   UNL     1     -41.596  56.934 -53.574  1.00  0.00     0.291 A 
HETATM   11  O   UNL     1     -41.633  57.740 -52.649  1.00  0.00    -0.264 OA
HETATM   12  N   UNL     1     -41.957  57.233 -54.902  1.00  0.00    -0.224 N 
HETATM   13  N   UNL     1     -41.973  56.291 -55.954  1.00  0.00    -0.180 NA
HETATM   14  C   UNL     1     -41.578  55.070 -55.734  1.00  0.00     0.153 A 
HETATM   15  C   UNL     1     -39.931  52.632 -51.716  1.00  0.00     0.031 A 
HETATM   16  C   UNL     1     -39.712  51.370 -52.281  1.00  0.00     0.009 A 
ENDROOT
BRANCH  12  17
HETATM   17  C   UNL     1     -42.557  58.525 -55.192  1.00  0.00     0.258 C 
BRANCH  17  18
HETATM   18  C   UNL     1     -43.885  58.947 -54.538  1.00  0.00     0.244 C 
HETATM   19  N   UNL     1     -43.969  60.102 -53.758  1.00  0.00    -0.320 N 
HETATM   20  C   UNL     1     -42.856  61.011 -53.509  1.00  0.00     0.159 C 
HETATM   21  O   UNL     1     -44.891  58.288 -54.842  1.00  0.00    -0.271 OA
BRANCH  19  22
HETATM   22  C   UNL     1     -45.253  60.600 -53.370  1.00  0.00     0.043 A 
HETATM   23  C   UNL     1     -45.843  60.243 -52.143  1.00  0.00    -0.035 A 
HETATM   24  C   UNL     1     -45.253  59.202 -51.233  1.00  0.00     0.050 C 
HETATM   25  C   UNL     1     -47.040  60.871 -51.758  1.00  0.00     0.009 A 
HETATM   26  C   UNL     1     -47.656  61.814 -52.584  1.00  0.00     0.007 A 
HETATM   27  C   UNL     1     -47.098  62.141 -53.820  1.00  0.00    -0.060 A 
HETATM   28  C   UNL     1     -47.727  63.177 -54.702  1.00  0.00     0.048 C 
HETATM   29  C   UNL     1     -45.898  61.530 -54.204  1.00  0.00     0.037 A 
ENDBRANCH  19  22
ENDBRANCH  17  18
ENDBRANCH  12  17
TORSDOF 3
ENDMDL
