MODEL 1
REMARK VINA RESULT:      -8.8      0.000      0.000
REMARK  7 active torsions:
REMARK  status: ('A' for Active; 'I' for Inactive)
REMARK    1  A    between atoms: O_2  and  C_3 
REMARK    2  A    between atoms: C_7  and  C_8 
REMARK    3  A    between atoms: C_8  and  N_9 
REMARK       I    between atoms: N_9  and  C_10 
REMARK    4  A    between atoms: C_10  and  C_12 
REMARK    5  A    between atoms: C_17  and  C_26 
REMARK    6  A    between atoms: C_21  and  C_22 
REMARK    7  A    between atoms: C_22  and  N_23 
ROOT
HETATM    1  C   UNL     1     -42.130  56.318 -55.426  1.00  0.00     0.110 A 
HETATM    2  N   UNL     1     -41.695  55.054 -55.754  1.00  0.00    -0.351 N 
HETATM    3  H   UNL     1     -41.701  54.695 -56.700  1.00  0.00     0.166 HD
HETATM    4  C   UNL     1     -41.284  54.363 -54.645  1.00  0.00     0.044 A 
HETATM    5  C   UNL     1     -40.798  53.052 -54.526  1.00  0.00     0.042 A 
HETATM    6  C   UNL     1     -40.430  52.589 -53.253  1.00  0.00    -0.021 A 
HETATM    7  C   UNL     1     -40.554  53.440 -52.149  1.00  0.00     0.013 A 
HETATM    8  C   UNL     1     -41.038  54.750 -52.287  1.00  0.00     0.015 A 
HETATM    9  C   UNL     1     -41.418  55.223 -53.560  1.00  0.00     0.001 A 
HETATM   10  C   UNL     1     -41.939  56.470 -54.052  1.00  0.00     0.015 A 
ENDROOT
BRANCH   1  11
HETATM   11  C   UNL     1     -42.628  57.207 -56.455  1.00  0.00     0.269 C 
HETATM   12  N   UNL     1     -43.970  57.112 -56.710  1.00  0.00    -0.351 N 
HETATM   13  H   UNL     1     -44.477  56.344 -56.272  1.00  0.00     0.163 HD
HETATM   14  O   UNL     1     -41.881  57.960 -57.076  1.00  0.00    -0.266 OA
BRANCH  12  15
HETATM   15  C   UNL     1     -44.620  57.860 -57.752  1.00  0.00     0.161 C 
BRANCH  15  16
HETATM   16  C   UNL     1     -44.995  56.995 -58.927  1.00  0.00    -0.038 A 
HETATM   17  C   UNL     1     -44.035  56.181 -59.542  1.00  0.00     0.009 A 
HETATM   18  C   UNL     1     -44.378  55.383 -60.632  1.00  0.00     0.003 A 
HETATM   19  C   UNL     1     -45.686  55.382 -61.119  1.00  0.00     0.037 A 
HETATM   20  C   UNL     1     -46.660  56.175 -60.510  1.00  0.00     0.068 A 
HETATM   21  C   UNL     1     -46.310  56.972 -59.414  1.00  0.00     0.045 A 
BRANCH  20  22
HETATM   22  O   UNL     1     -47.974  56.260 -60.885  1.00  0.00    -0.356 OA
HETATM   23  C   UNL     1     -48.241  56.851 -62.151  1.00  0.00     0.210 C 
ENDBRANCH  20  22
ENDBRANCH  15  16
ENDBRANCH  12  15
ENDBRANCH   1  11
BRANCH  10  24
HETATM   24  C   UNL     1     -42.164  57.702 -53.222  1.00  0.00     0.313 C 
BRANCH  24  25
HETATM   25  N   UNL     1     -41.144  58.729 -53.517  1.00  0.00     0.084 N 
HETATM   26  C   UNL     1     -41.765  59.969 -54.004  1.00  0.00     0.309 C 
HETATM   27  C   UNL     1     -40.384  59.020 -52.294  1.00  0.00     0.309 C 
ENDBRANCH  24  25
ENDBRANCH  10  24
BRANCH   6  28
HETATM   28  C   UNL     1     -39.930  51.236 -53.070  1.00  0.00     0.010 A 
HETATM   29  C   UNL     1     -39.702  50.200 -54.006  1.00  0.00     0.152 A 
HETATM   30  N   UNL     1     -39.247  49.079 -53.440  1.00  0.00    -0.187 NA
HETATM   31  N   UNL     1     -39.182  49.392 -52.137  1.00  0.00    -0.289 N 
HETATM   32  H   UNL     1     -38.861  48.682 -51.488  1.00  0.00     0.188 HD
HETATM   33  C   UNL     1     -39.580  50.669 -51.862  1.00  0.00     0.123 A 
ENDBRANCH   6  28
TORSDOF 7
ENDMDL
MODEL 2
REMARK VINA RESULT:      -8.7      2.395      3.207
REMARK  7 active torsions:
REMARK  status: ('A' for Active; 'I' for Inactive)
REMARK    1  A    between atoms: O_2  and  C_3 
REMARK    2  A    between atoms: C_7  and  C_8 
REMARK    3  A    between atoms: C_8  and  N_9 
REMARK       I    between atoms: N_9  and  C_10 
REMARK    4  A    between atoms: C_10  and  C_12 
REMARK    5  A    between atoms: C_17  and  C_26 
REMARK    6  A    between atoms: C_21  and  C_22 
REMARK    7  A    between atoms: C_22  and  N_23 
ROOT
HETATM    1  C   UNL     1     -41.402  57.376 -53.862  1.00  0.00     0.110 A 
HETATM    2  N   UNL     1     -40.869  56.290 -54.522  1.00  0.00    -0.351 N 
HETATM    3  H   UNL     1     -40.543  56.331 -55.478  1.00  0.00     0.166 HD
HETATM    4  C   UNL     1     -40.863  55.175 -53.727  1.00  0.00     0.044 A 
HETATM    5  C   UNL     1     -40.438  53.868 -54.008  1.00  0.00     0.042 A 
HETATM    6  C   UNL     1     -40.532  52.903 -52.992  1.00  0.00    -0.021 A 
HETATM    7  C   UNL     1     -41.039  53.268 -51.740  1.00  0.00     0.013 A 
HETATM    8  C   UNL     1     -41.456  54.582 -51.476  1.00  0.00     0.015 A 
HETATM    9  C   UNL     1     -41.373  55.557 -52.490  1.00  0.00     0.001 A 
HETATM   10  C   UNL     1     -41.702  56.956 -52.566  1.00  0.00     0.015 A 
ENDROOT
BRANCH   1  11
HETATM   11  C   UNL     1     -41.519  58.652 -54.535  1.00  0.00     0.269 C 
HETATM   12  N   UNL     1     -42.136  58.614 -55.757  1.00  0.00    -0.351 N 
HETATM   13  H   UNL     1     -42.332  57.697 -56.155  1.00  0.00     0.163 HD
HETATM   14  O   UNL     1     -41.055  59.683 -54.052  1.00  0.00    -0.266 OA
BRANCH  12  15
HETATM   15  C   UNL     1     -42.267  59.773 -56.600  1.00  0.00     0.161 C 
BRANCH  15  16
HETATM   16  C   UNL     1     -42.150  59.431 -58.062  1.00  0.00    -0.038 A 
HETATM   17  C   UNL     1     -42.048  60.447 -59.020  1.00  0.00     0.009 A 
HETATM   18  C   UNL     1     -41.944  60.135 -60.375  1.00  0.00     0.003 A 
HETATM   19  C   UNL     1     -41.935  58.802 -60.790  1.00  0.00     0.037 A 
HETATM   20  C   UNL     1     -42.021  57.775 -59.849  1.00  0.00     0.068 A 
HETATM   21  C   UNL     1     -42.122  58.096 -58.490  1.00  0.00     0.045 A 
BRANCH  20  22
HETATM   22  O   UNL     1     -42.017  56.434 -60.123  1.00  0.00    -0.356 OA
HETATM   23  C   UNL     1     -43.153  55.691 -59.701  1.00  0.00     0.210 C 
ENDBRANCH  20  22
ENDBRANCH  15  16
ENDBRANCH  12  15
ENDBRANCH   1  11
BRANCH  10  24
HETATM   24  C   UNL     1     -42.212  57.788 -51.423  1.00  0.00     0.313 C 
BRANCH  24  25
HETATM   25  N   UNL     1     -43.572  58.292 -51.705  1.00  0.00     0.084 N 
HETATM   26  C   UNL     1     -44.592  57.449 -51.065  1.00  0.00     0.309 C 
HETATM   27  C   UNL     1     -43.693  59.665 -51.197  1.00  0.00     0.309 C 
ENDBRANCH  24  25
ENDBRANCH  10  24
BRANCH   6  28
HETATM   28  C   UNL     1     -40.115  51.530 -53.231  1.00  0.00     0.010 A 
HETATM   29  C   UNL     1     -40.121  50.755 -54.415  1.00  0.00     0.152 A 
HETATM   30  N   UNL     1     -39.669  49.513 -54.224  1.00  0.00    -0.187 NA
HETATM   31  N   UNL     1     -39.373  49.486 -52.915  1.00  0.00    -0.289 N 
HETATM   32  H   UNL     1     -39.007  48.625 -52.523  1.00  0.00     0.188 HD
HETATM   33  C   UNL     1     -39.622  50.666 -52.276  1.00  0.00     0.123 A 
ENDBRANCH   6  28
TORSDOF 7
ENDMDL
MODEL 3
REMARK VINA RESULT:      -7.9      2.705      3.184
REMARK  7 active torsions:
REMARK  status: ('A' for Active; 'I' for Inactive)
REMARK    1  A    between atoms: O_2  and  C_3 
REMARK    2  A    between atoms: C_7  and  C_8 
REMARK    3  A    between atoms: C_8  and  N_9 
REMARK       I    between atoms: N_9  and  C_10 
REMARK    4  A    between atoms: C_10  and  C_12 
REMARK    5  A    between atoms: C_17  and  C_26 
REMARK    6  A    between atoms: C_21  and  C_22 
REMARK    7  A    between atoms: C_22  and  N_23 
ROOT
HETATM    1  C   UNL     1     -41.798  57.263 -54.302  1.00  0.00     0.110 A 
HETATM    2  N   UNL     1     -41.303  56.137 -54.923  1.00  0.00    -0.351 N 
HETATM    3  H   UNL     1     -41.119  56.089 -55.916  1.00  0.00     0.166 HD
HETATM    4  C   UNL     1     -41.120  55.114 -54.030  1.00  0.00     0.044 A 
HETATM    5  C   UNL     1     -40.665  53.804 -54.239  1.00  0.00     0.042 A 
HETATM    6  C   UNL     1     -40.558  52.949 -53.130  1.00  0.00    -0.021 A 
HETATM    7  C   UNL     1     -40.903  53.424 -51.860  1.00  0.00     0.013 A 
HETATM    8  C   UNL     1     -41.353  54.739 -51.669  1.00  0.00     0.015 A 
HETATM    9  C   UNL     1     -41.471  55.604 -52.775  1.00  0.00     0.001 A 
HETATM   10  C   UNL     1     -41.887  56.971 -52.941  1.00  0.00     0.015 A 
ENDROOT
BRANCH   1  11
HETATM   11  C   UNL     1     -42.083  58.455 -55.075  1.00  0.00     0.269 C 
HETATM   12  N   UNL     1     -43.097  58.332 -55.985  1.00  0.00    -0.351 N 
HETATM   13  H   UNL     1     -43.470  57.398 -56.150  1.00  0.00     0.163 HD
HETATM   14  O   UNL     1     -41.425  59.484 -54.940  1.00  0.00    -0.266 OA
BRANCH  12  15
HETATM   15  C   UNL     1     -43.462  59.388 -56.892  1.00  0.00     0.161 C 
BRANCH  15  16
HETATM   16  C   UNL     1     -42.890  59.179 -58.271  1.00  0.00    -0.038 A 
HETATM   17  C   UNL     1     -42.744  57.886 -58.788  1.00  0.00     0.009 A 
HETATM   18  C   UNL     1     -42.211  57.689 -60.061  1.00  0.00     0.003 A 
HETATM   19  C   UNL     1     -41.825  58.783 -60.837  1.00  0.00     0.037 A 
HETATM   20  C   UNL     1     -41.977  60.080 -60.346  1.00  0.00     0.068 A 
HETATM   21  C   UNL     1     -42.515  60.270 -59.068  1.00  0.00     0.045 A 
BRANCH  20  22
HETATM   22  O   UNL     1     -41.644  61.232 -61.005  1.00  0.00    -0.356 OA
HETATM   23  C   UNL     1     -41.584  62.420 -60.227  1.00  0.00     0.210 C 
ENDBRANCH  20  22
ENDBRANCH  15  16
ENDBRANCH  12  15
ENDBRANCH   1  11
BRANCH  10  24
HETATM   24  C   UNL     1     -42.277  57.899 -51.824  1.00  0.00     0.313 C 
BRANCH  24  25
HETATM   25  N   UNL     1     -41.282  58.980 -51.667  1.00  0.00     0.084 N 
HETATM   26  C   UNL     1     -41.904  60.196 -51.122  1.00  0.00     0.309 C 
HETATM   27  C   UNL     1     -40.221  58.532 -50.756  1.00  0.00     0.309 C 
ENDBRANCH  24  25
ENDBRANCH  10  24
BRANCH   6  28
HETATM   28  C   UNL     1     -40.101  51.578 -53.291  1.00  0.00     0.010 A 
HETATM   29  C   UNL     1     -40.085  50.736 -54.427  1.00  0.00     0.152 A 
HETATM   30  N   UNL     1     -39.596  49.520 -54.166  1.00  0.00    -0.187 NA
HETATM   31  N   UNL     1     -39.299  49.578 -52.859  1.00  0.00    -0.289 N 
HETATM   32  H   UNL     1     -38.908  48.753 -52.418  1.00  0.00     0.188 HD
HETATM   33  C   UNL     1     -39.583  50.785 -52.288  1.00  0.00     0.123 A 
ENDBRANCH   6  28
TORSDOF 7
ENDMDL
MODEL 4
REMARK VINA RESULT:      -7.7      3.660      6.821
REMARK  7 active torsions:
REMARK  status: ('A' for Active; 'I' for Inactive)
REMARK    1  A    between atoms: O_2  and  C_3 
REMARK    2  A    between atoms: C_7  and  C_8 
REMARK    3  A    between atoms: C_8  and  N_9 
REMARK       I    between atoms: N_9  and  C_10 
REMARK    4  A    between atoms: C_10  and  C_12 
REMARK    5  A    between atoms: C_17  and  C_26 
REMARK    6  A    between atoms: C_21  and  C_22 
REMARK    7  A    between atoms: C_22  and  N_23 
ROOT
HETATM    1  C   UNL     1     -43.375  56.661 -53.461  1.00  0.00     0.110 A 
HETATM    2  N   UNL     1     -43.246  55.431 -52.856  1.00  0.00    -0.351 N 
HETATM    3  H   UNL     1     -43.821  55.135 -52.078  1.00  0.00     0.166 HD
HETATM    4  C   UNL     1     -42.243  54.694 -53.429  1.00  0.00     0.044 A 
HETATM    5  C   UNL     1     -41.766  53.415 -53.108  1.00  0.00     0.042 A 
HETATM    6  C   UNL     1     -40.719  52.881 -53.876  1.00  0.00    -0.021 A 
HETATM    7  C   UNL     1     -40.188  53.630 -54.931  1.00  0.00     0.013 A 
HETATM    8  C   UNL     1     -40.680  54.907 -55.240  1.00  0.00     0.015 A 
HETATM    9  C   UNL     1     -41.726  55.457 -54.472  1.00  0.00     0.001 A 
HETATM   10  C   UNL     1     -42.451  56.699 -54.507  1.00  0.00     0.015 A 
ENDROOT
BRANCH   1  11
HETATM   11  C   UNL     1     -44.367  57.605 -52.990  1.00  0.00     0.269 C 
HETATM   12  N   UNL     1     -44.428  57.759 -51.631  1.00  0.00    -0.351 N 
HETATM   13  H   UNL     1     -43.886  57.111 -51.061  1.00  0.00     0.163 HD
HETATM   14  O   UNL     1     -45.123  58.188 -53.764  1.00  0.00    -0.266 OA
BRANCH  12  15
HETATM   15  C   UNL     1     -45.406  58.593 -50.985  1.00  0.00     0.161 C 
BRANCH  15  16
HETATM   16  C   UNL     1     -44.847  59.939 -50.604  1.00  0.00    -0.038 A 
HETATM   17  C   UNL     1     -43.484  60.214 -50.774  1.00  0.00     0.009 A 
HETATM   18  C   UNL     1     -42.963  61.456 -50.419  1.00  0.00     0.003 A 
HETATM   19  C   UNL     1     -43.798  62.445 -49.895  1.00  0.00     0.037 A 
HETATM   20  C   UNL     1     -45.162  62.196 -49.731  1.00  0.00     0.068 A 
HETATM   21  C   UNL     1     -45.679  60.946 -50.093  1.00  0.00     0.045 A 
BRANCH  20  22
HETATM   22  O   UNL     1     -46.084  63.077 -49.236  1.00  0.00    -0.356 OA
HETATM   23  C   UNL     1     -46.861  62.636 -48.130  1.00  0.00     0.210 C 
ENDBRANCH  20  22
ENDBRANCH  15  16
ENDBRANCH  12  15
ENDBRANCH   1  11
BRANCH  10  24
HETATM   24  C   UNL     1     -42.263  57.783 -55.530  1.00  0.00     0.313 C 
BRANCH  24  25
HETATM   25  N   UNL     1     -43.294  57.695 -56.585  1.00  0.00     0.084 N 
HETATM   26  C   UNL     1     -43.770  59.031 -56.971  1.00  0.00     0.309 C 
HETATM   27  C   UNL     1     -42.723  57.029 -57.763  1.00  0.00     0.309 C 
ENDBRANCH  24  25
ENDBRANCH  10  24
BRANCH   6  28
HETATM   28  C   UNL     1     -40.179  51.563 -53.581  1.00  0.00     0.010 A 
HETATM   29  C   UNL     1     -39.999  50.431 -54.410  1.00  0.00     0.152 A 
HETATM   30  N   UNL     1     -39.480  49.387 -53.757  1.00  0.00    -0.187 NA
HETATM   31  N   UNL     1     -39.327  49.846 -52.506  1.00  0.00    -0.289 N 
HETATM   32  H   UNL     1     -38.944  49.218 -51.807  1.00  0.00     0.188 HD
HETATM   33  C   UNL     1     -39.730  51.140 -52.347  1.00  0.00     0.123 A 
ENDBRANCH   6  28
TORSDOF 7
ENDMDL
MODEL 5
REMARK VINA RESULT:      -7.5      3.526      9.041
REMARK  7 active torsions:
REMARK  status: ('A' for Active; 'I' for Inactive)
REMARK    1  A    between atoms: O_2  and  C_3 
REMARK    2  A    between atoms: C_7  and  C_8 
REMARK    3  A    between atoms: C_8  and  N_9 
REMARK       I    between atoms: N_9  and  C_10 
REMARK    4  A    between atoms: C_10  and  C_12 
REMARK    5  A    between atoms: C_17  and  C_26 
REMARK    6  A    between atoms: C_21  and  C_22 
REMARK    7  A    between atoms: C_22  and  N_23 
ROOT
HETATM    1  C   UNL     1     -42.499  56.416 -55.849  1.00  0.00     0.110 A 
HETATM    2  N   UNL     1     -42.372  56.588 -57.209  1.00  0.00    -0.351 N 
HETATM    3  H   UNL     1     -42.365  55.818 -57.865  1.00  0.00     0.166 HD
HETATM    4  C   UNL     1     -42.239  57.912 -57.535  1.00  0.00     0.044 A 
HETATM    5  C   UNL     1     -42.061  58.520 -58.787  1.00  0.00     0.042 A 
HETATM    6  C   UNL     1     -41.965  59.919 -58.842  1.00  0.00    -0.021 A 
HETATM    7  C   UNL     1     -42.051  60.662 -57.659  1.00  0.00     0.013 A 
HETATM    8  C   UNL     1     -42.233  60.037 -56.416  1.00  0.00     0.015 A 
HETATM    9  C   UNL     1     -42.324  58.632 -56.348  1.00  0.00     0.001 A 
HETATM   10  C   UNL     1     -42.505  57.689 -55.277  1.00  0.00     0.015 A 
ENDROOT
BRANCH   1  11
HETATM   11  C   UNL     1     -42.630  55.086 -55.292  1.00  0.00     0.269 C 
HETATM   12  N   UNL     1     -41.455  54.401 -55.133  1.00  0.00    -0.351 N 
HETATM   13  H   UNL     1     -40.615  54.809 -55.541  1.00  0.00     0.163 HD
HETATM   14  O   UNL     1     -43.728  54.603 -55.023  1.00  0.00    -0.266 OA
BRANCH  12  15
HETATM   15  C   UNL     1     -41.404  53.039 -54.670  1.00  0.00     0.161 C 
BRANCH  15  16
HETATM   16  C   UNL     1     -40.977  52.942 -53.228  1.00  0.00    -0.038 A 
HETATM   17  C   UNL     1     -39.925  52.096 -52.857  1.00  0.00     0.009 A 
HETATM   18  C   UNL     1     -39.531  52.000 -51.523  1.00  0.00     0.003 A 
HETATM   19  C   UNL     1     -40.178  52.755 -50.543  1.00  0.00     0.037 A 
HETATM   20  C   UNL     1     -41.219  53.615 -50.895  1.00  0.00     0.068 A 
HETATM   21  C   UNL     1     -41.607  53.709 -52.237  1.00  0.00     0.045 A 
BRANCH  20  22
HETATM   22  O   UNL     1     -41.928  54.410 -50.036  1.00  0.00    -0.356 OA
HETATM   23  C   UNL     1     -41.183  55.103 -49.043  1.00  0.00     0.210 C 
ENDBRANCH  20  22
ENDBRANCH  15  16
ENDBRANCH  12  15
ENDBRANCH   1  11
BRANCH  10  24
HETATM   24  C   UNL     1     -42.718  58.048 -53.833  1.00  0.00     0.313 C 
BRANCH  24  25
HETATM   25  N   UNL     1     -44.082  57.685 -53.397  1.00  0.00     0.084 N 
HETATM   26  C   UNL     1     -44.067  57.088 -52.054  1.00  0.00     0.309 C 
HETATM   27  C   UNL     1     -44.920  58.892 -53.377  1.00  0.00     0.309 C 
ENDBRANCH  24  25
ENDBRANCH  10  24
BRANCH   6  28
HETATM   28  C   UNL     1     -41.770  60.602 -60.111  1.00  0.00     0.010 A 
HETATM   29  C   UNL     1     -41.439  61.947 -60.396  1.00  0.00     0.152 A 
HETATM   30  N   UNL     1     -41.365  62.197 -61.706  1.00  0.00    -0.187 NA
HETATM   31  N   UNL     1     -41.650  61.012 -62.267  1.00  0.00    -0.289 N 
HETATM   32  H   UNL     1     -41.660  60.949 -63.279  1.00  0.00     0.188 HD
HETATM   33  C   UNL     1     -41.901  60.025 -61.357  1.00  0.00     0.123 A 
ENDBRANCH   6  28
TORSDOF 7
ENDMDL
MODEL 6
REMARK VINA RESULT:      -7.5      3.209      5.401
REMARK  7 active torsions:
REMARK  status: ('A' for Active; 'I' for Inactive)
REMARK    1  A    between atoms: O_2  and  C_3 
REMARK    2  A    between atoms: C_7  and  C_8 
REMARK    3  A    between atoms: C_8  and  N_9 
REMARK       I    between atoms: N_9  and  C_10 
REMARK    4  A    between atoms: C_10  and  C_12 
REMARK    5  A    between atoms: C_17  and  C_26 
REMARK    6  A    between atoms: C_21  and  C_22 
REMARK    7  A    between atoms: C_22  and  N_23 
ROOT
HETATM    1  C   UNL     1     -41.896  56.861 -52.260  1.00  0.00     0.110 A 
HETATM    2  N   UNL     1     -41.664  55.688 -51.578  1.00  0.00    -0.351 N 
HETATM    3  H   UNL     1     -41.836  55.581 -50.587  1.00  0.00     0.166 HD
HETATM    4  C   UNL     1     -41.162  54.719 -52.406  1.00  0.00     0.044 A 
HETATM    5  C   UNL     1     -40.767  53.403 -52.121  1.00  0.00     0.042 A 
HETATM    6  C   UNL     1     -40.292  52.606 -53.175  1.00  0.00    -0.021 A 
HETATM    7  C   UNL     1     -40.227  53.139 -54.467  1.00  0.00     0.013 A 
HETATM    8  C   UNL     1     -40.630  54.457 -54.734  1.00  0.00     0.015 A 
HETATM    9  C   UNL     1     -41.102  55.269 -53.683  1.00  0.00     0.001 A 
HETATM   10  C   UNL     1     -41.581  56.622 -53.598  1.00  0.00     0.015 A 
ENDROOT
BRANCH   1  11
HETATM   11  C   UNL     1     -42.409  58.021 -51.561  1.00  0.00     0.269 C 
HETATM   12  N   UNL     1     -43.773  58.135 -51.541  1.00  0.00    -0.351 N 
HETATM   13  H   UNL     1     -44.306  57.493 -52.127  1.00  0.00     0.163 HD
HETATM   14  O   UNL     1     -41.660  58.858 -51.061  1.00  0.00    -0.266 OA
BRANCH  12  15
HETATM   15  C   UNL     1     -44.452  59.264 -50.963  1.00  0.00     0.161 C 
BRANCH  15  16
HETATM   16  C   UNL     1     -44.561  60.419 -51.924  1.00  0.00    -0.038 A 
HETATM   17  C   UNL     1     -44.179  61.707 -51.528  1.00  0.00     0.009 A 
HETATM   18  C   UNL     1     -44.283  62.779 -52.413  1.00  0.00     0.003 A 
HETATM   19  C   UNL     1     -44.763  62.577 -53.708  1.00  0.00     0.037 A 
HETATM   20  C   UNL     1     -45.135  61.298 -54.126  1.00  0.00     0.068 A 
HETATM   21  C   UNL     1     -45.025  60.226 -53.233  1.00  0.00     0.045 A 
BRANCH  20  22
HETATM   22  O   UNL     1     -45.613  60.967 -55.365  1.00  0.00    -0.356 OA
HETATM   23  C   UNL     1     -46.604  61.823 -55.918  1.00  0.00     0.210 C 
ENDBRANCH  20  22
ENDBRANCH  15  16
ENDBRANCH  12  15
ENDBRANCH   1  11
BRANCH  10  24
HETATM   24  C   UNL     1     -41.755  57.554 -54.765  1.00  0.00     0.313 C 
BRANCH  24  25
HETATM   25  N   UNL     1     -42.760  57.028 -55.713  1.00  0.00     0.084 N 
HETATM   26  C   UNL     1     -44.125  57.290 -55.235  1.00  0.00     0.309 C 
HETATM   27  C   UNL     1     -42.575  57.674 -57.019  1.00  0.00     0.309 C 
ENDBRANCH  24  25
ENDBRANCH  10  24
BRANCH   6  28
HETATM   28  C   UNL     1     -39.861  51.238 -52.935  1.00  0.00     0.010 A 
HETATM   29  C   UNL     1     -39.695  50.151 -53.825  1.00  0.00     0.152 A 
HETATM   30  N   UNL     1     -39.293  49.034 -53.212  1.00  0.00    -0.187 NA
HETATM   31  N   UNL     1     -39.200  49.401 -51.925  1.00  0.00    -0.289 N 
HETATM   32  H   UNL     1     -38.909  48.705 -51.246  1.00  0.00     0.188 HD
HETATM   33  C   UNL     1     -39.530  50.707 -51.705  1.00  0.00     0.123 A 
ENDBRANCH   6  28
TORSDOF 7
ENDMDL
MODEL 7
REMARK VINA RESULT:      -7.4      3.989      6.459
REMARK  7 active torsions:
REMARK  status: ('A' for Active; 'I' for Inactive)
REMARK    1  A    between atoms: O_2  and  C_3 
REMARK    2  A    between atoms: C_7  and  C_8 
REMARK    3  A    between atoms: C_8  and  N_9 
REMARK       I    between atoms: N_9  and  C_10 
REMARK    4  A    between atoms: C_10  and  C_12 
REMARK    5  A    between atoms: C_17  and  C_26 
REMARK    6  A    between atoms: C_21  and  C_22 
REMARK    7  A    between atoms: C_22  and  N_23 
ROOT
HETATM    1  C   UNL     1     -41.405  57.005 -51.980  1.00  0.00     0.110 A 
HETATM    2  N   UNL     1     -41.128  55.787 -51.399  1.00  0.00    -0.351 N 
HETATM    3  H   UNL     1     -41.110  55.643 -50.399  1.00  0.00     0.166 HD
HETATM    4  C   UNL     1     -40.866  54.831 -52.345  1.00  0.00     0.044 A 
HETATM    5  C   UNL     1     -40.517  53.481 -52.191  1.00  0.00     0.042 A 
HETATM    6  C   UNL     1     -40.314  52.708 -53.346  1.00  0.00    -0.021 A 
HETATM    7  C   UNL     1     -40.465  53.299 -54.605  1.00  0.00     0.013 A 
HETATM    8  C   UNL     1     -40.818  54.651 -54.740  1.00  0.00     0.015 A 
HETATM    9  C   UNL     1     -41.018  55.438 -53.588  1.00  0.00     0.001 A 
HETATM   10  C   UNL     1     -41.375  56.813 -53.361  1.00  0.00     0.015 A 
ENDROOT
BRANCH   1  11
HETATM   11  C   UNL     1     -41.689  58.158 -51.152  1.00  0.00     0.269 C 
HETATM   12  N   UNL     1     -42.604  59.036 -51.667  1.00  0.00    -0.351 N 
HETATM   13  H   UNL     1     -42.901  58.892 -52.631  1.00  0.00     0.163 HD
HETATM   14  O   UNL     1     -41.111  58.345 -50.083  1.00  0.00    -0.266 OA
BRANCH  12  15
HETATM   15  C   UNL     1     -42.947  60.275 -51.019  1.00  0.00     0.161 C 
BRANCH  15  16
HETATM   16  C   UNL     1     -44.364  60.697 -51.307  1.00  0.00    -0.038 A 
HETATM   17  C   UNL     1     -45.028  60.218 -52.444  1.00  0.00     0.009 A 
HETATM   18  C   UNL     1     -46.337  60.611 -52.716  1.00  0.00     0.003 A 
HETATM   19  C   UNL     1     -47.004  61.481 -51.852  1.00  0.00     0.037 A 
HETATM   20  C   UNL     1     -46.364  61.957 -50.706  1.00  0.00     0.068 A 
HETATM   21  C   UNL     1     -45.050  61.557 -50.438  1.00  0.00     0.045 A 
BRANCH  20  22
HETATM   22  O   UNL     1     -46.905  62.807 -49.780  1.00  0.00    -0.356 OA
HETATM   23  C   UNL     1     -46.547  62.586 -48.422  1.00  0.00     0.210 C 
ENDBRANCH  20  22
ENDBRANCH  15  16
ENDBRANCH  12  15
ENDBRANCH   1  11
BRANCH  10  24
HETATM   24  C   UNL     1     -41.707  57.810 -54.436  1.00  0.00     0.313 C 
BRANCH  24  25
HETATM   25  N   UNL     1     -42.887  57.374 -55.211  1.00  0.00     0.084 N 
HETATM   26  C   UNL     1     -44.021  57.075 -54.326  1.00  0.00     0.309 C 
HETATM   27  C   UNL     1     -43.273  58.442 -56.144  1.00  0.00     0.309 C 
ENDBRANCH  24  25
ENDBRANCH  10  24
BRANCH   6  28
HETATM   28  C   UNL     1     -39.941  51.306 -53.246  1.00  0.00     0.010 A 
HETATM   29  C   UNL     1     -39.787  50.317 -54.245  1.00  0.00     0.152 A 
HETATM   30  N   UNL     1     -39.447  49.124 -53.747  1.00  0.00    -0.187 NA
HETATM   31  N   UNL     1     -39.383  49.345 -52.425  1.00  0.00    -0.289 N 
HETATM   32  H   UNL     1     -39.140  48.569 -51.819  1.00  0.00     0.188 HD
HETATM   33  C   UNL     1     -39.670  50.632 -52.073  1.00  0.00     0.123 A 
ENDBRANCH   6  28
TORSDOF 7
ENDMDL
MODEL 8
REMARK VINA RESULT:      -7.4      3.404      8.775
REMARK  7 active torsions:
REMARK  status: ('A' for Active; 'I' for Inactive)
REMARK    1  A    between atoms: O_2  and  C_3 
REMARK    2  A    between atoms: C_7  and  C_8 
REMARK    3  A    between atoms: C_8  and  N_9 
REMARK       I    between atoms: N_9  and  C_10 
REMARK    4  A    between atoms: C_10  and  C_12 
REMARK    5  A    between atoms: C_17  and  C_26 
REMARK    6  A    between atoms: C_21  and  C_22 
REMARK    7  A    between atoms: C_22  and  N_23 
ROOT
HETATM    1  C   UNL     1     -43.153  56.045 -54.405  1.00  0.00     0.110 A 
HETATM    2  N   UNL     1     -43.055  56.399 -53.078  1.00  0.00    -0.351 N 
HETATM    3  H   UNL     1     -42.606  55.817 -52.382  1.00  0.00     0.166 HD
HETATM    4  C   UNL     1     -43.653  57.608 -52.837  1.00  0.00     0.044 A 
HETATM    5  C   UNL     1     -43.803  58.317 -51.636  1.00  0.00     0.042 A 
HETATM    6  C   UNL     1     -44.457  59.559 -51.672  1.00  0.00    -0.021 A 
HETATM    7  C   UNL     1     -44.933  60.052 -52.892  1.00  0.00     0.013 A 
HETATM    8  C   UNL     1     -44.771  59.329 -54.084  1.00  0.00     0.015 A 
HETATM    9  C   UNL     1     -44.123  58.078 -54.059  1.00  0.00     0.001 A 
HETATM   10  C   UNL     1     -43.794  57.098 -55.060  1.00  0.00     0.015 A 
ENDROOT
BRANCH   1  11
HETATM   11  C   UNL     1     -42.602  54.788 -54.867  1.00  0.00     0.269 C 
HETATM   12  N   UNL     1     -41.284  54.580 -54.559  1.00  0.00    -0.351 N 
HETATM   13  H   UNL     1     -40.765  55.364 -54.165  1.00  0.00     0.163 HD
HETATM   14  O   UNL     1     -43.269  53.992 -55.524  1.00  0.00    -0.266 OA
BRANCH  12  15
HETATM   15  C   UNL     1     -40.552  53.425 -55.006  1.00  0.00     0.161 C 
BRANCH  15  16
HETATM   16  C   UNL     1     -40.232  52.479 -53.878  1.00  0.00    -0.038 A 
HETATM   17  C   UNL     1     -39.898  51.146 -54.147  1.00  0.00     0.009 A 
HETATM   18  C   UNL     1     -39.606  50.267 -53.105  1.00  0.00     0.003 A 
HETATM   19  C   UNL     1     -39.635  50.710 -51.782  1.00  0.00     0.037 A 
HETATM   20  C   UNL     1     -39.950  52.039 -51.495  1.00  0.00     0.068 A 
HETATM   21  C   UNL     1     -40.240  52.917 -52.546  1.00  0.00     0.045 A 
BRANCH  20  22
HETATM   22  O   UNL     1     -40.008  52.599 -50.248  1.00  0.00    -0.356 OA
HETATM   23  C   UNL     1     -40.145  54.013 -50.187  1.00  0.00     0.210 C 
ENDBRANCH  20  22
ENDBRANCH  15  16
ENDBRANCH  12  15
ENDBRANCH   1  11
BRANCH  10  24
HETATM   24  C   UNL     1     -44.054  57.244 -56.533  1.00  0.00     0.313 C 
BRANCH  24  25
HETATM   25  N   UNL     1     -42.798  57.126 -57.302  1.00  0.00     0.084 N 
HETATM   26  C   UNL     1     -42.980  56.273 -58.486  1.00  0.00     0.309 C 
HETATM   27  C   UNL     1     -42.369  58.463 -57.734  1.00  0.00     0.309 C 
ENDBRANCH  24  25
ENDBRANCH  10  24
BRANCH   6  28
HETATM   28  C   UNL     1     -44.649  60.333 -50.456  1.00  0.00     0.010 A 
HETATM   29  C   UNL     1     -45.578  60.181 -49.400  1.00  0.00     0.152 A 
HETATM   30  N   UNL     1     -45.447  61.115 -48.454  1.00  0.00    -0.187 NA
HETATM   31  N   UNL     1     -44.433  61.872 -48.901  1.00  0.00    -0.289 N 
HETATM   32  H   UNL     1     -44.144  62.667 -48.342  1.00  0.00     0.188 HD
HETATM   33  C   UNL     1     -43.921  61.448 -50.094  1.00  0.00     0.123 A 
ENDBRANCH   6  28
TORSDOF 7
ENDMDL
MODEL 9
REMARK VINA RESULT:      -7.3     15.199     17.489
REMARK  7 active torsions:
REMARK  status: ('A' for Active; 'I' for Inactive)
REMARK    1  A    between atoms: O_2  and  C_3 
REMARK    2  A    between atoms: C_7  and  C_8 
REMARK    3  A    between atoms: C_8  and  N_9 
REMARK       I    between atoms: N_9  and  C_10 
REMARK    4  A    between atoms: C_10  and  C_12 
REMARK    5  A    between atoms: C_17  and  C_26 
REMARK    6  A    between atoms: C_21  and  C_22 
REMARK    7  A    between atoms: C_22  and  N_23 
ROOT
HETATM    1  C   UNL     1     -35.234  40.857 -53.254  1.00  0.00     0.110 A 
HETATM    2  N   UNL     1     -35.200  40.948 -51.880  1.00  0.00    -0.351 N 
HETATM    3  H   UNL     1     -35.875  41.476 -51.344  1.00  0.00     0.166 HD
HETATM    4  C   UNL     1     -34.138  40.256 -51.360  1.00  0.00     0.044 A 
HETATM    5  C   UNL     1     -33.722  40.109 -50.028  1.00  0.00     0.042 A 
HETATM    6  C   UNL     1     -32.589  39.322 -49.766  1.00  0.00    -0.021 A 
HETATM    7  C   UNL     1     -31.915  38.710 -50.829  1.00  0.00     0.013 A 
HETATM    8  C   UNL     1     -32.348  38.866 -52.155  1.00  0.00     0.015 A 
HETATM    9  C   UNL     1     -33.480  39.659 -52.431  1.00  0.00     0.001 A 
HETATM   10  C   UNL     1     -34.180  40.025 -53.633  1.00  0.00     0.015 A 
ENDROOT
BRANCH   1  11
HETATM   11  C   UNL     1     -36.269  41.538 -54.003  1.00  0.00     0.269 C 
HETATM   12  N   UNL     1     -37.212  40.723 -54.570  1.00  0.00    -0.351 N 
HETATM   13  H   UNL     1     -37.040  39.719 -54.546  1.00  0.00     0.163 HD
HETATM   14  O   UNL     1     -36.267  42.758 -54.147  1.00  0.00    -0.266 OA
BRANCH  12  15
HETATM   15  C   UNL     1     -38.266  41.220 -55.415  1.00  0.00     0.161 C 
BRANCH  15  16
HETATM   16  C   UNL     1     -37.924  41.113 -56.878  1.00  0.00    -0.038 A 
HETATM   17  C   UNL     1     -37.298  42.177 -57.538  1.00  0.00     0.009 A 
HETATM   18  C   UNL     1     -36.984  42.083 -58.893  1.00  0.00     0.003 A 
HETATM   19  C   UNL     1     -37.285  40.921 -59.605  1.00  0.00     0.037 A 
HETATM   20  C   UNL     1     -37.895  39.843 -58.961  1.00  0.00     0.068 A 
HETATM   21  C   UNL     1     -38.205  39.944 -57.600  1.00  0.00     0.045 A 
BRANCH  20  22
HETATM   22  O   UNL     1     -38.236  38.652 -59.541  1.00  0.00    -0.356 OA
HETATM   23  C   UNL     1     -37.752  38.418 -60.857  1.00  0.00     0.210 C 
ENDBRANCH  20  22
ENDBRANCH  15  16
ENDBRANCH  12  15
ENDBRANCH   1  11
BRANCH  10  24
HETATM   24  C   UNL     1     -33.847  39.532 -55.013  1.00  0.00     0.313 C 
BRANCH  24  25
HETATM   25  N   UNL     1     -33.092  40.554 -55.768  1.00  0.00     0.084 N 
HETATM   26  C   UNL     1     -31.880  39.979 -56.369  1.00  0.00     0.309 C 
HETATM   27  C   UNL     1     -33.946  41.097 -56.832  1.00  0.00     0.309 C 
ENDBRANCH  24  25
ENDBRANCH  10  24
BRANCH   6  28
HETATM   28  C   UNL     1     -32.107  39.143 -48.406  1.00  0.00     0.010 A 
HETATM   29  C   UNL     1     -31.070  39.796 -47.699  1.00  0.00     0.152 A 
HETATM   30  N   UNL     1     -30.918  39.333 -46.455  1.00  0.00    -0.187 NA
HETATM   31  N   UNL     1     -31.857  38.380 -46.360  1.00  0.00    -0.289 N 
HETATM   32  H   UNL     1     -31.937  37.869 -45.487  1.00  0.00     0.188 HD
HETATM   33  C   UNL     1     -32.595  38.226 -47.499  1.00  0.00     0.123 A 
ENDBRANCH   6  28
TORSDOF 7
ENDMDL
MODEL 10
REMARK VINA RESULT:      -7.2      3.706      8.648
REMARK  7 active torsions:
REMARK  status: ('A' for Active; 'I' for Inactive)
REMARK    1  A    between atoms: O_2  and  C_3 
REMARK    2  A    between atoms: C_7  and  C_8 
REMARK    3  A    between atoms: C_8  and  N_9 
REMARK       I    between atoms: N_9  and  C_10 
REMARK    4  A    between atoms: C_10  and  C_12 
REMARK    5  A    between atoms: C_17  and  C_26 
REMARK    6  A    between atoms: C_21  and  C_22 
REMARK    7  A    between atoms: C_22  and  N_23 
ROOT
HETATM    1  C   UNL     1     -43.676  56.848 -52.237  1.00  0.00     0.110 A 
HETATM    2  N   UNL     1     -44.463  56.485 -53.307  1.00  0.00    -0.351 N 
HETATM    3  H   UNL     1     -44.807  55.545 -53.447  1.00  0.00     0.166 HD
HETATM    4  C   UNL     1     -44.690  57.547 -54.143  1.00  0.00     0.044 A 
HETATM    5  C   UNL     1     -45.408  57.611 -55.347  1.00  0.00     0.042 A 
HETATM    6  C   UNL     1     -45.496  58.847 -56.006  1.00  0.00    -0.021 A 
HETATM    7  C   UNL     1     -44.874  59.970 -55.450  1.00  0.00     0.013 A 
HETATM    8  C   UNL     1     -44.163  59.888 -54.243  1.00  0.00     0.015 A 
HETATM    9  C   UNL     1     -44.061  58.651 -53.575  1.00  0.00     0.001 A 
HETATM   10  C   UNL     1     -43.430  58.216 -52.358  1.00  0.00     0.015 A 
ENDROOT
BRANCH   1  11
HETATM   11  C   UNL     1     -43.300  55.865 -51.243  1.00  0.00     0.269 C 
HETATM   12  N   UNL     1     -41.980  55.500 -51.251  1.00  0.00    -0.351 N 
HETATM   13  H   UNL     1     -41.408  55.830 -52.027  1.00  0.00     0.163 HD
HETATM   14  O   UNL     1     -44.126  55.370 -50.479  1.00  0.00    -0.266 OA
BRANCH  12  15
HETATM   15  C   UNL     1     -41.448  54.479 -50.389  1.00  0.00     0.161 C 
BRANCH  15  16
HETATM   16  C   UNL     1     -40.812  53.353 -51.162  1.00  0.00    -0.038 A 
HETATM   17  C   UNL     1     -40.355  52.208 -50.497  1.00  0.00     0.009 A 
HETATM   18  C   UNL     1     -39.762  51.167 -51.208  1.00  0.00     0.003 A 
HETATM   19  C   UNL     1     -39.622  51.252 -52.594  1.00  0.00     0.037 A 
HETATM   20  C   UNL     1     -40.085  52.378 -53.277  1.00  0.00     0.068 A 
HETATM   21  C   UNL     1     -40.683  53.419 -52.556  1.00  0.00     0.045 A 
BRANCH  20  22
HETATM   22  O   UNL     1     -40.014  52.582 -54.628  1.00  0.00    -0.356 OA
HETATM   23  C   UNL     1     -40.216  53.913 -55.085  1.00  0.00     0.210 C 
ENDBRANCH  20  22
ENDBRANCH  15  16
ENDBRANCH  12  15
ENDBRANCH   1  11
BRANCH  10  24
HETATM   24  C   UNL     1     -42.704  59.110 -51.392  1.00  0.00     0.313 C 
BRANCH  24  25
HETATM   25  N   UNL     1     -41.272  58.755 -51.322  1.00  0.00     0.084 N 
HETATM   26  C   UNL     1     -40.602  58.999 -52.608  1.00  0.00     0.309 C 
HETATM   27  C   UNL     1     -40.624  59.564 -50.281  1.00  0.00     0.309 C 
ENDBRANCH  24  25
ENDBRANCH  10  24
BRANCH   6  28
HETATM   28  C   UNL     1     -46.219  58.969 -57.262  1.00  0.00     0.010 A 
HETATM   29  C   UNL     1     -46.359  58.064 -58.340  1.00  0.00     0.152 A 
HETATM   30  N   UNL     1     -47.099  58.554 -59.338  1.00  0.00    -0.187 NA
HETATM   31  N   UNL     1     -47.436  59.779 -58.903  1.00  0.00    -0.289 N 
HETATM   32  H   UNL     1     -48.009  60.361 -59.504  1.00  0.00     0.188 HD
HETATM   33  C   UNL     1     -46.935  60.076 -57.669  1.00  0.00     0.123 A 
ENDBRANCH   6  28
TORSDOF 7
ENDMDL
