MODEL 1
REMARK VINA RESULT:      -8.0      0.000      0.000
REMARK  8 active torsions:
REMARK  status: ('A' for Active; 'I' for Inactive)
REMARK    1  A    between atoms: C_2  and  O_3 
REMARK    2  A    between atoms: O_3  and  C_4 
REMARK    3  A    between atoms: C_5  and  N_6 
REMARK       I    between atoms: N_9  and  C_10 
REMARK    4  A    between atoms: C_10  and  C_11 
REMARK    5  A    between atoms: C_14  and  C_15 
REMARK       I    between atoms: C_15  and  N_16 
REMARK    6  A    between atoms: N_16  and  C_17 
REMARK    7  A    between atoms: C_17  and  C_18 
REMARK    8  A    between atoms: N_23  and  C_24 
ROOT
HETATM    1  C   UNL     1     -43.473  58.653 -56.202  1.00  0.00     0.098 A 
HETATM    2  C   UNL     1     -44.629  59.594 -56.273  1.00  0.00     0.206 A 
HETATM    3  O   UNL     1     -44.996  60.243 -55.294  1.00  0.00    -0.286 OA
HETATM    4  C   UNL     1     -45.358  59.701 -57.570  1.00  0.00     0.098 A 
HETATM    5  C   UNL     1     -44.995  58.851 -58.547  1.00  0.00     0.112 A 
HETATM    6  N   UNL     1     -43.959  57.922 -58.470  1.00  0.00    -0.360 N 
HETATM    7  C   UNL     1     -43.204  57.931 -57.301  1.00  0.00     0.112 A 
ENDROOT
BRANCH   1   8
HETATM    8  C   UNL     1     -42.589  58.623 -55.006  1.00  0.00     0.259 C 
HETATM    9  N   UNL     1     -42.969  57.880 -53.890  1.00  0.00    -0.346 N 
HETATM   10  C   UNL     1     -43.807  56.680 -53.900  1.00  0.00     0.141 C 
HETATM   11  C   UNL     1     -42.068  57.883 -52.734  1.00  0.00     0.141 C 
HETATM   12  C   UNL     1     -42.911  55.420 -54.014  1.00  0.00     0.115 C 
HETATM   13  N   UNL     1     -41.918  55.376 -52.900  1.00  0.00    -0.278 NA
HETATM   14  C   UNL     1     -41.144  56.649 -52.763  1.00  0.00     0.115 C 
HETATM   15  O   UNL     1     -41.553  59.287 -55.025  1.00  0.00    -0.267 OA
BRANCH  13  16
HETATM   16  C   UNL     1     -41.169  54.170 -52.838  1.00  0.00     0.044 A 
HETATM   17  C   UNL     1     -40.805  53.550 -51.618  1.00  0.00     0.090 A 
HETATM   18  C   UNL     1     -40.110  52.332 -51.572  1.00  0.00     0.038 A 
HETATM   19  C   UNL     1     -39.691  51.718 -52.743  1.00  0.00     0.003 A 
HETATM   20  C   UNL     1     -39.976  52.322 -53.960  1.00  0.00     0.002 A 
HETATM   21  C   UNL     1     -40.700  53.522 -54.002  1.00  0.00     0.026 A 
BRANCH  17  22
HETATM   22  O   UNL     1     -41.100  54.075 -50.381  1.00  0.00    -0.350 OA
BRANCH  22  23
HETATM   23  C   UNL     1     -39.906  54.313 -49.627  1.00  0.00     0.171 C 
HETATM   24  C   UNL     1     -40.227  54.030 -48.170  1.00  0.00     0.034 C 
ENDBRANCH  22  23
ENDBRANCH  17  22
ENDBRANCH  13  16
ENDBRANCH   1   8
BRANCH   4  25
HETATM   25  C   UNL     1     -46.456  60.668 -57.855  1.00  0.00     0.257 C 
HETATM   26  N   UNL     1     -47.584  60.524 -57.089  1.00  0.00    -0.356 N 
HETATM   27  H   UNL     1     -47.638  59.735 -56.445  1.00  0.00     0.162 HD
HETATM   28  O   UNL     1     -46.335  61.544 -58.708  1.00  0.00    -0.267 OA
BRANCH  26  29
HETATM   29  C   UNL     1     -48.718  61.418 -57.195  1.00  0.00     0.126 C 
BRANCH  29  30
HETATM   30  C   UNL     1     -50.001  60.705 -57.641  1.00  0.00    -0.005 C 
HETATM   31  C   UNL     1     -51.192  61.098 -56.766  1.00  0.00     0.011 C 
HETATM   32  C   UNL     1     -50.298  61.032 -59.106  1.00  0.00     0.011 C 
ENDBRANCH  29  30
ENDBRANCH  26  29
ENDBRANCH   4  25
BRANCH   6  33
HETATM   33  C   UNL     1     -43.894  56.833 -59.473  1.00  0.00     0.088 C 
HETATM   34  C   UNL     1     -43.728  55.414 -58.921  1.00  0.00     0.026 C 
HETATM   35  C   UNL     1     -44.331  54.549 -60.018  1.00  0.00     0.002 C 
HETATM   36  C   UNL     1     -45.572  55.325 -60.430  1.00  0.00     0.002 C 
HETATM   37  C   UNL     1     -45.169  56.794 -60.334  1.00  0.00     0.026 C 
ENDBRANCH   6  33
TORSDOF 8
ENDMDL
MODEL 2
REMARK VINA RESULT:      -7.8      2.023      4.967
REMARK  8 active torsions:
REMARK  status: ('A' for Active; 'I' for Inactive)
REMARK    1  A    between atoms: C_2  and  O_3 
REMARK    2  A    between atoms: O_3  and  C_4 
REMARK    3  A    between atoms: C_5  and  N_6 
REMARK       I    between atoms: N_9  and  C_10 
REMARK    4  A    between atoms: C_10  and  C_11 
REMARK    5  A    between atoms: C_14  and  C_15 
REMARK       I    between atoms: C_15  and  N_16 
REMARK    6  A    between atoms: N_16  and  C_17 
REMARK    7  A    between atoms: C_17  and  C_18 
REMARK    8  A    between atoms: N_23  and  C_24 
ROOT
HETATM    1  C   UNL     1     -43.296  59.286 -53.663  1.00  0.00     0.098 A 
HETATM    2  C   UNL     1     -43.215  58.819 -55.079  1.00  0.00     0.206 A 
HETATM    3  O   UNL     1     -42.278  58.130 -55.480  1.00  0.00    -0.286 OA
HETATM    4  C   UNL     1     -44.296  59.246 -56.013  1.00  0.00     0.098 A 
HETATM    5  C   UNL     1     -45.203  60.121 -55.541  1.00  0.00     0.112 A 
HETATM    6  N   UNL     1     -45.250  60.615 -54.238  1.00  0.00    -0.360 N 
HETATM    7  C   UNL     1     -44.314  60.101 -53.346  1.00  0.00     0.112 A 
ENDROOT
BRANCH   1   8
HETATM    8  C   UNL     1     -42.360  58.759 -52.635  1.00  0.00     0.259 C 
HETATM    9  N   UNL     1     -42.730  57.654 -51.871  1.00  0.00    -0.346 N 
HETATM   10  C   UNL     1     -43.639  56.585 -52.288  1.00  0.00     0.141 C 
HETATM   11  C   UNL     1     -41.777  57.173 -50.868  1.00  0.00     0.141 C 
HETATM   12  C   UNL     1     -42.827  55.437 -52.942  1.00  0.00     0.115 C 
HETATM   13  N   UNL     1     -41.786  54.926 -52.002  1.00  0.00    -0.278 NA
HETATM   14  C   UNL     1     -40.931  56.015 -51.435  1.00  0.00     0.115 C 
HETATM   15  O   UNL     1     -41.288  59.339 -52.464  1.00  0.00    -0.267 OA
BRANCH  13  16
HETATM   16  C   UNL     1     -41.108  53.764 -52.462  1.00  0.00     0.044 A 
HETATM   17  C   UNL     1     -40.112  53.101 -51.704  1.00  0.00     0.090 A 
HETATM   18  C   UNL     1     -39.489  51.925 -52.149  1.00  0.00     0.038 A 
HETATM   19  C   UNL     1     -39.786  51.402 -53.399  1.00  0.00     0.003 A 
HETATM   20  C   UNL     1     -40.715  52.054 -54.198  1.00  0.00     0.002 A 
HETATM   21  C   UNL     1     -41.359  53.210 -53.736  1.00  0.00     0.026 A 
BRANCH  17  22
HETATM   22  O   UNL     1     -39.674  53.539 -50.476  1.00  0.00    -0.350 OA
BRANCH  22  23
HETATM   23  C   UNL     1     -40.472  52.988 -49.421  1.00  0.00     0.171 C 
HETATM   24  C   UNL     1     -40.452  53.982 -48.273  1.00  0.00     0.034 C 
ENDBRANCH  22  23
ENDBRANCH  17  22
ENDBRANCH  13  16
ENDBRANCH   1   8
BRANCH   4  25
HETATM   25  C   UNL     1     -44.439  58.784 -57.423  1.00  0.00     0.257 C 
HETATM   26  N   UNL     1     -44.613  57.434 -57.588  1.00  0.00    -0.356 N 
HETATM   27  H   UNL     1     -44.554  56.831 -56.767  1.00  0.00     0.162 HD
HETATM   28  O   UNL     1     -44.422  59.574 -58.364  1.00  0.00    -0.267 OA
BRANCH  26  29
HETATM   29  C   UNL     1     -44.830  56.828 -58.884  1.00  0.00     0.126 C 
BRANCH  29  30
HETATM   30  C   UNL     1     -43.885  55.650 -59.158  1.00  0.00    -0.005 C 
HETATM   31  C   UNL     1     -44.547  54.596 -60.047  1.00  0.00     0.011 C 
HETATM   32  C   UNL     1     -42.598  56.154 -59.814  1.00  0.00     0.011 C 
ENDBRANCH  29  30
ENDBRANCH  26  29
ENDBRANCH   4  25
BRANCH   6  33
HETATM   33  C   UNL     1     -46.075  61.813 -53.954  1.00  0.00     0.088 C 
HETATM   34  C   UNL     1     -47.128  62.173 -55.005  1.00  0.00     0.026 C 
HETATM   35  C   UNL     1     -48.167  62.939 -54.198  1.00  0.00     0.002 C 
HETATM   36  C   UNL     1     -48.269  62.135 -52.910  1.00  0.00     0.002 C 
HETATM   37  C   UNL     1     -46.847  61.654 -52.632  1.00  0.00     0.026 C 
ENDBRANCH   6  33
TORSDOF 8
ENDMDL
MODEL 3
REMARK VINA RESULT:      -7.8      3.184      6.212
REMARK  8 active torsions:
REMARK  status: ('A' for Active; 'I' for Inactive)
REMARK    1  A    between atoms: C_2  and  O_3 
REMARK    2  A    between atoms: O_3  and  C_4 
REMARK    3  A    between atoms: C_5  and  N_6 
REMARK       I    between atoms: N_9  and  C_10 
REMARK    4  A    between atoms: C_10  and  C_11 
REMARK    5  A    between atoms: C_14  and  C_15 
REMARK       I    between atoms: C_15  and  N_16 
REMARK    6  A    between atoms: N_16  and  C_17 
REMARK    7  A    between atoms: C_17  and  C_18 
REMARK    8  A    between atoms: N_23  and  C_24 
ROOT
HETATM    1  C   UNL     1     -42.757  57.817 -51.603  1.00  0.00     0.098 A 
HETATM    2  C   UNL     1     -42.840  57.709 -53.090  1.00  0.00     0.206 A 
HETATM    3  O   UNL     1     -41.892  57.305 -53.763  1.00  0.00    -0.286 OA
HETATM    4  C   UNL     1     -44.107  58.141 -53.747  1.00  0.00     0.098 A 
HETATM    5  C   UNL     1     -45.039  58.712 -52.963  1.00  0.00     0.112 A 
HETATM    6  N   UNL     1     -44.945  58.878 -51.583  1.00  0.00    -0.360 N 
HETATM    7  C   UNL     1     -43.815  58.345 -50.970  1.00  0.00     0.112 A 
ENDROOT
BRANCH   1   8
HETATM    8  C   UNL     1     -41.603  57.242 -50.862  1.00  0.00     0.259 C 
HETATM    9  N   UNL     1     -41.790  56.113 -50.067  1.00  0.00    -0.346 N 
HETATM   10  C   UNL     1     -42.796  55.070 -50.278  1.00  0.00     0.141 C 
HETATM   11  C   UNL     1     -40.625  55.584 -49.354  1.00  0.00     0.141 C 
HETATM   12  C   UNL     1     -42.198  53.939 -51.154  1.00  0.00     0.115 C 
HETATM   13  N   UNL     1     -40.965  53.381 -50.524  1.00  0.00    -0.278 NA
HETATM   14  C   UNL     1     -39.973  54.439 -50.155  1.00  0.00     0.115 C 
HETATM   15  O   UNL     1     -40.511  57.803 -50.949  1.00  0.00    -0.267 OA
BRANCH  13  16
HETATM   16  C   UNL     1     -40.448  52.231 -51.179  1.00  0.00     0.044 A 
HETATM   17  C   UNL     1     -40.066  52.226 -52.543  1.00  0.00     0.090 A 
HETATM   18  C   UNL     1     -39.509  51.097 -53.163  1.00  0.00     0.038 A 
HETATM   19  C   UNL     1     -39.373  49.907 -52.463  1.00  0.00     0.003 A 
HETATM   20  C   UNL     1     -39.789  49.852 -51.141  1.00  0.00     0.002 A 
HETATM   21  C   UNL     1     -40.315  50.991 -50.516  1.00  0.00     0.026 A 
BRANCH  17  22
HETATM   22  O   UNL     1     -40.199  53.314 -53.373  1.00  0.00    -0.350 OA
BRANCH  22  23
HETATM   23  C   UNL     1     -40.828  52.945 -54.606  1.00  0.00     0.171 C 
HETATM   24  C   UNL     1     -42.121  53.736 -54.709  1.00  0.00     0.034 C 
ENDBRANCH  22  23
ENDBRANCH  17  22
ENDBRANCH  13  16
ENDBRANCH   1   8
BRANCH   4  25
HETATM   25  C   UNL     1     -44.408  57.996 -55.200  1.00  0.00     0.257 C 
HETATM   26  N   UNL     1     -43.379  58.308 -56.051  1.00  0.00    -0.356 N 
HETATM   27  H   UNL     1     -42.519  58.689 -55.656  1.00  0.00     0.162 HD
HETATM   28  O   UNL     1     -45.503  57.602 -55.594  1.00  0.00    -0.267 OA
BRANCH  26  29
HETATM   29  C   UNL     1     -43.483  58.162 -57.487  1.00  0.00     0.126 C 
BRANCH  29  30
HETATM   30  C   UNL     1     -42.539  57.091 -58.048  1.00  0.00    -0.005 C 
HETATM   31  C   UNL     1     -43.065  55.681 -57.773  1.00  0.00     0.011 C 
HETATM   32  C   UNL     1     -42.353  57.295 -59.554  1.00  0.00     0.011 C 
ENDBRANCH  29  30
ENDBRANCH  26  29
ENDBRANCH   4  25
BRANCH   6  33
HETATM   33  C   UNL     1     -45.874  59.815 -50.907  1.00  0.00     0.088 C 
HETATM   34  C   UNL     1     -45.242  60.788 -49.907  1.00  0.00     0.026 C 
HETATM   35  C   UNL     1     -46.221  61.954 -49.902  1.00  0.00     0.002 C 
HETATM   36  C   UNL     1     -46.574  62.116 -51.372  1.00  0.00     0.002 C 
HETATM   37  C   UNL     1     -46.615  60.696 -51.928  1.00  0.00     0.026 C 
ENDBRANCH   6  33
TORSDOF 8
ENDMDL
MODEL 4
REMARK VINA RESULT:      -7.7      1.776      2.202
REMARK  8 active torsions:
REMARK  status: ('A' for Active; 'I' for Inactive)
REMARK    1  A    between atoms: C_2  and  O_3 
REMARK    2  A    between atoms: O_3  and  C_4 
REMARK    3  A    between atoms: C_5  and  N_6 
REMARK       I    between atoms: N_9  and  C_10 
REMARK    4  A    between atoms: C_10  and  C_11 
REMARK    5  A    between atoms: C_14  and  C_15 
REMARK       I    between atoms: C_15  and  N_16 
REMARK    6  A    between atoms: N_16  and  C_17 
REMARK    7  A    between atoms: C_17  and  C_18 
REMARK    8  A    between atoms: N_23  and  C_24 
ROOT
HETATM    1  C   UNL     1     -43.077  59.422 -55.061  1.00  0.00     0.098 A 
HETATM    2  C   UNL     1     -44.242  60.339 -54.883  1.00  0.00     0.206 A 
HETATM    3  O   UNL     1     -44.613  60.705 -53.769  1.00  0.00    -0.286 OA
HETATM    4  C   UNL     1     -44.973  60.777 -56.107  1.00  0.00     0.098 A 
HETATM    5  C   UNL     1     -44.604  60.218 -57.274  1.00  0.00     0.112 A 
HETATM    6  N   UNL     1     -43.560  59.309 -57.442  1.00  0.00    -0.360 N 
HETATM    7  C   UNL     1     -42.804  59.018 -56.311  1.00  0.00     0.112 A 
ENDROOT
BRANCH   1   8
HETATM    8  C   UNL     1     -42.193  59.086 -53.914  1.00  0.00     0.259 C 
HETATM    9  N   UNL     1     -42.617  58.155 -52.968  1.00  0.00    -0.346 N 
HETATM   10  C   UNL     1     -43.536  57.041 -53.210  1.00  0.00     0.141 C 
HETATM   11  C   UNL     1     -41.713  57.858 -51.854  1.00  0.00     0.141 C 
HETATM   12  C   UNL     1     -42.730  55.776 -53.600  1.00  0.00     0.115 C 
HETATM   13  N   UNL     1     -41.737  55.436 -52.538  1.00  0.00    -0.278 NA
HETATM   14  C   UNL     1     -40.877  56.599 -52.155  1.00  0.00     0.115 C 
HETATM   15  O   UNL     1     -41.114  59.669 -53.814  1.00  0.00    -0.267 OA
BRANCH  13  16
HETATM   16  C   UNL     1     -41.072  54.196 -52.740  1.00  0.00     0.044 A 
HETATM   17  C   UNL     1     -40.795  53.289 -51.689  1.00  0.00     0.090 A 
HETATM   18  C   UNL     1     -40.184  52.045 -51.911  1.00  0.00     0.038 A 
HETATM   19  C   UNL     1     -39.765  51.687 -53.184  1.00  0.00     0.003 A 
HETATM   20  C   UNL     1     -39.964  52.572 -54.233  1.00  0.00     0.002 A 
HETATM   21  C   UNL     1     -40.604  53.799 -54.012  1.00  0.00     0.026 A 
BRANCH  17  22
HETATM   22  O   UNL     1     -41.100  53.537 -50.371  1.00  0.00    -0.350 OA
BRANCH  22  23
HETATM   23  C   UNL     1     -39.926  53.893 -49.631  1.00  0.00     0.171 C 
HETATM   24  C   UNL     1     -40.357  54.159 -48.199  1.00  0.00     0.034 C 
ENDBRANCH  22  23
ENDBRANCH  17  22
ENDBRANCH  13  16
ENDBRANCH   1   8
BRANCH   4  25
HETATM   25  C   UNL     1     -46.079  61.776 -56.130  1.00  0.00     0.257 C 
HETATM   26  N   UNL     1     -47.051  61.603 -55.179  1.00  0.00    -0.356 N 
HETATM   27  H   UNL     1     -47.006  60.777 -54.581  1.00  0.00     0.162 HD
HETATM   28  O   UNL     1     -46.095  62.701 -56.939  1.00  0.00    -0.267 OA
BRANCH  26  29
HETATM   29  C   UNL     1     -48.161  62.519 -55.023  1.00  0.00     0.126 C 
BRANCH  29  30
HETATM   30  C   UNL     1     -48.642  62.631 -53.569  1.00  0.00    -0.005 C 
HETATM   31  C   UNL     1     -50.062  62.087 -53.406  1.00  0.00     0.011 C 
HETATM   32  C   UNL     1     -47.684  61.879 -52.643  1.00  0.00     0.011 C 
ENDBRANCH  29  30
ENDBRANCH  26  29
ENDBRANCH   4  25
BRANCH   6  33
HETATM   33  C   UNL     1     -43.486  58.523 -58.697  1.00  0.00     0.088 C 
HETATM   34  C   UNL     1     -42.106  58.429 -59.354  1.00  0.00     0.026 C 
HETATM   35  C   UNL     1     -42.193  57.130 -60.143  1.00  0.00     0.002 C 
HETATM   36  C   UNL     1     -42.915  56.192 -59.189  1.00  0.00     0.002 C 
HETATM   37  C   UNL     1     -43.935  57.069 -58.468  1.00  0.00     0.026 C 
ENDBRANCH   6  33
TORSDOF 8
ENDMDL
MODEL 5
REMARK VINA RESULT:      -7.6      4.554      8.622
REMARK  8 active torsions:
REMARK  status: ('A' for Active; 'I' for Inactive)
REMARK    1  A    between atoms: C_2  and  O_3 
REMARK    2  A    between atoms: O_3  and  C_4 
REMARK    3  A    between atoms: C_5  and  N_6 
REMARK       I    between atoms: N_9  and  C_10 
REMARK    4  A    between atoms: C_10  and  C_11 
REMARK    5  A    between atoms: C_14  and  C_15 
REMARK       I    between atoms: C_15  and  N_16 
REMARK    6  A    between atoms: N_16  and  C_17 
REMARK    7  A    between atoms: C_17  and  C_18 
REMARK    8  A    between atoms: N_23  and  C_24 
ROOT
HETATM    1  C   UNL     1     -42.862  58.070 -53.012  1.00  0.00     0.098 A 
HETATM    2  C   UNL     1     -43.260  57.437 -54.304  1.00  0.00     0.206 A 
HETATM    3  O   UNL     1     -43.858  58.066 -55.176  1.00  0.00    -0.286 OA
HETATM    4  C   UNL     1     -42.940  55.993 -54.496  1.00  0.00     0.098 A 
HETATM    5  C   UNL     1     -42.424  55.335 -53.443  1.00  0.00     0.112 A 
HETATM    6  N   UNL     1     -42.108  55.902 -52.209  1.00  0.00    -0.360 N 
HETATM    7  C   UNL     1     -42.287  57.277 -52.095  1.00  0.00     0.112 A 
ENDROOT
BRANCH   1   8
HETATM    8  C   UNL     1     -42.983  59.539 -52.816  1.00  0.00     0.259 C 
HETATM    9  N   UNL     1     -44.242  60.105 -52.622  1.00  0.00    -0.346 N 
HETATM   10  C   UNL     1     -45.399  59.441 -52.020  1.00  0.00     0.141 C 
HETATM   11  C   UNL     1     -44.312  61.556 -52.437  1.00  0.00     0.141 C 
HETATM   12  C   UNL     1     -45.416  59.708 -50.493  1.00  0.00     0.115 C 
HETATM   13  N   UNL     1     -45.428  61.174 -50.213  1.00  0.00    -0.278 NA
HETATM   14  C   UNL     1     -44.345  61.911 -50.937  1.00  0.00     0.115 C 
HETATM   15  O   UNL     1     -41.962  60.224 -52.864  1.00  0.00    -0.267 OA
BRANCH  13  16
HETATM   16  C   UNL     1     -45.610  61.503 -48.843  1.00  0.00     0.044 A 
HETATM   17  C   UNL     1     -46.587  62.423 -48.393  1.00  0.00     0.090 A 
HETATM   18  C   UNL     1     -46.791  62.699 -47.032  1.00  0.00     0.038 A 
HETATM   19  C   UNL     1     -45.980  62.116 -46.069  1.00  0.00     0.003 A 
HETATM   20  C   UNL     1     -44.971  61.252 -46.471  1.00  0.00     0.002 A 
HETATM   21  C   UNL     1     -44.793  60.955 -47.830  1.00  0.00     0.026 A 
BRANCH  17  22
HETATM   22  O   UNL     1     -47.421  63.119 -49.238  1.00  0.00    -0.350 OA
BRANCH  22  23
HETATM   23  C   UNL     1     -48.344  63.926 -48.497  1.00  0.00     0.171 C 
HETATM   24  C   UNL     1     -49.700  63.796 -49.169  1.00  0.00     0.034 C 
ENDBRANCH  22  23
ENDBRANCH  17  22
ENDBRANCH  13  16
ENDBRANCH   1   8
BRANCH   4  25
HETATM   25  C   UNL     1     -43.158  55.231 -55.758  1.00  0.00     0.257 C 
HETATM   26  N   UNL     1     -43.172  55.980 -56.907  1.00  0.00    -0.356 N 
HETATM   27  H   UNL     1     -43.117  56.995 -56.826  1.00  0.00     0.162 HD
HETATM   28  O   UNL     1     -43.293  54.009 -55.757  1.00  0.00    -0.267 OA
BRANCH  26  29
HETATM   29  C   UNL     1     -43.310  55.390 -58.221  1.00  0.00     0.126 C 
BRANCH  29  30
HETATM   30  C   UNL     1     -43.529  56.434 -59.324  1.00  0.00    -0.005 C 
HETATM   31  C   UNL     1     -42.203  56.889 -59.936  1.00  0.00     0.011 C 
HETATM   32  C   UNL     1     -44.438  55.861 -60.413  1.00  0.00     0.011 C 
ENDBRANCH  29  30
ENDBRANCH  26  29
ENDBRANCH   4  25
BRANCH   6  33
HETATM   33  C   UNL     1     -41.875  55.011 -51.047  1.00  0.00     0.088 C 
HETATM   34  C   UNL     1     -41.292  53.631 -51.362  1.00  0.00     0.026 C 
HETATM   35  C   UNL     1     -40.587  53.255 -50.066  1.00  0.00     0.002 C 
HETATM   36  C   UNL     1     -39.918  54.555 -49.645  1.00  0.00     0.002 C 
HETATM   37  C   UNL     1     -40.901  55.652 -50.042  1.00  0.00     0.026 C 
ENDBRANCH   6  33
TORSDOF 8
ENDMDL
MODEL 6
REMARK VINA RESULT:      -7.6      3.044      7.495
REMARK  8 active torsions:
REMARK  status: ('A' for Active; 'I' for Inactive)
REMARK    1  A    between atoms: C_2  and  O_3 
REMARK    2  A    between atoms: O_3  and  C_4 
REMARK    3  A    between atoms: C_5  and  N_6 
REMARK       I    between atoms: N_9  and  C_10 
REMARK    4  A    between atoms: C_10  and  C_11 
REMARK    5  A    between atoms: C_14  and  C_15 
REMARK       I    between atoms: C_15  and  N_16 
REMARK    6  A    between atoms: N_16  and  C_17 
REMARK    7  A    between atoms: C_17  and  C_18 
REMARK    8  A    between atoms: N_23  and  C_24 
ROOT
HETATM    1  C   UNL     1     -42.599  57.975 -56.038  1.00  0.00     0.098 A 
HETATM    2  C   UNL     1     -42.117  56.989 -55.026  1.00  0.00     0.206 A 
HETATM    3  O   UNL     1     -41.574  57.347 -53.982  1.00  0.00    -0.286 OA
HETATM    4  C   UNL     1     -42.283  55.540 -55.336  1.00  0.00     0.098 A 
HETATM    5  C   UNL     1     -42.746  55.224 -56.559  1.00  0.00     0.112 A 
HETATM    6  N   UNL     1     -43.138  56.137 -57.537  1.00  0.00    -0.360 N 
HETATM    7  C   UNL     1     -43.104  57.481 -57.179  1.00  0.00     0.112 A 
ENDROOT
BRANCH   1   8
HETATM    8  C   UNL     1     -42.633  59.429 -55.726  1.00  0.00     0.259 C 
HETATM    9  N   UNL     1     -43.854  60.047 -55.465  1.00  0.00    -0.346 N 
HETATM   10  C   UNL     1     -45.039  59.404 -54.894  1.00  0.00     0.141 C 
HETATM   11  C   UNL     1     -43.838  61.481 -55.166  1.00  0.00     0.141 C 
HETATM   12  C   UNL     1     -45.018  59.550 -53.350  1.00  0.00     0.115 C 
HETATM   13  N   UNL     1     -44.941  60.988 -52.957  1.00  0.00    -0.278 NA
HETATM   14  C   UNL     1     -43.829  61.718 -53.642  1.00  0.00     0.115 C 
HETATM   15  O   UNL     1     -41.575  60.057 -55.740  1.00  0.00    -0.267 OA
BRANCH  13  16
HETATM   16  C   UNL     1     -45.084  61.217 -51.562  1.00  0.00     0.044 A 
HETATM   17  C   UNL     1     -44.169  60.722 -50.602  1.00  0.00     0.090 A 
HETATM   18  C   UNL     1     -44.293  61.001 -49.232  1.00  0.00     0.038 A 
HETATM   19  C   UNL     1     -45.375  61.728 -48.759  1.00  0.00     0.003 A 
HETATM   20  C   UNL     1     -46.327  62.183 -49.660  1.00  0.00     0.002 A 
HETATM   21  C   UNL     1     -46.181  61.931 -51.032  1.00  0.00     0.026 A 
BRANCH  17  22
HETATM   22  O   UNL     1     -43.084  59.938 -50.919  1.00  0.00    -0.350 OA
BRANCH  22  23
HETATM   23  C   UNL     1     -41.866  60.539 -50.462  1.00  0.00     0.171 C 
HETATM   24  C   UNL     1     -40.902  59.412 -50.134  1.00  0.00     0.034 C 
ENDBRANCH  22  23
ENDBRANCH  17  22
ENDBRANCH  13  16
ENDBRANCH   1   8
BRANCH   4  25
HETATM   25  C   UNL     1     -41.968  54.424 -54.398  1.00  0.00     0.257 C 
HETATM   26  N   UNL     1     -42.029  54.738 -53.065  1.00  0.00    -0.356 N 
HETATM   27  H   UNL     1     -42.201  55.707 -52.800  1.00  0.00     0.162 HD
HETATM   28  O   UNL     1     -41.694  53.298 -54.807  1.00  0.00    -0.267 OA
BRANCH  26  29
HETATM   29  C   UNL     1     -41.812  53.756 -52.023  1.00  0.00     0.126 C 
BRANCH  29  30
HETATM   30  C   UNL     1     -40.354  53.700 -51.550  1.00  0.00    -0.005 C 
HETATM   31  C   UNL     1     -40.202  54.260 -50.134  1.00  0.00     0.011 C 
HETATM   32  C   UNL     1     -39.844  52.258 -51.599  1.00  0.00     0.011 C 
ENDBRANCH  29  30
ENDBRANCH  26  29
ENDBRANCH   4  25
BRANCH   6  33
HETATM   33  C   UNL     1     -43.296  55.669 -58.934  1.00  0.00     0.088 C 
HETATM   34  C   UNL     1     -44.243  54.484 -59.146  1.00  0.00     0.026 C 
HETATM   35  C   UNL     1     -44.695  54.663 -60.589  1.00  0.00     0.002 C 
HETATM   36  C   UNL     1     -44.926  56.162 -60.697  1.00  0.00     0.002 C 
HETATM   37  C   UNL     1     -43.833  56.793 -59.839  1.00  0.00     0.026 C 
ENDBRANCH   6  33
TORSDOF 8
ENDMDL
MODEL 7
REMARK VINA RESULT:      -7.6      3.093      6.332
REMARK  8 active torsions:
REMARK  status: ('A' for Active; 'I' for Inactive)
REMARK    1  A    between atoms: C_2  and  O_3 
REMARK    2  A    between atoms: O_3  and  C_4 
REMARK    3  A    between atoms: C_5  and  N_6 
REMARK       I    between atoms: N_9  and  C_10 
REMARK    4  A    between atoms: C_10  and  C_11 
REMARK    5  A    between atoms: C_14  and  C_15 
REMARK       I    between atoms: C_15  and  N_16 
REMARK    6  A    between atoms: N_16  and  C_17 
REMARK    7  A    between atoms: C_17  and  C_18 
REMARK    8  A    between atoms: N_23  and  C_24 
ROOT
HETATM    1  C   UNL     1     -41.686  59.300 -51.906  1.00  0.00     0.098 A 
HETATM    2  C   UNL     1     -41.420  59.171 -53.369  1.00  0.00     0.206 A 
HETATM    3  O   UNL     1     -40.634  58.334 -53.813  1.00  0.00    -0.286 OA
HETATM    4  C   UNL     1     -42.115  60.119 -54.287  1.00  0.00     0.098 A 
HETATM    5  C   UNL     1     -42.839  61.100 -53.719  1.00  0.00     0.112 A 
HETATM    6  N   UNL     1     -43.041  61.270 -52.351  1.00  0.00    -0.360 N 
HETATM    7  C   UNL     1     -42.497  60.297 -51.519  1.00  0.00     0.112 A 
ENDROOT
BRANCH   1   8
HETATM    8  C   UNL     1     -41.175  58.284 -50.948  1.00  0.00     0.259 C 
HETATM    9  N   UNL     1     -41.918  57.130 -50.708  1.00  0.00    -0.346 N 
HETATM   10  C   UNL     1     -42.833  56.485 -51.651  1.00  0.00     0.141 C 
HETATM   11  C   UNL     1     -41.375  56.159 -49.755  1.00  0.00     0.141 C 
HETATM   12  C   UNL     1     -42.067  55.416 -52.472  1.00  0.00     0.115 C 
HETATM   13  N   UNL     1     -41.429  54.414 -51.568  1.00  0.00    -0.278 NA
HETATM   14  C   UNL     1     -40.604  55.047 -50.492  1.00  0.00     0.115 C 
HETATM   15  O   UNL     1     -40.114  58.508 -50.365  1.00  0.00    -0.267 OA
BRANCH  13  16
HETATM   16  C   UNL     1     -40.847  53.308 -52.244  1.00  0.00     0.044 A 
HETATM   17  C   UNL     1     -41.135  52.992 -53.594  1.00  0.00     0.090 A 
HETATM   18  C   UNL     1     -40.513  51.928 -54.266  1.00  0.00     0.038 A 
HETATM   19  C   UNL     1     -39.628  51.096 -53.595  1.00  0.00     0.003 A 
HETATM   20  C   UNL     1     -39.362  51.336 -52.254  1.00  0.00     0.002 A 
HETATM   21  C   UNL     1     -39.961  52.420 -51.597  1.00  0.00     0.026 A 
BRANCH  17  22
HETATM   22  O   UNL     1     -42.035  53.692 -54.364  1.00  0.00    -0.350 OA
BRANCH  22  23
HETATM   23  C   UNL     1     -41.379  54.332 -55.465  1.00  0.00     0.171 C 
HETATM   24  C   UNL     1     -42.441  55.076 -56.254  1.00  0.00     0.034 C 
ENDBRANCH  22  23
ENDBRANCH  17  22
ENDBRANCH  13  16
ENDBRANCH   1   8
BRANCH   4  25
HETATM   25  C   UNL     1     -42.059  60.063 -55.775  1.00  0.00     0.257 C 
HETATM   26  N   UNL     1     -42.228  58.818 -56.327  1.00  0.00    -0.356 N 
HETATM   27  H   UNL     1     -42.298  58.015 -55.703  1.00  0.00     0.162 HD
HETATM   28  O   UNL     1     -41.894  61.075 -56.452  1.00  0.00    -0.267 OA
BRANCH  26  29
HETATM   29  C   UNL     1     -42.264  58.598 -57.757  1.00  0.00     0.126 C 
BRANCH  29  30
HETATM   30  C   UNL     1     -43.689  58.426 -58.299  1.00  0.00    -0.005 C 
HETATM   31  C   UNL     1     -43.750  57.348 -59.383  1.00  0.00     0.011 C 
HETATM   32  C   UNL     1     -44.643  58.073 -57.156  1.00  0.00     0.011 C 
ENDBRANCH  29  30
ENDBRANCH  26  29
ENDBRANCH   4  25
BRANCH   6  33
HETATM   33  C   UNL     1     -43.562  62.567 -51.856  1.00  0.00     0.088 C 
HETATM   34  C   UNL     1     -45.066  62.627 -51.577  1.00  0.00     0.026 C 
HETATM   35  C   UNL     1     -45.175  63.733 -50.535  1.00  0.00     0.002 C 
HETATM   36  C   UNL     1     -43.994  63.461 -49.616  1.00  0.00     0.002 C 
HETATM   37  C   UNL     1     -42.880  62.973 -50.537  1.00  0.00     0.026 C 
ENDBRANCH   6  33
TORSDOF 8
ENDMDL
MODEL 8
REMARK VINA RESULT:      -7.4      3.176      5.940
REMARK  8 active torsions:
REMARK  status: ('A' for Active; 'I' for Inactive)
REMARK    1  A    between atoms: C_2  and  O_3 
REMARK    2  A    between atoms: O_3  and  C_4 
REMARK    3  A    between atoms: C_5  and  N_6 
REMARK       I    between atoms: N_9  and  C_10 
REMARK    4  A    between atoms: C_10  and  C_11 
REMARK    5  A    between atoms: C_14  and  C_15 
REMARK       I    between atoms: C_15  and  N_16 
REMARK    6  A    between atoms: N_16  and  C_17 
REMARK    7  A    between atoms: C_17  and  C_18 
REMARK    8  A    between atoms: N_23  and  C_24 
ROOT
HETATM    1  C   UNL     1     -42.083  60.191 -52.710  1.00  0.00     0.098 A 
HETATM    2  C   UNL     1     -42.062  59.914 -54.177  1.00  0.00     0.206 A 
HETATM    3  O   UNL     1     -41.308  59.073 -54.666  1.00  0.00    -0.286 OA
HETATM    4  C   UNL     1     -42.966  60.720 -55.048  1.00  0.00     0.098 A 
HETATM    5  C   UNL     1     -43.647  61.721 -54.463  1.00  0.00     0.112 A 
HETATM    6  N   UNL     1     -43.624  62.031 -53.104  1.00  0.00    -0.360 N 
HETATM    7  C   UNL     1     -42.881  61.183 -52.287  1.00  0.00     0.112 A 
ENDROOT
BRANCH   1   8
HETATM    8  C   UNL     1     -41.349  59.313 -51.760  1.00  0.00     0.259 C 
HETATM    9  N   UNL     1     -41.985  58.195 -51.225  1.00  0.00    -0.346 N 
HETATM   10  C   UNL     1     -43.053  57.425 -51.865  1.00  0.00     0.141 C 
HETATM   11  C   UNL     1     -41.223  57.362 -50.292  1.00  0.00     0.141 C 
HETATM   12  C   UNL     1     -42.438  56.263 -52.687  1.00  0.00     0.115 C 
HETATM   13  N   UNL     1     -41.591  55.393 -51.817  1.00  0.00    -0.278 NA
HETATM   14  C   UNL     1     -40.583  56.168 -51.029  1.00  0.00     0.115 C 
HETATM   15  O   UNL     1     -40.199  59.620 -51.447  1.00  0.00    -0.267 OA
BRANCH  13  16
HETATM   16  C   UNL     1     -41.124  54.213 -52.456  1.00  0.00     0.044 A 
HETATM   17  C   UNL     1     -40.243  53.296 -51.833  1.00  0.00     0.090 A 
HETATM   18  C   UNL     1     -39.832  52.108 -52.456  1.00  0.00     0.038 A 
HETATM   19  C   UNL     1     -40.230  51.821 -53.753  1.00  0.00     0.003 A 
HETATM   20  C   UNL     1     -41.046  52.722 -54.422  1.00  0.00     0.002 A 
HETATM   21  C   UNL     1     -41.482  53.892 -53.784  1.00  0.00     0.026 A 
BRANCH  17  22
HETATM   22  O   UNL     1     -39.722  53.479 -50.573  1.00  0.00    -0.350 OA
BRANCH  22  23
HETATM   23  C   UNL     1     -40.520  52.816 -49.586  1.00  0.00     0.171 C 
HETATM   24  C   UNL     1     -40.501  53.677 -48.335  1.00  0.00     0.034 C 
ENDBRANCH  22  23
ENDBRANCH  17  22
ENDBRANCH  13  16
ENDBRANCH   1   8
BRANCH   4  25
HETATM   25  C   UNL     1     -43.160  60.502 -56.510  1.00  0.00     0.257 C 
HETATM   26  N   UNL     1     -42.063  60.039 -57.189  1.00  0.00    -0.356 N 
HETATM   27  H   UNL     1     -41.180  59.950 -56.687  1.00  0.00     0.162 HD
HETATM   28  O   UNL     1     -44.243  60.708 -57.052  1.00  0.00    -0.267 OA
BRANCH  26  29
HETATM   29  C   UNL     1     -42.099  59.716 -58.600  1.00  0.00     0.126 C 
BRANCH  29  30
HETATM   30  C   UNL     1     -41.814  58.234 -58.880  1.00  0.00    -0.005 C 
HETATM   31  C   UNL     1     -42.785  57.325 -58.125  1.00  0.00     0.011 C 
HETATM   32  C   UNL     1     -41.903  57.960 -60.383  1.00  0.00     0.011 C 
ENDBRANCH  29  30
ENDBRANCH  26  29
ENDBRANCH   4  25
BRANCH   6  33
HETATM   33  C   UNL     1     -44.139  63.347 -52.657  1.00  0.00     0.088 C 
HETATM   34  C   UNL     1     -45.580  63.368 -52.140  1.00  0.00     0.026 C 
HETATM   35  C   UNL     1     -45.590  64.571 -51.207  1.00  0.00     0.002 C 
HETATM   36  C   UNL     1     -44.262  64.452 -50.474  1.00  0.00     0.002 C 
HETATM   37  C   UNL     1     -43.282  63.921 -51.515  1.00  0.00     0.026 C 
ENDBRANCH   6  33
TORSDOF 8
ENDMDL
MODEL 9
REMARK VINA RESULT:      -7.3      4.941      8.268
REMARK  8 active torsions:
REMARK  status: ('A' for Active; 'I' for Inactive)
REMARK    1  A    between atoms: C_2  and  O_3 
REMARK    2  A    between atoms: O_3  and  C_4 
REMARK    3  A    between atoms: C_5  and  N_6 
REMARK       I    between atoms: N_9  and  C_10 
REMARK    4  A    between atoms: C_10  and  C_11 
REMARK    5  A    between atoms: C_14  and  C_15 
REMARK       I    between atoms: C_15  and  N_16 
REMARK    6  A    between atoms: N_16  and  C_17 
REMARK    7  A    between atoms: C_17  and  C_18 
REMARK    8  A    between atoms: N_23  and  C_24 
ROOT
HETATM    1  C   UNL     1     -43.905  59.538 -53.743  1.00  0.00     0.098 A 
HETATM    2  C   UNL     1     -44.018  58.609 -54.906  1.00  0.00     0.206 A 
HETATM    3  O   UNL     1     -45.062  58.499 -55.547  1.00  0.00    -0.286 OA
HETATM    4  C   UNL     1     -42.825  57.784 -55.253  1.00  0.00     0.098 A 
HETATM    5  C   UNL     1     -41.772  57.848 -54.418  1.00  0.00     0.112 A 
HETATM    6  N   UNL     1     -41.681  58.663 -53.290  1.00  0.00    -0.360 N 
HETATM    7  C   UNL     1     -42.749  59.525 -53.061  1.00  0.00     0.112 A 
ENDROOT
BRANCH   1   8
HETATM    8  C   UNL     1     -44.982  60.519 -53.446  1.00  0.00     0.259 C 
HETATM    9  N   UNL     1     -45.937  60.219 -52.476  1.00  0.00    -0.346 N 
HETATM   10  C   UNL     1     -45.737  59.355 -51.311  1.00  0.00     0.141 C 
HETATM   11  C   UNL     1     -46.981  61.214 -52.220  1.00  0.00     0.141 C 
HETATM   12  C   UNL     1     -45.270  60.208 -50.104  1.00  0.00     0.115 C 
HETATM   13  N   UNL     1     -46.255  61.291 -49.811  1.00  0.00    -0.278 NA
HETATM   14  C   UNL     1     -46.600  62.103 -51.020  1.00  0.00     0.115 C 
HETATM   15  O   UNL     1     -45.019  61.565 -54.094  1.00  0.00    -0.267 OA
BRANCH  13  16
HETATM   16  C   UNL     1     -45.985  62.015 -48.619  1.00  0.00     0.044 A 
HETATM   17  C   UNL     1     -46.014  61.422 -47.333  1.00  0.00     0.090 A 
HETATM   18  C   UNL     1     -45.694  62.137 -46.168  1.00  0.00     0.038 A 
HETATM   19  C   UNL     1     -45.397  63.490 -46.235  1.00  0.00     0.003 A 
HETATM   20  C   UNL     1     -45.413  64.124 -47.469  1.00  0.00     0.002 A 
HETATM   21  C   UNL     1     -45.702  63.398 -48.634  1.00  0.00     0.026 A 
BRANCH  17  22
HETATM   22  O   UNL     1     -46.350  60.107 -47.110  1.00  0.00    -0.350 OA
BRANCH  22  23
HETATM   23  C   UNL     1     -46.271  59.787 -45.716  1.00  0.00     0.171 C 
HETATM   24  C   UNL     1     -47.258  58.662 -45.454  1.00  0.00     0.034 C 
ENDBRANCH  22  23
ENDBRANCH  17  22
ENDBRANCH  13  16
ENDBRANCH   1   8
BRANCH   4  25
HETATM   25  C   UNL     1     -42.719  56.895 -56.445  1.00  0.00     0.257 C 
HETATM   26  N   UNL     1     -42.848  57.517 -57.660  1.00  0.00    -0.356 N 
HETATM   27  H   UNL     1     -43.084  58.509 -57.677  1.00  0.00     0.162 HD
HETATM   28  O   UNL     1     -42.508  55.690 -56.331  1.00  0.00    -0.267 OA
BRANCH  26  29
HETATM   29  C   UNL     1     -42.708  56.811 -58.916  1.00  0.00     0.126 C 
BRANCH  29  30
HETATM   30  C   UNL     1     -44.053  56.553 -59.608  1.00  0.00    -0.005 C 
HETATM   31  C   UNL     1     -44.380  55.059 -59.657  1.00  0.00     0.011 C 
HETATM   32  C   UNL     1     -45.168  57.308 -58.880  1.00  0.00     0.011 C 
ENDBRANCH  29  30
ENDBRANCH  26  29
ENDBRANCH   4  25
BRANCH   6  33
HETATM   33  C   UNL     1     -40.628  58.384 -52.285  1.00  0.00     0.088 C 
HETATM   34  C   UNL     1     -39.294  59.106 -52.488  1.00  0.00     0.026 C 
HETATM   35  C   UNL     1     -38.720  59.163 -51.079  1.00  0.00     0.002 C 
HETATM   36  C   UNL     1     -39.929  59.512 -50.225  1.00  0.00     0.002 C 
HETATM   37  C   UNL     1     -41.096  58.768 -50.870  1.00  0.00     0.026 C 
ENDBRANCH   6  33
TORSDOF 8
ENDMDL
MODEL 10
REMARK VINA RESULT:      -7.0      2.178      9.405
REMARK  8 active torsions:
REMARK  status: ('A' for Active; 'I' for Inactive)
REMARK    1  A    between atoms: C_2  and  O_3 
REMARK    2  A    between atoms: O_3  and  C_4 
REMARK    3  A    between atoms: C_5  and  N_6 
REMARK       I    between atoms: N_9  and  C_10 
REMARK    4  A    between atoms: C_10  and  C_11 
REMARK    5  A    between atoms: C_14  and  C_15 
REMARK       I    between atoms: C_15  and  N_16 
REMARK    6  A    between atoms: N_16  and  C_17 
REMARK    7  A    between atoms: C_17  and  C_18 
REMARK    8  A    between atoms: N_23  and  C_24 
ROOT
HETATM    1  C   UNL     1     -42.717  56.664 -56.976  1.00  0.00     0.098 A 
HETATM    2  C   UNL     1     -42.301  57.851 -56.170  1.00  0.00     0.206 A 
HETATM    3  O   UNL     1     -42.214  58.972 -56.667  1.00  0.00    -0.286 OA
HETATM    4  C   UNL     1     -41.957  57.628 -54.735  1.00  0.00     0.098 A 
HETATM    5  C   UNL     1     -41.929  56.355 -54.303  1.00  0.00     0.112 A 
HETATM    6  N   UNL     1     -42.252  55.233 -55.065  1.00  0.00    -0.360 N 
HETATM    7  C   UNL     1     -42.701  55.472 -56.360  1.00  0.00     0.112 A 
ENDROOT
BRANCH   1   8
HETATM    8  C   UNL     1     -43.245  56.831 -58.356  1.00  0.00     0.259 C 
HETATM    9  N   UNL     1     -44.597  57.114 -58.544  1.00  0.00    -0.346 N 
HETATM   10  C   UNL     1     -45.465  57.827 -57.606  1.00  0.00     0.141 C 
HETATM   11  C   UNL     1     -45.072  57.266 -59.921  1.00  0.00     0.141 C 
HETATM   12  C   UNL     1     -45.449  59.343 -57.931  1.00  0.00     0.115 C 
HETATM   13  N   UNL     1     -45.866  59.584 -59.344  1.00  0.00    -0.278 NA
HETATM   14  C   UNL     1     -45.099  58.754 -60.325  1.00  0.00     0.115 C 
HETATM   15  O   UNL     1     -42.473  56.681 -59.302  1.00  0.00    -0.267 OA
BRANCH  13  16
HETATM   16  C   UNL     1     -46.037  60.956 -59.673  1.00  0.00     0.044 A 
HETATM   17  C   UNL     1     -47.292  61.517 -60.014  1.00  0.00     0.090 A 
HETATM   18  C   UNL     1     -47.455  62.884 -60.285  1.00  0.00     0.038 A 
HETATM   19  C   UNL     1     -46.358  63.734 -60.294  1.00  0.00     0.003 A 
HETATM   20  C   UNL     1     -45.101  63.214 -60.022  1.00  0.00     0.002 A 
HETATM   21  C   UNL     1     -44.948  61.853 -59.719  1.00  0.00     0.026 A 
BRANCH  17  22
HETATM   22  O   UNL     1     -48.453  60.785 -60.103  1.00  0.00    -0.350 OA
BRANCH  22  23
HETATM   23  C   UNL     1     -49.450  61.294 -59.210  1.00  0.00     0.171 C 
HETATM   24  C   UNL     1     -49.289  60.564 -57.888  1.00  0.00     0.034 C 
ENDBRANCH  22  23
ENDBRANCH  17  22
ENDBRANCH  13  16
ENDBRANCH   1   8
BRANCH   4  25
HETATM   25  C   UNL     1     -41.635  58.706 -53.758  1.00  0.00     0.257 C 
HETATM   26  N   UNL     1     -42.193  58.561 -52.513  1.00  0.00    -0.356 N 
HETATM   27  H   UNL     1     -42.843  57.790 -52.357  1.00  0.00     0.162 HD
HETATM   28  O   UNL     1     -40.900  59.645 -54.054  1.00  0.00    -0.267 OA
BRANCH  26  29
HETATM   29  C   UNL     1     -41.931  59.484 -51.429  1.00  0.00     0.126 C 
BRANCH  29  30
HETATM   30  C   UNL     1     -40.981  58.908 -50.371  1.00  0.00    -0.005 C 
HETATM   31  C   UNL     1     -40.955  57.379 -50.416  1.00  0.00     0.011 C 
HETATM   32  C   UNL     1     -39.569  59.460 -50.581  1.00  0.00     0.011 C 
ENDBRANCH  29  30
ENDBRANCH  26  29
ENDBRANCH   4  25
BRANCH   6  33
HETATM   33  C   UNL     1     -41.852  53.892 -54.575  1.00  0.00     0.088 C 
HETATM   34  C   UNL     1     -40.439  53.432 -54.945  1.00  0.00     0.026 C 
HETATM   35  C   UNL     1     -40.104  52.441 -53.840  1.00  0.00     0.002 C 
HETATM   36  C   UNL     1     -40.642  53.120 -52.590  1.00  0.00     0.002 C 
HETATM   37  C   UNL     1     -41.922  53.819 -53.039  1.00  0.00     0.026 C 
ENDBRANCH   6  33
TORSDOF 8
ENDMDL
