MODEL 1
REMARK VINA RESULT:      -9.5      0.000      0.000
REMARK  6 active torsions:
REMARK  status: ('A' for Active; 'I' for Inactive)
REMARK    1  A    between atoms: C_2  and  O_3 
REMARK    2  A    between atoms: C_2  and  C_4 
REMARK    3  A    between atoms: C_6  and  N_7 
REMARK       I    between atoms: N_7  and  C_8 
REMARK    4  A    between atoms: C_8  and  C_9 
REMARK    5  A    between atoms: C_14  and  C_15 
REMARK    6  A    between atoms: C_23  and  C_24 
ROOT
HETATM    1  C   UNL     1     -44.048  57.392 -51.484  1.00  0.00     0.148 A 
HETATM    2  N   UNL     1     -43.560  57.529 -52.742  1.00  0.00    -0.165 NA
HETATM    3  N   UNL     1     -42.747  56.461 -52.869  1.00  0.00    -0.240 N 
HETATM    4  C   UNL     1     -42.629  55.712 -51.740  1.00  0.00     0.123 A 
HETATM    5  N   UNL     1     -41.843  54.621 -51.715  1.00  0.00    -0.366 N 
HETATM    6  C   UNL     1     -40.667  54.531 -52.573  1.00  0.00     0.118 C 
HETATM    7  C   UNL     1     -40.748  55.396 -53.851  1.00  0.00     0.066 C 
HETATM    8  C   UNL     1     -42.085  56.120 -54.110  1.00  0.00     0.221 C 
HETATM    9  C   UNL     1     -43.473  56.271 -50.823  1.00  0.00     0.089 A 
HETATM   10  H   UNL     1     -41.742  54.108 -50.838  1.00  0.00     0.161 HD
ENDROOT
BRANCH   1  11
HETATM   11  C   UNL     1     -45.068  58.290 -50.916  1.00  0.00     0.276 C 
HETATM   12  N   UNL     1     -44.541  59.493 -50.493  1.00  0.00    -0.322 N 
HETATM   13  H   UNL     1     -43.530  59.554 -50.591  1.00  0.00     0.169 HD
HETATM   14  O   UNL     1     -46.246  57.949 -50.863  1.00  0.00    -0.266 OA
BRANCH  12  15
HETATM   15  C   UNL     1     -45.233  60.616 -50.005  1.00  0.00     0.035 A 
HETATM   16  C   UNL     1     -45.494  60.833 -48.648  1.00  0.00     0.039 A 
HETATM   17  C   UNL     1     -46.220  61.957 -48.216  1.00  0.00    -0.028 A 
HETATM   18  C   UNL     1     -46.684  62.869 -49.172  1.00  0.00     0.010 A 
HETATM   19  C   UNL     1     -46.421  62.667 -50.526  1.00  0.00     0.003 A 
HETATM   20  C   UNL     1     -45.703  61.543 -50.939  1.00  0.00     0.029 A 
BRANCH  17  21
HETATM   21  C   UNL     1     -46.517  62.136 -46.742  1.00  0.00     0.147 C 
HETATM   22  C   UNL     1     -45.323  61.776 -45.870  1.00  0.00     0.044 C 
BRANCH  21  23
HETATM   23  O   UNL     1     -47.629  61.328 -46.361  1.00  0.00    -0.391 OA
HETATM   24  H   UNL     1     -47.480  60.450 -46.753  1.00  0.00     0.210 HD
ENDBRANCH  21  23
ENDBRANCH  17  21
ENDBRANCH  12  15
ENDBRANCH   1  11
BRANCH   8  25
HETATM   25  C   UNL     1     -43.018  55.318 -54.989  1.00  0.00     0.409 C 
HETATM   26  F   UNL     1     -43.905  56.103 -55.642  1.00  0.00    -0.169 F 
HETATM   27  F   UNL     1     -42.306  54.674 -55.950  1.00  0.00    -0.169 F 
HETATM   28  F   UNL     1     -43.717  54.378 -54.325  1.00  0.00    -0.169 F 
ENDBRANCH   8  25
BRANCH   6  29
HETATM   29  C   UNL     1     -40.358  53.067 -52.842  1.00  0.00    -0.035 A 
HETATM   30  C   UNL     1     -39.819  52.232 -51.848  1.00  0.00     0.012 A 
HETATM   31  C   UNL     1     -39.496  50.903 -52.127  1.00  0.00     0.043 A 
HETATM   32  C   UNL     1     -39.709  50.401 -53.403  1.00  0.00     0.116 A 
HETATM   33  F   UNL     1     -39.383  49.131 -53.677  1.00  0.00    -0.206 F 
HETATM   34  C   UNL     1     -40.247  51.201 -54.403  1.00  0.00     0.043 A 
HETATM   35  C   UNL     1     -40.576  52.529 -54.123  1.00  0.00     0.012 A 
ENDBRANCH   6  29
TORSDOF 6
ENDMDL
MODEL 2
REMARK VINA RESULT:      -9.4      2.218      2.671
REMARK  6 active torsions:
REMARK  status: ('A' for Active; 'I' for Inactive)
REMARK    1  A    between atoms: C_2  and  O_3 
REMARK    2  A    between atoms: C_2  and  C_4 
REMARK    3  A    between atoms: C_6  and  N_7 
REMARK       I    between atoms: N_7  and  C_8 
REMARK    4  A    between atoms: C_8  and  C_9 
REMARK    5  A    between atoms: C_14  and  C_15 
REMARK    6  A    between atoms: C_23  and  C_24 
ROOT
HETATM    1  C   UNL     1     -42.119  58.364 -51.205  1.00  0.00     0.148 A 
HETATM    2  N   UNL     1     -43.228  57.613 -51.415  1.00  0.00    -0.165 NA
HETATM    3  N   UNL     1     -42.725  56.459 -51.899  1.00  0.00    -0.240 N 
HETATM    4  C   UNL     1     -41.378  56.474 -52.088  1.00  0.00     0.123 A 
HETATM    5  N   UNL     1     -40.739  55.397 -52.578  1.00  0.00    -0.366 N 
HETATM    6  C   UNL     1     -41.420  54.469 -53.473  1.00  0.00     0.118 C 
HETATM    7  C   UNL     1     -42.957  54.449 -53.312  1.00  0.00     0.066 C 
HETATM    8  C   UNL     1     -43.542  55.294 -52.163  1.00  0.00     0.221 C 
HETATM    9  C   UNL     1     -40.943  57.686 -51.632  1.00  0.00     0.089 A 
HETATM   10  H   UNL     1     -39.734  55.457 -52.749  1.00  0.00     0.161 HD
ENDROOT
BRANCH   1  11
HETATM   11  C   UNL     1     -42.158  59.699 -50.584  1.00  0.00     0.276 C 
HETATM   12  N   UNL     1     -43.446  60.165 -50.407  1.00  0.00    -0.322 N 
HETATM   13  H   UNL     1     -44.160  59.543 -50.777  1.00  0.00     0.169 HD
HETATM   14  O   UNL     1     -41.122  60.277 -50.270  1.00  0.00    -0.266 OA
BRANCH  12  15
HETATM   15  C   UNL     1     -43.856  61.341 -49.754  1.00  0.00     0.035 A 
HETATM   16  C   UNL     1     -44.683  61.350 -48.626  1.00  0.00     0.039 A 
HETATM   17  C   UNL     1     -45.090  62.557 -48.030  1.00  0.00    -0.028 A 
HETATM   18  C   UNL     1     -44.652  63.765 -48.585  1.00  0.00     0.010 A 
HETATM   19  C   UNL     1     -43.820  63.767 -49.704  1.00  0.00     0.003 A 
HETATM   20  C   UNL     1     -43.428  62.560 -50.287  1.00  0.00     0.029 A 
BRANCH  17  21
HETATM   21  C   UNL     1     -46.019  62.526 -46.835  1.00  0.00     0.147 C 
HETATM   22  C   UNL     1     -45.382  61.843 -45.633  1.00  0.00     0.044 C 
BRANCH  21  23
HETATM   23  O   UNL     1     -47.229  61.847 -47.166  1.00  0.00    -0.391 OA
HETATM   24  H   UNL     1     -47.181  61.647 -48.117  1.00  0.00     0.210 HD
ENDBRANCH  21  23
ENDBRANCH  17  21
ENDBRANCH  12  15
ENDBRANCH   1  11
BRANCH   8  25
HETATM   25  C   UNL     1     -43.728  54.497 -50.892  1.00  0.00     0.409 C 
HETATM   26  F   UNL     1     -44.703  55.010 -50.106  1.00  0.00    -0.169 F 
HETATM   27  F   UNL     1     -44.116  53.230 -51.196  1.00  0.00    -0.169 F 
HETATM   28  F   UNL     1     -42.612  54.395 -50.146  1.00  0.00    -0.169 F 
ENDBRANCH   8  25
BRANCH   6  29
HETATM   29  C   UNL     1     -40.774  53.098 -53.355  1.00  0.00    -0.035 A 
HETATM   30  C   UNL     1     -40.770  52.190 -54.428  1.00  0.00     0.012 A 
HETATM   31  C   UNL     1     -40.214  50.917 -54.286  1.00  0.00     0.043 A 
HETATM   32  C   UNL     1     -39.660  50.543 -53.070  1.00  0.00     0.116 A 
HETATM   33  F   UNL     1     -39.144  49.316 -52.928  1.00  0.00    -0.206 F 
HETATM   34  C   UNL     1     -39.644  51.423 -51.994  1.00  0.00     0.043 A 
HETATM   35  C   UNL     1     -40.194  52.698 -52.137  1.00  0.00     0.012 A 
ENDBRANCH   6  29
TORSDOF 6
ENDMDL
MODEL 3
REMARK VINA RESULT:      -9.2      6.066     10.060
REMARK  6 active torsions:
REMARK  status: ('A' for Active; 'I' for Inactive)
REMARK    1  A    between atoms: C_2  and  O_3 
REMARK    2  A    between atoms: C_2  and  C_4 
REMARK    3  A    between atoms: C_6  and  N_7 
REMARK       I    between atoms: N_7  and  C_8 
REMARK    4  A    between atoms: C_8  and  C_9 
REMARK    5  A    between atoms: C_14  and  C_15 
REMARK    6  A    between atoms: C_23  and  C_24 
ROOT
HETATM    1  C   UNL     1     -42.549  56.053 -55.664  1.00  0.00     0.148 A 
HETATM    2  N   UNL     1     -43.334  56.017 -56.770  1.00  0.00    -0.165 NA
HETATM    3  N   UNL     1     -43.068  57.196 -57.368  1.00  0.00    -0.240 N 
HETATM    4  C   UNL     1     -42.232  58.004 -56.661  1.00  0.00     0.123 A 
HETATM    5  N   UNL     1     -41.887  59.217 -57.128  1.00  0.00    -0.366 N 
HETATM    6  C   UNL     1     -42.788  59.965 -57.997  1.00  0.00     0.118 C 
HETATM    7  C   UNL     1     -43.777  59.083 -58.792  1.00  0.00     0.066 C 
HETATM    8  C   UNL     1     -43.596  57.556 -58.666  1.00  0.00     0.221 C 
HETATM    9  C   UNL     1     -41.857  57.292 -55.557  1.00  0.00     0.089 A 
HETATM   10  H   UNL     1     -41.294  59.816 -56.552  1.00  0.00     0.161 HD
ENDROOT
BRANCH   1  11
HETATM   11  C   UNL     1     -42.428  54.922 -54.728  1.00  0.00     0.276 C 
HETATM   12  N   UNL     1     -41.115  54.571 -54.486  1.00  0.00    -0.322 N 
HETATM   13  H   UNL     1     -40.441  55.109 -55.026  1.00  0.00     0.169 HD
HETATM   14  O   UNL     1     -43.426  54.399 -54.241  1.00  0.00    -0.266 OA
BRANCH  12  15
HETATM   15  C   UNL     1     -40.630  53.618 -53.572  1.00  0.00     0.035 A 
HETATM   16  C   UNL     1     -40.155  52.358 -53.949  1.00  0.00     0.039 A 
HETATM   17  C   UNL     1     -39.711  51.429 -52.991  1.00  0.00    -0.028 A 
HETATM   18  C   UNL     1     -39.750  51.785 -51.637  1.00  0.00     0.010 A 
HETATM   19  C   UNL     1     -40.213  53.042 -51.251  1.00  0.00     0.003 A 
HETATM   20  C   UNL     1     -40.655  53.952 -52.215  1.00  0.00     0.029 A 
BRANCH  17  21
HETATM   21  C   UNL     1     -39.243  50.060 -53.435  1.00  0.00     0.147 C 
HETATM   22  C   UNL     1     -39.817  49.671 -54.790  1.00  0.00     0.044 C 
BRANCH  21  23
HETATM   23  O   UNL     1     -39.617  49.073 -52.475  1.00  0.00    -0.391 OA
HETATM   24  H   UNL     1     -39.664  49.529 -51.616  1.00  0.00     0.210 HD
ENDBRANCH  21  23
ENDBRANCH  17  21
ENDBRANCH  12  15
ENDBRANCH   1  11
BRANCH   8  25
HETATM   25  C   UNL     1     -42.720  56.984 -59.757  1.00  0.00     0.409 C 
HETATM   26  F   UNL     1     -42.658  55.633 -59.705  1.00  0.00    -0.169 F 
HETATM   27  F   UNL     1     -43.240  57.292 -60.974  1.00  0.00    -0.169 F 
HETATM   28  F   UNL     1     -41.458  57.452 -59.742  1.00  0.00    -0.169 F 
ENDBRANCH   8  25
BRANCH   6  29
HETATM   29  C   UNL     1     -41.974  60.908 -58.866  1.00  0.00    -0.035 A 
HETATM   30  C   UNL     1     -42.153  60.969 -60.259  1.00  0.00     0.012 A 
HETATM   31  C   UNL     1     -41.361  61.806 -61.048  1.00  0.00     0.043 A 
HETATM   32  C   UNL     1     -40.384  62.588 -60.448  1.00  0.00     0.116 A 
HETATM   33  F   UNL     1     -39.612  63.378 -61.206  1.00  0.00    -0.206 F 
HETATM   34  C   UNL     1     -40.189  62.554 -59.073  1.00  0.00     0.043 A 
HETATM   35  C   UNL     1     -40.984  61.721 -58.283  1.00  0.00     0.012 A 
ENDBRANCH   6  29
TORSDOF 6
ENDMDL
MODEL 4
REMARK VINA RESULT:      -8.9     17.928     20.150
REMARK  6 active torsions:
REMARK  status: ('A' for Active; 'I' for Inactive)
REMARK    1  A    between atoms: C_2  and  O_3 
REMARK    2  A    between atoms: C_2  and  C_4 
REMARK    3  A    between atoms: C_6  and  N_7 
REMARK       I    between atoms: N_7  and  C_8 
REMARK    4  A    between atoms: C_8  and  C_9 
REMARK    5  A    between atoms: C_14  and  C_15 
REMARK    6  A    between atoms: C_23  and  C_24 
ROOT
HETATM    1  C   UNL     1     -33.174  39.841 -52.371  1.00  0.00     0.148 A 
HETATM    2  N   UNL     1     -34.142  40.779 -52.223  1.00  0.00    -0.165 NA
HETATM    3  N   UNL     1     -34.592  40.951 -53.481  1.00  0.00    -0.240 N 
HETATM    4  C   UNL     1     -33.907  40.243 -54.420  1.00  0.00     0.123 A 
HETATM    5  N   UNL     1     -34.237  40.325 -55.721  1.00  0.00    -0.366 N 
HETATM    6  C   UNL     1     -34.839  41.538 -56.263  1.00  0.00     0.118 C 
HETATM    7  C   UNL     1     -35.598  42.387 -55.219  1.00  0.00     0.066 C 
HETATM    8  C   UNL     1     -35.728  41.788 -53.804  1.00  0.00     0.221 C 
HETATM    9  C   UNL     1     -32.991  39.494 -53.738  1.00  0.00     0.089 A 
HETATM   10  H   UNL     1     -33.673  39.815 -56.404  1.00  0.00     0.161 HD
ENDROOT
BRANCH   1  11
HETATM   11  C   UNL     1     -32.445  39.252 -51.234  1.00  0.00     0.276 C 
HETATM   12  N   UNL     1     -32.778  39.838 -50.029  1.00  0.00    -0.322 N 
HETATM   13  H   UNL     1     -33.431  40.613 -50.117  1.00  0.00     0.169 HD
HETATM   14  O   UNL     1     -31.648  38.335 -51.406  1.00  0.00    -0.266 OA
BRANCH  12  15
HETATM   15  C   UNL     1     -32.360  39.459 -48.740  1.00  0.00     0.035 A 
HETATM   16  C   UNL     1     -31.323  40.091 -48.046  1.00  0.00     0.039 A 
HETATM   17  C   UNL     1     -30.923  39.651 -46.772  1.00  0.00    -0.028 A 
HETATM   18  C   UNL     1     -31.585  38.559 -46.197  1.00  0.00     0.010 A 
HETATM   19  C   UNL     1     -32.626  37.927 -46.877  1.00  0.00     0.003 A 
HETATM   20  C   UNL     1     -33.008  38.374 -48.144  1.00  0.00     0.029 A 
BRANCH  17  21
HETATM   21  C   UNL     1     -29.769  40.335 -46.071  1.00  0.00     0.147 C 
HETATM   22  C   UNL     1     -29.939  40.335 -44.558  1.00  0.00     0.044 C 
BRANCH  21  23
HETATM   23  O   UNL     1     -29.645  41.682 -46.522  1.00  0.00    -0.391 OA
HETATM   24  H   UNL     1     -29.306  42.196 -45.768  1.00  0.00     0.210 HD
ENDBRANCH  21  23
ENDBRANCH  17  21
ENDBRANCH  12  15
ENDBRANCH   1  11
BRANCH   8  25
HETATM   25  C   UNL     1     -37.011  41.010 -53.619  1.00  0.00     0.409 C 
HETATM   26  F   UNL     1     -37.707  41.424 -52.534  1.00  0.00    -0.169 F 
HETATM   27  F   UNL     1     -37.826  41.205 -54.688  1.00  0.00    -0.169 F 
HETATM   28  F   UNL     1     -36.829  39.681 -53.504  1.00  0.00    -0.169 F 
ENDBRANCH   8  25
BRANCH   6  29
HETATM   29  C   UNL     1     -35.672  41.178 -57.483  1.00  0.00    -0.035 A 
HETATM   30  C   UNL     1     -35.664  39.882 -58.026  1.00  0.00     0.012 A 
HETATM   31  C   UNL     1     -36.398  39.582 -59.176  1.00  0.00     0.043 A 
HETATM   32  C   UNL     1     -37.142  40.579 -59.791  1.00  0.00     0.116 A 
HETATM   33  F   UNL     1     -37.831  40.297 -60.904  1.00  0.00    -0.206 F 
HETATM   34  C   UNL     1     -37.175  41.867 -59.272  1.00  0.00     0.043 A 
HETATM   35  C   UNL     1     -36.446  42.166 -58.119  1.00  0.00     0.012 A 
ENDBRANCH   6  29
TORSDOF 6
ENDMDL
MODEL 5
REMARK VINA RESULT:      -8.8      5.625      9.903
REMARK  6 active torsions:
REMARK  status: ('A' for Active; 'I' for Inactive)
REMARK    1  A    between atoms: C_2  and  O_3 
REMARK    2  A    between atoms: C_2  and  C_4 
REMARK    3  A    between atoms: C_6  and  N_7 
REMARK       I    between atoms: N_7  and  C_8 
REMARK    4  A    between atoms: C_8  and  C_9 
REMARK    5  A    between atoms: C_14  and  C_15 
REMARK    6  A    between atoms: C_23  and  C_24 
ROOT
HETATM    1  C   UNL     1     -42.188  56.388 -55.483  1.00  0.00     0.148 A 
HETATM    2  N   UNL     1     -42.568  57.690 -55.470  1.00  0.00    -0.165 NA
HETATM    3  N   UNL     1     -43.354  57.786 -56.561  1.00  0.00    -0.240 N 
HETATM    4  C   UNL     1     -43.421  56.648 -57.304  1.00  0.00     0.123 A 
HETATM    5  N   UNL     1     -44.158  56.600 -58.427  1.00  0.00    -0.366 N 
HETATM    6  C   UNL     1     -44.386  57.801 -59.221  1.00  0.00     0.118 C 
HETATM    7  C   UNL     1     -44.285  59.118 -58.419  1.00  0.00     0.066 C 
HETATM    8  C   UNL     1     -44.093  58.985 -56.895  1.00  0.00     0.221 C 
HETATM    9  C   UNL     1     -42.693  55.710 -56.628  1.00  0.00     0.089 A 
HETATM   10  H   UNL     1     -44.150  55.744 -58.984  1.00  0.00     0.161 HD
ENDROOT
BRANCH   1  11
HETATM   11  C   UNL     1     -41.381  55.776 -54.414  1.00  0.00     0.276 C 
HETATM   12  N   UNL     1     -41.646  54.431 -54.251  1.00  0.00    -0.322 N 
HETATM   13  H   UNL     1     -42.388  54.084 -54.854  1.00  0.00     0.169 HD
HETATM   14  O   UNL     1     -40.569  56.443 -53.780  1.00  0.00    -0.266 OA
BRANCH  12  15
HETATM   15  C   UNL     1     -40.990  53.517 -53.405  1.00  0.00     0.035 A 
HETATM   16  C   UNL     1     -40.425  52.319 -53.852  1.00  0.00     0.039 A 
HETATM   17  C   UNL     1     -39.809  51.425 -52.959  1.00  0.00    -0.028 A 
HETATM   18  C   UNL     1     -39.766  51.754 -51.598  1.00  0.00     0.010 A 
HETATM   19  C   UNL     1     -40.318  52.950 -51.144  1.00  0.00     0.003 A 
HETATM   20  C   UNL     1     -40.931  53.826 -52.044  1.00  0.00     0.029 A 
BRANCH  17  21
HETATM   21  C   UNL     1     -39.246  50.118 -53.475  1.00  0.00     0.147 C 
HETATM   22  C   UNL     1     -39.840  49.732 -54.822  1.00  0.00     0.044 C 
BRANCH  21  23
HETATM   23  O   UNL     1     -39.495  49.069 -52.541  1.00  0.00    -0.391 OA
HETATM   24  H   UNL     1     -38.896  48.340 -52.780  1.00  0.00     0.210 HD
ENDBRANCH  21  23
ENDBRANCH  17  21
ENDBRANCH  12  15
ENDBRANCH   1  11
BRANCH   8  25
HETATM   25  C   UNL     1     -45.403  59.011 -56.141  1.00  0.00     0.409 C 
HETATM   26  F   UNL     1     -45.231  59.292 -54.828  1.00  0.00    -0.169 F 
HETATM   27  F   UNL     1     -46.200  59.993 -56.636  1.00  0.00    -0.169 F 
HETATM   28  F   UNL     1     -46.101  57.862 -56.224  1.00  0.00    -0.169 F 
ENDBRANCH   8  25
BRANCH   6  29
HETATM   29  C   UNL     1     -45.688  57.650 -59.990  1.00  0.00    -0.035 A 
HETATM   30  C   UNL     1     -46.171  56.391 -60.384  1.00  0.00     0.012 A 
HETATM   31  C   UNL     1     -47.344  56.275 -61.132  1.00  0.00     0.043 A 
HETATM   32  C   UNL     1     -48.041  57.420 -61.494  1.00  0.00     0.116 A 
HETATM   33  F   UNL     1     -49.156  57.311 -62.227  1.00  0.00    -0.206 F 
HETATM   34  C   UNL     1     -47.591  58.678 -61.112  1.00  0.00     0.043 A 
HETATM   35  C   UNL     1     -46.421  58.794 -60.359  1.00  0.00     0.012 A 
ENDBRANCH   6  29
TORSDOF 6
ENDMDL
MODEL 6
REMARK VINA RESULT:      -8.8      1.630      2.787
REMARK  6 active torsions:
REMARK  status: ('A' for Active; 'I' for Inactive)
REMARK    1  A    between atoms: C_2  and  O_3 
REMARK    2  A    between atoms: C_2  and  C_4 
REMARK    3  A    between atoms: C_6  and  N_7 
REMARK       I    between atoms: N_7  and  C_8 
REMARK    4  A    between atoms: C_8  and  C_9 
REMARK    5  A    between atoms: C_14  and  C_15 
REMARK    6  A    between atoms: C_23  and  C_24 
ROOT
HETATM    1  C   UNL     1     -44.065  57.492 -51.859  1.00  0.00     0.148 A 
HETATM    2  N   UNL     1     -43.528  57.593 -53.100  1.00  0.00    -0.165 NA
HETATM    3  N   UNL     1     -42.708  56.525 -53.164  1.00  0.00    -0.240 N 
HETATM    4  C   UNL     1     -42.632  55.811 -52.008  1.00  0.00     0.123 A 
HETATM    5  N   UNL     1     -41.843  54.725 -51.919  1.00  0.00    -0.366 N 
HETATM    6  C   UNL     1     -40.634  54.614 -52.727  1.00  0.00     0.118 C 
HETATM    7  C   UNL     1     -40.668  55.440 -54.033  1.00  0.00     0.066 C 
HETATM    8  C   UNL     1     -41.996  56.150 -54.367  1.00  0.00     0.221 C 
HETATM    9  C   UNL     1     -43.513  56.394 -51.142  1.00  0.00     0.089 A 
HETATM   10  H   UNL     1     -41.776  54.239 -51.024  1.00  0.00     0.161 HD
ENDROOT
BRANCH   1  11
HETATM   11  C   UNL     1     -45.110  58.402 -51.359  1.00  0.00     0.276 C 
HETATM   12  N   UNL     1     -44.996  59.677 -51.876  1.00  0.00    -0.322 N 
HETATM   13  H   UNL     1     -44.185  59.804 -52.477  1.00  0.00     0.169 HD
HETATM   14  O   UNL     1     -45.967  58.004 -50.576  1.00  0.00    -0.266 OA
BRANCH  12  15
HETATM   15  C   UNL     1     -45.875  60.761 -51.701  1.00  0.00     0.035 A 
HETATM   16  C   UNL     1     -46.940  61.039 -52.564  1.00  0.00     0.039 A 
HETATM   17  C   UNL     1     -47.770  62.156 -52.362  1.00  0.00    -0.028 A 
HETATM   18  C   UNL     1     -47.515  62.997 -51.272  1.00  0.00     0.010 A 
HETATM   19  C   UNL     1     -46.462  62.724 -50.400  1.00  0.00     0.003 A 
HETATM   20  C   UNL     1     -45.643  61.613 -50.618  1.00  0.00     0.029 A 
BRANCH  17  21
HETATM   21  C   UNL     1     -48.887  62.446 -53.341  1.00  0.00     0.147 C 
HETATM   22  C   UNL     1     -49.428  63.861 -53.188  1.00  0.00     0.044 C 
BRANCH  21  23
HETATM   23  O   UNL     1     -49.956  61.520 -53.161  1.00  0.00    -0.391 OA
HETATM   24  H   UNL     1     -50.776  62.001 -53.370  1.00  0.00     0.210 HD
ENDBRANCH  21  23
ENDBRANCH  17  21
ENDBRANCH  12  15
ENDBRANCH   1  11
BRANCH   8  25
HETATM   25  C   UNL     1     -42.891  55.318 -55.257  1.00  0.00     0.409 C 
HETATM   26  F   UNL     1     -43.757  56.079 -55.965  1.00  0.00    -0.169 F 
HETATM   27  F   UNL     1     -42.140  54.651 -56.171  1.00  0.00    -0.169 F 
HETATM   28  F   UNL     1     -43.610  54.393 -54.593  1.00  0.00    -0.169 F 
ENDBRANCH   8  25
BRANCH   6  29
HETATM   29  C   UNL     1     -40.310  53.145 -52.940  1.00  0.00    -0.035 A 
HETATM   30  C   UNL     1     -40.551  52.506 -54.168  1.00  0.00     0.012 A 
HETATM   31  C   UNL     1     -40.292  51.144 -54.330  1.00  0.00     0.043 A 
HETATM   32  C   UNL     1     -39.793  50.410 -53.263  1.00  0.00     0.116 A 
HETATM   33  F   UNL     1     -39.563  49.100 -53.412  1.00  0.00    -0.206 F 
HETATM   34  C   UNL     1     -39.539  51.016 -52.039  1.00  0.00     0.043 A 
HETATM   35  C   UNL     1     -39.792  52.380 -51.878  1.00  0.00     0.012 A 
ENDBRANCH   6  29
TORSDOF 6
ENDMDL
MODEL 7
REMARK VINA RESULT:      -8.4      3.957      9.998
REMARK  6 active torsions:
REMARK  status: ('A' for Active; 'I' for Inactive)
REMARK    1  A    between atoms: C_2  and  O_3 
REMARK    2  A    between atoms: C_2  and  C_4 
REMARK    3  A    between atoms: C_6  and  N_7 
REMARK       I    between atoms: N_7  and  C_8 
REMARK    4  A    between atoms: C_8  and  C_9 
REMARK    5  A    between atoms: C_14  and  C_15 
REMARK    6  A    between atoms: C_23  and  C_24 
ROOT
HETATM    1  C   UNL     1     -42.915  56.627 -52.359  1.00  0.00     0.148 A 
HETATM    2  N   UNL     1     -42.015  57.638 -52.436  1.00  0.00    -0.165 NA
HETATM    3  N   UNL     1     -42.606  58.624 -51.733  1.00  0.00    -0.240 N 
HETATM    4  C   UNL     1     -43.859  58.322 -51.293  1.00  0.00     0.123 A 
HETATM    5  N   UNL     1     -44.575  59.215 -50.587  1.00  0.00    -0.366 N 
HETATM    6  C   UNL     1     -44.377  60.647 -50.778  1.00  0.00     0.118 C 
HETATM    7  C   UNL     1     -42.977  61.028 -51.310  1.00  0.00     0.066 C 
HETATM    8  C   UNL     1     -41.953  59.881 -51.439  1.00  0.00     0.221 C 
HETATM    9  C   UNL     1     -44.089  57.028 -51.662  1.00  0.00     0.089 A 
HETATM   10  H   UNL     1     -45.528  58.973 -50.312  1.00  0.00     0.161 HD
ENDROOT
BRANCH   1  11
HETATM   11  C   UNL     1     -42.665  55.284 -52.910  1.00  0.00     0.276 C 
HETATM   12  N   UNL     1     -41.367  54.859 -52.706  1.00  0.00    -0.322 N 
HETATM   13  H   UNL     1     -40.775  55.553 -52.256  1.00  0.00     0.169 HD
HETATM   14  O   UNL     1     -43.560  54.658 -53.471  1.00  0.00    -0.266 OA
BRANCH  12  15
HETATM   15  C   UNL     1     -40.814  53.600 -53.002  1.00  0.00     0.035 A 
HETATM   16  C   UNL     1     -40.433  52.674 -52.026  1.00  0.00     0.039 A 
HETATM   17  C   UNL     1     -39.855  51.441 -52.375  1.00  0.00    -0.028 A 
HETATM   18  C   UNL     1     -39.663  51.147 -53.730  1.00  0.00     0.010 A 
HETATM   19  C   UNL     1     -40.047  52.059 -54.712  1.00  0.00     0.003 A 
HETATM   20  C   UNL     1     -40.617  53.281 -54.348  1.00  0.00     0.029 A 
BRANCH  17  21
HETATM   21  C   UNL     1     -39.418  50.484 -51.288  1.00  0.00     0.147 C 
HETATM   22  C   UNL     1     -39.485  49.032 -51.743  1.00  0.00     0.044 C 
BRANCH  21  23
HETATM   23  O   UNL     1     -40.235  50.644 -50.129  1.00  0.00    -0.391 OA
HETATM   24  H   UNL     1     -41.014  50.076 -50.261  1.00  0.00     0.210 HD
ENDBRANCH  21  23
ENDBRANCH  17  21
ENDBRANCH  12  15
ENDBRANCH   1  11
BRANCH   8  25
HETATM   25  C   UNL     1     -41.086  59.737 -50.209  1.00  0.00     0.409 C 
HETATM   26  F   UNL     1     -41.662  60.280 -49.112  1.00  0.00    -0.169 F 
HETATM   27  F   UNL     1     -40.901  58.421 -49.927  1.00  0.00    -0.169 F 
HETATM   28  F   UNL     1     -39.862  60.284 -50.340  1.00  0.00    -0.169 F 
ENDBRANCH   8  25
BRANCH   6  29
HETATM   29  C   UNL     1     -44.769  61.378 -49.504  1.00  0.00    -0.035 A 
HETATM   30  C   UNL     1     -44.400  62.715 -49.278  1.00  0.00     0.012 A 
HETATM   31  C   UNL     1     -44.726  63.356 -48.081  1.00  0.00     0.043 A 
HETATM   32  C   UNL     1     -45.422  62.661 -47.101  1.00  0.00     0.116 A 
HETATM   33  F   UNL     1     -45.720  63.269 -45.946  1.00  0.00    -0.206 F 
HETATM   34  C   UNL     1     -45.806  61.341 -47.300  1.00  0.00     0.043 A 
HETATM   35  C   UNL     1     -45.485  60.702 -48.500  1.00  0.00     0.012 A 
ENDBRANCH   6  29
TORSDOF 6
ENDMDL
MODEL 8
REMARK VINA RESULT:      -8.2      5.923     10.299
REMARK  6 active torsions:
REMARK  status: ('A' for Active; 'I' for Inactive)
REMARK    1  A    between atoms: C_2  and  O_3 
REMARK    2  A    between atoms: C_2  and  C_4 
REMARK    3  A    between atoms: C_6  and  N_7 
REMARK       I    between atoms: N_7  and  C_8 
REMARK    4  A    between atoms: C_8  and  C_9 
REMARK    5  A    between atoms: C_14  and  C_15 
REMARK    6  A    between atoms: C_23  and  C_24 
ROOT
HETATM    1  C   UNL     1     -42.473  56.087 -55.676  1.00  0.00     0.148 A 
HETATM    2  N   UNL     1     -42.588  55.552 -56.917  1.00  0.00    -0.165 NA
HETATM    3  N   UNL     1     -43.439  56.396 -57.533  1.00  0.00    -0.240 N 
HETATM    4  C   UNL     1     -43.932  57.377 -56.729  1.00  0.00     0.123 A 
HETATM    5  N   UNL     1     -44.802  58.285 -57.204  1.00  0.00    -0.366 N 
HETATM    6  C   UNL     1     -45.706  57.951 -58.299  1.00  0.00     0.118 C 
HETATM    7  C   UNL     1     -45.196  56.816 -59.216  1.00  0.00     0.066 C 
HETATM    8  C   UNL     1     -43.773  56.291 -58.937  1.00  0.00     0.221 C 
HETATM    9  C   UNL     1     -43.315  57.224 -55.520  1.00  0.00     0.089 A 
HETATM   10  H   UNL     1     -45.187  58.980 -56.562  1.00  0.00     0.161 HD
ENDROOT
BRANCH   1  11
HETATM   11  C   UNL     1     -41.559  55.553 -54.652  1.00  0.00     0.276 C 
HETATM   12  N   UNL     1     -41.842  54.244 -54.317  1.00  0.00    -0.322 N 
HETATM   13  H   UNL     1     -42.663  53.870 -54.787  1.00  0.00     0.169 HD
HETATM   14  O   UNL     1     -40.655  56.246 -54.194  1.00  0.00    -0.266 OA
BRANCH  12  15
HETATM   15  C   UNL     1     -41.116  53.394 -53.464  1.00  0.00     0.035 A 
HETATM   16  C   UNL     1     -40.527  52.197 -53.883  1.00  0.00     0.039 A 
HETATM   17  C   UNL     1     -39.839  51.367 -52.981  1.00  0.00    -0.028 A 
HETATM   18  C   UNL     1     -39.746  51.760 -51.640  1.00  0.00     0.010 A 
HETATM   19  C   UNL     1     -40.321  52.956 -51.213  1.00  0.00     0.003 A 
HETATM   20  C   UNL     1     -41.006  53.767 -52.121  1.00  0.00     0.029 A 
BRANCH  17  21
HETATM   21  C   UNL     1     -39.251  50.059 -53.464  1.00  0.00     0.147 C 
HETATM   22  C   UNL     1     -39.764  49.678 -54.846  1.00  0.00     0.044 C 
BRANCH  21  23
HETATM   23  O   UNL     1     -39.562  49.009 -52.550  1.00  0.00    -0.391 OA
HETATM   24  H   UNL     1     -38.758  48.466 -52.471  1.00  0.00     0.210 HD
ENDBRANCH  21  23
ENDBRANCH  17  21
ENDBRANCH  12  15
ENDBRANCH   1  11
BRANCH   8  25
HETATM   25  C   UNL     1     -42.723  56.990 -59.771  1.00  0.00     0.409 C 
HETATM   26  F   UNL     1     -41.721  56.157 -60.134  1.00  0.00    -0.169 F 
HETATM   27  F   UNL     1     -43.278  57.440 -60.927  1.00  0.00    -0.169 F 
HETATM   28  F   UNL     1     -42.168  58.056 -59.164  1.00  0.00    -0.169 F 
ENDBRANCH   8  25
BRANCH   6  29
HETATM   29  C   UNL     1     -46.077  59.221 -59.045  1.00  0.00    -0.035 A 
HETATM   30  C   UNL     1     -45.206  59.810 -59.979  1.00  0.00     0.012 A 
HETATM   31  C   UNL     1     -45.543  61.004 -60.619  1.00  0.00     0.043 A 
HETATM   32  C   UNL     1     -46.753  61.619 -60.328  1.00  0.00     0.116 A 
HETATM   33  F   UNL     1     -47.068  62.774 -60.927  1.00  0.00    -0.206 F 
HETATM   34  C   UNL     1     -47.636  61.057 -59.414  1.00  0.00     0.043 A 
HETATM   35  C   UNL     1     -47.302  59.859 -58.778  1.00  0.00     0.012 A 
ENDBRANCH   6  29
TORSDOF 6
ENDMDL
MODEL 9
REMARK VINA RESULT:      -8.1      2.971      4.074
REMARK  6 active torsions:
REMARK  status: ('A' for Active; 'I' for Inactive)
REMARK    1  A    between atoms: C_2  and  O_3 
REMARK    2  A    between atoms: C_2  and  C_4 
REMARK    3  A    between atoms: C_6  and  N_7 
REMARK       I    between atoms: N_7  and  C_8 
REMARK    4  A    between atoms: C_8  and  C_9 
REMARK    5  A    between atoms: C_14  and  C_15 
REMARK    6  A    between atoms: C_23  and  C_24 
ROOT
HETATM    1  C   UNL     1     -44.516  58.658 -52.567  1.00  0.00     0.148 A 
HETATM    2  N   UNL     1     -43.954  58.380 -51.365  1.00  0.00    -0.165 NA
HETATM    3  N   UNL     1     -43.364  57.187 -51.574  1.00  0.00    -0.240 N 
HETATM    4  C   UNL     1     -43.595  56.659 -52.807  1.00  0.00     0.123 A 
HETATM    5  N   UNL     1     -43.079  55.467 -53.155  1.00  0.00    -0.366 N 
HETATM    6  C   UNL     1     -42.820  54.445 -52.147  1.00  0.00     0.118 C 
HETATM    7  C   UNL     1     -42.586  55.003 -50.725  1.00  0.00     0.066 C 
HETATM    8  C   UNL     1     -42.528  56.538 -50.588  1.00  0.00     0.221 C 
HETATM    9  C   UNL     1     -44.323  57.592 -53.490  1.00  0.00     0.089 A 
HETATM   10  H   UNL     1     -43.310  55.080 -54.071  1.00  0.00     0.161 HD
ENDROOT
BRANCH   1  11
HETATM   11  C   UNL     1     -45.206  59.926 -52.858  1.00  0.00     0.276 C 
HETATM   12  N   UNL     1     -46.188  60.221 -51.933  1.00  0.00    -0.322 N 
HETATM   13  H   UNL     1     -46.318  59.499 -51.229  1.00  0.00     0.169 HD
HETATM   14  O   UNL     1     -44.887  60.607 -53.828  1.00  0.00    -0.266 OA
BRANCH  12  15
HETATM   15  C   UNL     1     -46.964  61.391 -51.841  1.00  0.00     0.035 A 
HETATM   16  C   UNL     1     -48.141  61.598 -52.567  1.00  0.00     0.039 A 
HETATM   17  C   UNL     1     -48.862  62.800 -52.462  1.00  0.00    -0.028 A 
HETATM   18  C   UNL     1     -48.382  63.801 -51.609  1.00  0.00     0.010 A 
HETATM   19  C   UNL     1     -47.215  63.602 -50.873  1.00  0.00     0.003 A 
HETATM   20  C   UNL     1     -46.508  62.403 -50.992  1.00  0.00     0.029 A 
BRANCH  17  21
HETATM   21  C   UNL     1     -50.108  63.002 -53.296  1.00  0.00     0.147 C 
HETATM   22  C   UNL     1     -51.340  63.243 -52.435  1.00  0.00     0.044 C 
BRANCH  21  23
HETATM   23  O   UNL     1     -50.339  61.864 -54.125  1.00  0.00    -0.391 OA
HETATM   24  H   UNL     1     -50.964  61.294 -53.643  1.00  0.00     0.210 HD
ENDBRANCH  21  23
ENDBRANCH  17  21
ENDBRANCH  12  15
ENDBRANCH   1  11
BRANCH   8  25
HETATM   25  C   UNL     1     -41.117  57.074 -50.674  1.00  0.00     0.409 C 
HETATM   26  F   UNL     1     -40.940  58.172 -49.904  1.00  0.00    -0.169 F 
HETATM   27  F   UNL     1     -40.241  56.144 -50.213  1.00  0.00    -0.169 F 
HETATM   28  F   UNL     1     -40.730  57.387 -51.926  1.00  0.00    -0.169 F 
ENDBRANCH   8  25
BRANCH   6  29
HETATM   29  C   UNL     1     -41.709  53.532 -52.638  1.00  0.00    -0.035 A 
HETATM   30  C   UNL     1     -41.603  53.157 -53.988  1.00  0.00     0.012 A 
HETATM   31  C   UNL     1     -40.604  52.279 -54.412  1.00  0.00     0.043 A 
HETATM   32  C   UNL     1     -39.704  51.769 -53.487  1.00  0.00     0.116 A 
HETATM   33  F   UNL     1     -38.757  50.912 -53.890  1.00  0.00    -0.206 F 
HETATM   34  C   UNL     1     -39.780  52.127 -52.147  1.00  0.00     0.043 A 
HETATM   35  C   UNL     1     -40.775  53.010 -51.723  1.00  0.00     0.012 A 
ENDBRANCH   6  29
TORSDOF 6
ENDMDL
MODEL 10
REMARK VINA RESULT:      -8.1      5.770      9.483
REMARK  6 active torsions:
REMARK  status: ('A' for Active; 'I' for Inactive)
REMARK    1  A    between atoms: C_2  and  O_3 
REMARK    2  A    between atoms: C_2  and  C_4 
REMARK    3  A    between atoms: C_6  and  N_7 
REMARK       I    between atoms: N_7  and  C_8 
REMARK    4  A    between atoms: C_8  and  C_9 
REMARK    5  A    between atoms: C_14  and  C_15 
REMARK    6  A    between atoms: C_23  and  C_24 
ROOT
HETATM    1  C   UNL     1     -42.459  56.627 -55.826  1.00  0.00     0.148 A 
HETATM    2  N   UNL     1     -42.858  57.923 -55.815  1.00  0.00    -0.165 NA
HETATM    3  N   UNL     1     -43.639  58.009 -56.910  1.00  0.00    -0.240 N 
HETATM    4  C   UNL     1     -43.683  56.870 -57.654  1.00  0.00     0.123 A 
HETATM    5  N   UNL     1     -44.413  56.812 -58.782  1.00  0.00    -0.366 N 
HETATM    6  C   UNL     1     -44.653  58.010 -59.577  1.00  0.00     0.118 C 
HETATM    7  C   UNL     1     -44.578  59.328 -58.773  1.00  0.00     0.066 C 
HETATM    8  C   UNL     1     -44.394  59.196 -57.248  1.00  0.00     0.221 C 
HETATM    9  C   UNL     1     -42.946  55.942 -56.974  1.00  0.00     0.089 A 
HETATM   10  H   UNL     1     -44.388  55.956 -59.340  1.00  0.00     0.161 HD
ENDROOT
BRANCH   1  11
HETATM   11  C   UNL     1     -41.649  56.026 -54.752  1.00  0.00     0.276 C 
HETATM   12  N   UNL     1     -41.876  54.671 -54.610  1.00  0.00    -0.322 N 
HETATM   13  H   UNL     1     -42.598  54.310 -55.229  1.00  0.00     0.169 HD
HETATM   14  O   UNL     1     -40.868  56.709 -54.097  1.00  0.00    -0.266 OA
BRANCH  12  15
HETATM   15  C   UNL     1     -41.205  53.768 -53.765  1.00  0.00     0.035 A 
HETATM   16  C   UNL     1     -41.272  53.820 -52.369  1.00  0.00     0.039 A 
HETATM   17  C   UNL     1     -40.555  52.911 -51.571  1.00  0.00    -0.028 A 
HETATM   18  C   UNL     1     -39.765  51.939 -52.198  1.00  0.00     0.010 A 
HETATM   19  C   UNL     1     -39.699  51.873 -53.589  1.00  0.00     0.003 A 
HETATM   20  C   UNL     1     -40.414  52.787 -54.368  1.00  0.00     0.029 A 
BRANCH  17  21
HETATM   21  C   UNL     1     -40.620  53.025 -50.063  1.00  0.00     0.147 C 
HETATM   22  C   UNL     1     -39.633  54.052 -49.525  1.00  0.00     0.044 C 
BRANCH  21  23
HETATM   23  O   UNL     1     -40.348  51.762 -49.459  1.00  0.00    -0.391 OA
HETATM   24  H   UNL     1     -41.188  51.452 -49.078  1.00  0.00     0.210 HD
ENDBRANCH  21  23
ENDBRANCH  17  21
ENDBRANCH  12  15
ENDBRANCH   1  11
BRANCH   8  25
HETATM   25  C   UNL     1     -45.709  59.201 -56.502  1.00  0.00     0.409 C 
HETATM   26  F   UNL     1     -45.537  59.314 -55.165  1.00  0.00    -0.169 F 
HETATM   27  F   UNL     1     -46.448  60.277 -56.880  1.00  0.00    -0.169 F 
HETATM   28  F   UNL     1     -46.465  58.110 -56.726  1.00  0.00    -0.169 F 
ENDBRANCH   8  25
BRANCH   6  29
HETATM   29  C   UNL     1     -45.948  57.841 -60.355  1.00  0.00    -0.035 A 
HETATM   30  C   UNL     1     -46.724  58.945 -60.746  1.00  0.00     0.012 A 
HETATM   31  C   UNL     1     -47.935  58.768 -61.418  1.00  0.00     0.043 A 
HETATM   32  C   UNL     1     -48.379  57.484 -61.701  1.00  0.00     0.116 A 
HETATM   33  F   UNL     1     -49.549  57.313 -62.329  1.00  0.00    -0.206 F 
HETATM   34  C   UNL     1     -47.630  56.374 -61.333  1.00  0.00     0.043 A 
HETATM   35  C   UNL     1     -46.415  56.550 -60.666  1.00  0.00     0.012 A 
ENDBRANCH   6  29
TORSDOF 6
ENDMDL
