MODEL 1
REMARK VINA RESULT:      -8.8      0.000      0.000
REMARK  3 active torsions:
REMARK  status: ('A' for Active; 'I' for Inactive)
REMARK    1  A    between atoms: C_11  and  N_12 
REMARK       I    between atoms: N_12  and  C_13 
REMARK    2  A    between atoms: C_13  and  C_14 
REMARK    3  A    between atoms: C_15  and  C_16 
ROOT
HETATM    1  N   UNL     1     -42.532  55.728 -52.333  1.00  0.00    -0.352 N 
HETATM    2  C   UNL     1     -42.702  54.605 -51.532  1.00  0.00     0.255 C 
HETATM    3  O   UNL     1     -43.690  53.888 -51.617  1.00  0.00    -0.268 OA
HETATM    4  H   UNL     1     -41.916  56.415 -51.910  1.00  0.00     0.163 HD
ENDROOT
BRANCH   2   5
HETATM    5  C   UNL     1     -41.613  54.362 -50.600  1.00  0.00     0.080 A 
HETATM    6  C   UNL     1     -40.503  53.463 -50.719  1.00  0.00     0.104 A 
HETATM    7  N   UNL     1     -39.675  53.593 -49.669  1.00  0.00    -0.174 NA
HETATM    8  N   UNL     1     -40.230  54.530 -48.899  1.00  0.00    -0.288 N 
HETATM    9  H   UNL     1     -39.745  54.793 -48.046  1.00  0.00     0.188 HD
HETATM   10  C   UNL     1     -41.399  55.016 -49.398  1.00  0.00     0.128 A 
BRANCH   6  11
HETATM   11  C   UNL     1     -40.200  52.475 -51.761  1.00  0.00    -0.004 A 
HETATM   12  C   UNL     1     -39.789  51.181 -51.397  1.00  0.00     0.017 A 
HETATM   13  C   UNL     1     -39.523  50.218 -52.373  1.00  0.00     0.043 A 
HETATM   14  C   UNL     1     -39.674  50.544 -53.714  1.00  0.00     0.116 A 
HETATM   15  F   UNL     1     -39.423  49.622 -54.652  1.00  0.00    -0.206 F 
HETATM   16  C   UNL     1     -40.090  51.813 -54.097  1.00  0.00     0.043 A 
HETATM   17  C   UNL     1     -40.357  52.777 -53.121  1.00  0.00     0.017 A 
ENDBRANCH   6  11
ENDBRANCH   2   5
BRANCH   1  18
HETATM   18  C   UNL     1     -43.598  56.203 -53.203  1.00  0.00     0.089 C 
HETATM   19  C   UNL     1     -43.634  55.557 -54.597  1.00  0.00     0.063 C 
HETATM   20  C   UNL     1     -42.508  55.987 -55.543  1.00  0.00     0.121 C 
HETATM   21  N   UNL     1     -42.417  57.500 -55.563  1.00  0.00    -0.059 N 
HETATM   22  C   UNL     1     -41.143  55.376 -55.215  1.00  0.00     0.046 C 
HETATM   23  C   UNL     1     -42.868  55.564 -56.982  1.00  0.00     0.046 C 
HETATM   24  C   UNL     1     -42.485  58.292 -54.275  1.00  0.00     0.121 C 
HETATM   25  H   UNL     1     -43.188  57.833 -56.162  1.00  0.00     0.279 HD
HETATM   26  H   UNL     1     -41.568  57.770 -56.079  1.00  0.00     0.279 HD
HETATM   27  C   UNL     1     -41.102  58.348 -53.617  1.00  0.00     0.046 C 
HETATM   28  C   UNL     1     -42.861  59.733 -54.679  1.00  0.00     0.046 C 
HETATM   29  C   UNL     1     -43.581  57.728 -53.353  1.00  0.00     0.063 C 
ENDBRANCH   1  18
TORSDOF 3
ENDMDL
MODEL 2
REMARK VINA RESULT:      -8.1      3.115      6.576
REMARK  3 active torsions:
REMARK  status: ('A' for Active; 'I' for Inactive)
REMARK    1  A    between atoms: C_11  and  N_12 
REMARK       I    between atoms: N_12  and  C_13 
REMARK    2  A    between atoms: C_13  and  C_14 
REMARK    3  A    between atoms: C_15  and  C_16 
ROOT
HETATM    1  N   UNL     1     -43.410  56.260 -52.412  1.00  0.00    -0.352 N 
HETATM    2  C   UNL     1     -44.173  57.196 -51.724  1.00  0.00     0.255 C 
HETATM    3  O   UNL     1     -44.786  56.915 -50.703  1.00  0.00    -0.268 OA
HETATM    4  H   UNL     1     -43.298  56.497 -53.392  1.00  0.00     0.163 HD
ENDROOT
BRANCH   2   5
HETATM    5  C   UNL     1     -44.173  58.523 -52.318  1.00  0.00     0.080 A 
HETATM    6  C   UNL     1     -43.098  59.465 -52.431  1.00  0.00     0.104 A 
HETATM    7  N   UNL     1     -43.492  60.551 -53.118  1.00  0.00    -0.174 NA
HETATM    8  N   UNL     1     -44.769  60.326 -53.427  1.00  0.00    -0.288 N 
HETATM    9  H   UNL     1     -45.259  61.032 -53.969  1.00  0.00     0.188 HD
HETATM   10  C   UNL     1     -45.235  59.134 -52.963  1.00  0.00     0.128 A 
BRANCH   6  11
HETATM   11  C   UNL     1     -41.730  59.399 -51.905  1.00  0.00    -0.004 A 
HETATM   12  C   UNL     1     -40.677  59.006 -52.749  1.00  0.00     0.017 A 
HETATM   13  C   UNL     1     -39.363  58.965 -52.276  1.00  0.00     0.043 A 
HETATM   14  C   UNL     1     -39.099  59.322 -50.961  1.00  0.00     0.116 A 
HETATM   15  F   UNL     1     -37.841  59.286 -50.505  1.00  0.00    -0.206 F 
HETATM   16  C   UNL     1     -40.122  59.724 -50.111  1.00  0.00     0.043 A 
HETATM   17  C   UNL     1     -41.437  59.767 -50.584  1.00  0.00     0.017 A 
ENDBRANCH   6  11
ENDBRANCH   2   5
BRANCH   1  18
HETATM   18  C   UNL     1     -43.433  54.852 -52.044  1.00  0.00     0.089 C 
HETATM   19  C   UNL     1     -42.873  54.538 -50.647  1.00  0.00     0.063 C 
HETATM   20  C   UNL     1     -41.353  54.673 -50.509  1.00  0.00     0.121 C 
HETATM   21  N   UNL     1     -40.676  53.914 -51.634  1.00  0.00    -0.059 N 
HETATM   22  C   UNL     1     -40.851  56.119 -50.466  1.00  0.00     0.046 C 
HETATM   23  C   UNL     1     -40.901  53.989 -49.202  1.00  0.00     0.046 C 
HETATM   24  C   UNL     1     -41.185  54.028 -53.054  1.00  0.00     0.121 C 
HETATM   25  H   UNL     1     -40.714  52.916 -51.378  1.00  0.00     0.279 HD
HETATM   26  H   UNL     1     -39.670  54.135 -51.618  1.00  0.00     0.279 HD
HETATM   27  C   UNL     1     -40.605  55.278 -53.724  1.00  0.00     0.046 C 
HETATM   28  C   UNL     1     -40.627  52.802 -53.806  1.00  0.00     0.046 C 
HETATM   29  C   UNL     1     -42.723  53.975 -53.080  1.00  0.00     0.063 C 
ENDBRANCH   1  18
TORSDOF 3
ENDMDL
MODEL 3
REMARK VINA RESULT:      -8.1      1.304      2.218
REMARK  3 active torsions:
REMARK  status: ('A' for Active; 'I' for Inactive)
REMARK    1  A    between atoms: C_11  and  N_12 
REMARK       I    between atoms: N_12  and  C_13 
REMARK    2  A    between atoms: C_13  and  C_14 
REMARK    3  A    between atoms: C_15  and  C_16 
ROOT
HETATM    1  N   UNL     1     -42.499  56.359 -52.600  1.00  0.00    -0.352 N 
HETATM    2  C   UNL     1     -42.599  55.085 -52.051  1.00  0.00     0.255 C 
HETATM    3  O   UNL     1     -43.461  54.290 -52.402  1.00  0.00    -0.268 OA
HETATM    4  H   UNL     1     -42.038  57.013 -51.976  1.00  0.00     0.163 HD
ENDROOT
BRANCH   2   5
HETATM    5  C   UNL     1     -41.598  54.787 -51.041  1.00  0.00     0.080 A 
HETATM    6  C   UNL     1     -40.566  53.792 -51.054  1.00  0.00     0.104 A 
HETATM    7  N   UNL     1     -39.798  53.893 -49.956  1.00  0.00    -0.174 NA
HETATM    8  N   UNL     1     -40.317  54.904 -49.257  1.00  0.00    -0.288 N 
HETATM    9  H   UNL     1     -39.866  55.158 -48.383  1.00  0.00     0.188 HD
HETATM   10  C   UNL     1     -41.404  55.468 -49.851  1.00  0.00     0.128 A 
BRANCH   6  11
HETATM   11  C   UNL     1     -40.285  52.741 -52.038  1.00  0.00    -0.004 A 
HETATM   12  C   UNL     1     -40.432  53.013 -53.410  1.00  0.00     0.017 A 
HETATM   13  C   UNL     1     -40.141  52.035 -54.364  1.00  0.00     0.043 A 
HETATM   14  C   UNL     1     -39.698  50.786 -53.950  1.00  0.00     0.116 A 
HETATM   15  F   UNL     1     -39.415  49.848 -54.863  1.00  0.00    -0.206 F 
HETATM   16  C   UNL     1     -39.535  50.498 -52.601  1.00  0.00     0.043 A 
HETATM   17  C   UNL     1     -39.824  51.477 -51.645  1.00  0.00     0.017 A 
ENDBRANCH   6  11
ENDBRANCH   2   5
BRANCH   1  18
HETATM   18  C   UNL     1     -43.518  56.872 -53.503  1.00  0.00     0.089 C 
HETATM   19  C   UNL     1     -42.979  57.663 -54.706  1.00  0.00     0.063 C 
HETATM   20  C   UNL     1     -42.407  59.045 -54.373  1.00  0.00     0.121 C 
HETATM   21  N   UNL     1     -43.401  59.811 -53.523  1.00  0.00    -0.059 N 
HETATM   22  C   UNL     1     -41.037  59.010 -53.689  1.00  0.00     0.046 C 
HETATM   23  C   UNL     1     -42.250  59.855 -55.677  1.00  0.00     0.046 C 
HETATM   24  C   UNL     1     -44.108  59.134 -52.368  1.00  0.00     0.121 C 
HETATM   25  H   UNL     1     -44.132  60.154 -54.165  1.00  0.00     0.279 HD
HETATM   26  H   UNL     1     -42.947  60.670 -53.183  1.00  0.00     0.279 HD
HETATM   27  C   UNL     1     -43.220  59.160 -51.119  1.00  0.00     0.046 C 
HETATM   28  C   UNL     1     -45.351  59.996 -52.066  1.00  0.00     0.046 C 
HETATM   29  C   UNL     1     -44.563  57.720 -52.770  1.00  0.00     0.063 C 
ENDBRANCH   1  18
TORSDOF 3
ENDMDL
MODEL 4
REMARK VINA RESULT:      -8.0      3.122      6.852
REMARK  3 active torsions:
REMARK  status: ('A' for Active; 'I' for Inactive)
REMARK    1  A    between atoms: C_11  and  N_12 
REMARK       I    between atoms: N_12  and  C_13 
REMARK    2  A    between atoms: C_13  and  C_14 
REMARK    3  A    between atoms: C_15  and  C_16 
ROOT
HETATM    1  N   UNL     1     -42.763  55.983 -54.533  1.00  0.00    -0.352 N 
HETATM    2  C   UNL     1     -43.625  57.027 -54.845  1.00  0.00     0.255 C 
HETATM    3  O   UNL     1     -44.826  56.971 -54.618  1.00  0.00    -0.268 OA
HETATM    4  H   UNL     1     -41.925  55.989 -55.105  1.00  0.00     0.163 HD
ENDROOT
BRANCH   2   5
HETATM    5  C   UNL     1     -42.977  58.179 -55.451  1.00  0.00     0.080 A 
HETATM    6  C   UNL     1     -42.087  59.134 -54.859  1.00  0.00     0.104 A 
HETATM    7  N   UNL     1     -41.648  60.005 -55.783  1.00  0.00    -0.174 NA
HETATM    8  N   UNL     1     -42.236  59.636 -56.922  1.00  0.00    -0.288 N 
HETATM    9  H   UNL     1     -42.021  60.167 -57.761  1.00  0.00     0.188 HD
HETATM   10  C   UNL     1     -43.054  58.557 -56.782  1.00  0.00     0.128 A 
BRANCH   6  11
HETATM   11  C   UNL     1     -41.651  59.276 -53.466  1.00  0.00    -0.004 A 
HETATM   12  C   UNL     1     -42.565  59.709 -52.490  1.00  0.00     0.017 A 
HETATM   13  C   UNL     1     -42.177  59.822 -51.153  1.00  0.00     0.043 A 
HETATM   14  C   UNL     1     -40.877  59.497 -50.788  1.00  0.00     0.116 A 
HETATM   15  F   UNL     1     -40.504  59.602 -49.506  1.00  0.00    -0.206 F 
HETATM   16  C   UNL     1     -39.960  59.057 -51.734  1.00  0.00     0.043 A 
HETATM   17  C   UNL     1     -40.347  58.941 -53.072  1.00  0.00     0.017 A 
ENDBRANCH   6  11
ENDBRANCH   2   5
BRANCH   1  18
HETATM   18  C   UNL     1     -43.270  54.699 -54.071  1.00  0.00     0.089 C 
HETATM   19  C   UNL     1     -43.317  54.533 -52.544  1.00  0.00     0.063 C 
HETATM   20  C   UNL     1     -41.955  54.375 -51.863  1.00  0.00     0.121 C 
HETATM   21  N   UNL     1     -41.155  53.304 -52.578  1.00  0.00    -0.059 N 
HETATM   22  C   UNL     1     -41.144  55.671 -51.770  1.00  0.00     0.046 C 
HETATM   23  C   UNL     1     -42.164  53.859 -50.424  1.00  0.00     0.046 C 
HETATM   24  C   UNL     1     -41.105  53.262 -54.090  1.00  0.00     0.121 C 
HETATM   25  H   UNL     1     -41.533  52.397 -52.263  1.00  0.00     0.279 HD
HETATM   26  H   UNL     1     -40.193  53.312 -52.209  1.00  0.00     0.279 HD
HETATM   27  C   UNL     1     -40.031  54.225 -54.608  1.00  0.00     0.046 C 
HETATM   28  C   UNL     1     -40.659  51.833 -54.463  1.00  0.00     0.046 C 
HETATM   29  C   UNL     1     -42.501  53.523 -54.682  1.00  0.00     0.063 C 
ENDBRANCH   1  18
TORSDOF 3
ENDMDL
MODEL 5
REMARK VINA RESULT:      -7.7      3.200      5.421
REMARK  3 active torsions:
REMARK  status: ('A' for Active; 'I' for Inactive)
REMARK    1  A    between atoms: C_11  and  N_12 
REMARK       I    between atoms: N_12  and  C_13 
REMARK    2  A    between atoms: C_13  and  C_14 
REMARK    3  A    between atoms: C_15  and  C_16 
ROOT
HETATM    1  N   UNL     1     -43.373  58.418 -54.114  1.00  0.00    -0.352 N 
HETATM    2  C   UNL     1     -42.422  58.102 -55.077  1.00  0.00     0.255 C 
HETATM    3  O   UNL     1     -41.439  58.804 -55.277  1.00  0.00    -0.268 OA
HETATM    4  H   UNL     1     -44.279  58.009 -54.317  1.00  0.00     0.163 HD
ENDROOT
BRANCH   2   5
HETATM    5  C   UNL     1     -42.695  56.878 -55.811  1.00  0.00     0.080 A 
HETATM    6  C   UNL     1     -42.686  55.522 -55.347  1.00  0.00     0.104 A 
HETATM    7  N   UNL     1     -43.069  54.685 -56.326  1.00  0.00    -0.174 NA
HETATM    8  N   UNL     1     -43.305  55.465 -57.382  1.00  0.00    -0.288 N 
HETATM    9  H   UNL     1     -43.625  55.021 -58.238  1.00  0.00     0.188 HD
HETATM   10  C   UNL     1     -43.085  56.785 -57.137  1.00  0.00     0.128 A 
BRANCH   6  11
HETATM   11  C   UNL     1     -42.316  54.979 -54.036  1.00  0.00    -0.004 A 
HETATM   12  C   UNL     1     -43.315  54.712 -53.084  1.00  0.00     0.017 A 
HETATM   13  C   UNL     1     -42.985  54.167 -51.840  1.00  0.00     0.043 A 
HETATM   14  C   UNL     1     -41.658  53.884 -51.548  1.00  0.00     0.116 A 
HETATM   15  F   UNL     1     -41.340  53.359 -50.358  1.00  0.00    -0.206 F 
HETATM   16  C   UNL     1     -40.655  54.129 -52.477  1.00  0.00     0.043 A 
HETATM   17  C   UNL     1     -40.983  54.672 -53.723  1.00  0.00     0.017 A 
ENDBRANCH   6  11
ENDBRANCH   2   5
BRANCH   1  18
HETATM   18  C   UNL     1     -43.335  59.688 -53.405  1.00  0.00     0.089 C 
HETATM   19  C   UNL     1     -42.061  59.932 -52.580  1.00  0.00     0.063 C 
HETATM   20  C   UNL     1     -41.934  59.084 -51.311  1.00  0.00     0.121 C 
HETATM   21  N   UNL     1     -43.218  59.178 -50.511  1.00  0.00    -0.059 N 
HETATM   22  C   UNL     1     -41.574  57.617 -51.569  1.00  0.00     0.046 C 
HETATM   23  C   UNL     1     -40.829  59.678 -50.414  1.00  0.00     0.046 C 
HETATM   24  C   UNL     1     -44.562  59.073 -51.198  1.00  0.00     0.121 C 
HETATM   25  H   UNL     1     -43.196  60.088 -50.027  1.00  0.00     0.279 HD
HETATM   26  H   UNL     1     -43.177  58.490 -49.745  1.00  0.00     0.279 HD
HETATM   27  C   UNL     1     -44.943  57.601 -51.389  1.00  0.00     0.046 C 
HETATM   28  C   UNL     1     -45.587  59.690 -50.225  1.00  0.00     0.046 C 
HETATM   29  C   UNL     1     -44.562  59.883 -52.507  1.00  0.00     0.063 C 
ENDBRANCH   1  18
TORSDOF 3
ENDMDL
MODEL 6
REMARK VINA RESULT:      -7.7      3.148      7.187
REMARK  3 active torsions:
REMARK  status: ('A' for Active; 'I' for Inactive)
REMARK    1  A    between atoms: C_11  and  N_12 
REMARK       I    between atoms: N_12  and  C_13 
REMARK    2  A    between atoms: C_13  and  C_14 
REMARK    3  A    between atoms: C_15  and  C_16 
ROOT
HETATM    1  N   UNL     1     -42.805  55.882 -54.853  1.00  0.00    -0.352 N 
HETATM    2  C   UNL     1     -43.685  56.926 -55.113  1.00  0.00     0.255 C 
HETATM    3  O   UNL     1     -44.840  56.922 -54.707  1.00  0.00    -0.268 OA
HETATM    4  H   UNL     1     -42.063  55.821 -55.542  1.00  0.00     0.163 HD
ENDROOT
BRANCH   2   5
HETATM    5  C   UNL     1     -43.115  58.010 -55.896  1.00  0.00     0.080 A 
HETATM    6  C   UNL     1     -43.166  58.229 -57.312  1.00  0.00     0.104 A 
HETATM    7  N   UNL     1     -42.576  59.394 -57.630  1.00  0.00    -0.174 NA
HETATM    8  N   UNL     1     -42.153  59.901 -56.473  1.00  0.00    -0.288 N 
HETATM    9  H   UNL     1     -41.684  60.803 -56.492  1.00  0.00     0.188 HD
HETATM   10  C   UNL     1     -42.434  59.110 -55.401  1.00  0.00     0.128 A 
BRANCH   6  11
HETATM   11  C   UNL     1     -43.724  57.386 -58.374  1.00  0.00    -0.004 A 
HETATM   12  C   UNL     1     -43.023  56.243 -58.798  1.00  0.00     0.017 A 
HETATM   13  C   UNL     1     -43.551  55.411 -59.788  1.00  0.00     0.043 A 
HETATM   14  C   UNL     1     -44.782  55.716 -60.352  1.00  0.00     0.116 A 
HETATM   15  F   UNL     1     -45.292  54.918 -61.299  1.00  0.00    -0.206 F 
HETATM   16  C   UNL     1     -45.498  56.834 -59.942  1.00  0.00     0.043 A 
HETATM   17  C   UNL     1     -44.972  57.666 -58.950  1.00  0.00     0.017 A 
ENDBRANCH   6  11
ENDBRANCH   2   5
BRANCH   1  18
HETATM   18  C   UNL     1     -43.261  54.651 -54.223  1.00  0.00     0.089 C 
HETATM   19  C   UNL     1     -43.265  54.673 -52.686  1.00  0.00     0.063 C 
HETATM   20  C   UNL     1     -41.881  54.638 -52.030  1.00  0.00     0.121 C 
HETATM   21  N   UNL     1     -41.067  53.509 -52.632  1.00  0.00    -0.059 N 
HETATM   22  C   UNL     1     -41.109  55.957 -52.119  1.00  0.00     0.046 C 
HETATM   23  C   UNL     1     -42.039  54.297 -50.534  1.00  0.00     0.046 C 
HETATM   24  C   UNL     1     -41.053  53.284 -54.128  1.00  0.00     0.121 C 
HETATM   25  H   UNL     1     -41.409  52.638 -52.198  1.00  0.00     0.279 HD
HETATM   26  H   UNL     1     -40.097  53.590 -52.295  1.00  0.00     0.279 HD
HETATM   27  C   UNL     1     -40.023  54.205 -54.791  1.00  0.00     0.046 C 
HETATM   28  C   UNL     1     -40.573  51.832 -54.336  1.00  0.00     0.046 C 
HETATM   29  C   UNL     1     -42.472  53.431 -54.708  1.00  0.00     0.063 C 
ENDBRANCH   1  18
TORSDOF 3
ENDMDL
MODEL 7
REMARK VINA RESULT:      -7.7     14.113     15.679
REMARK  3 active torsions:
REMARK  status: ('A' for Active; 'I' for Inactive)
REMARK    1  A    between atoms: C_11  and  N_12 
REMARK       I    between atoms: N_12  and  C_13 
REMARK    2  A    between atoms: C_13  and  C_14 
REMARK    3  A    between atoms: C_15  and  C_16 
ROOT
HETATM    1  N   UNL     1     -37.202  41.552 -54.700  1.00  0.00    -0.352 N 
HETATM    2  C   UNL     1     -36.917  41.766 -53.357  1.00  0.00     0.255 C 
HETATM    3  O   UNL     1     -36.205  42.687 -52.981  1.00  0.00    -0.268 OA
HETATM    4  H   UNL     1     -37.447  40.586 -54.894  1.00  0.00     0.163 HD
ENDROOT
BRANCH   2   5
HETATM    5  C   UNL     1     -37.538  40.813 -52.452  1.00  0.00     0.080 A 
HETATM    6  C   UNL     1     -36.924  39.937 -51.499  1.00  0.00     0.104 A 
HETATM    7  N   UNL     1     -37.858  39.267 -50.803  1.00  0.00    -0.174 NA
HETATM    8  N   UNL     1     -39.026  39.684 -51.292  1.00  0.00    -0.288 N 
HETATM    9  H   UNL     1     -39.876  39.303 -50.884  1.00  0.00     0.188 HD
HETATM   10  C   UNL     1     -38.897  40.600 -52.291  1.00  0.00     0.128 A 
BRANCH   6  11
HETATM   11  C   UNL     1     -35.504  39.686 -51.229  1.00  0.00    -0.004 A 
HETATM   12  C   UNL     1     -34.901  38.509 -51.704  1.00  0.00     0.017 A 
HETATM   13  C   UNL     1     -33.543  38.265 -51.483  1.00  0.00     0.043 A 
HETATM   14  C   UNL     1     -32.784  39.202 -50.793  1.00  0.00     0.116 A 
HETATM   15  F   UNL     1     -31.482  38.973 -50.583  1.00  0.00    -0.206 F 
HETATM   16  C   UNL     1     -33.356  40.378 -50.325  1.00  0.00     0.043 A 
HETATM   17  C   UNL     1     -34.714  40.623 -50.547  1.00  0.00     0.017 A 
ENDBRANCH   6  11
ENDBRANCH   2   5
BRANCH   1  18
HETATM   18  C   UNL     1     -36.533  42.314 -55.744  1.00  0.00     0.089 C 
HETATM   19  C   UNL     1     -37.162  42.191 -57.141  1.00  0.00     0.063 C 
HETATM   20  C   UNL     1     -36.958  40.839 -57.831  1.00  0.00     0.121 C 
HETATM   21  N   UNL     1     -35.490  40.463 -57.777  1.00  0.00    -0.059 N 
HETATM   22  C   UNL     1     -37.819  39.706 -57.263  1.00  0.00     0.046 C 
HETATM   23  C   UNL     1     -37.307  40.976 -59.327  1.00  0.00     0.046 C 
HETATM   24  C   UNL     1     -34.698  40.636 -56.499  1.00  0.00     0.121 C 
HETATM   25  H   UNL     1     -35.018  41.021 -58.504  1.00  0.00     0.279 HD
HETATM   26  H   UNL     1     -35.389  39.492 -58.106  1.00  0.00     0.279 HD
HETATM   27  C   UNL     1     -34.907  39.427 -55.581  1.00  0.00     0.046 C 
HETATM   28  C   UNL     1     -33.213  40.645 -56.916  1.00  0.00     0.046 C 
HETATM   29  C   UNL     1     -35.040  41.981 -55.833  1.00  0.00     0.063 C 
ENDBRANCH   1  18
TORSDOF 3
ENDMDL
MODEL 8
REMARK VINA RESULT:      -7.5      2.713      4.570
REMARK  3 active torsions:
REMARK  status: ('A' for Active; 'I' for Inactive)
REMARK    1  A    between atoms: C_11  and  N_12 
REMARK       I    between atoms: N_12  and  C_13 
REMARK    2  A    between atoms: C_13  and  C_14 
REMARK    3  A    between atoms: C_15  and  C_16 
ROOT
HETATM    1  N   UNL     1     -42.314  58.203 -53.385  1.00  0.00    -0.352 N 
HETATM    2  C   UNL     1     -41.834  56.994 -53.873  1.00  0.00     0.255 C 
HETATM    3  O   UNL     1     -40.649  56.815 -54.120  1.00  0.00    -0.268 OA
HETATM    4  H   UNL     1     -43.296  58.344 -53.598  1.00  0.00     0.163 HD
ENDROOT
BRANCH   2   5
HETATM    5  C   UNL     1     -42.853  55.974 -54.058  1.00  0.00     0.080 A 
HETATM    6  C   UNL     1     -42.801  54.575 -53.749  1.00  0.00     0.104 A 
HETATM    7  N   UNL     1     -43.985  53.992 -54.002  1.00  0.00    -0.174 NA
HETATM    8  N   UNL     1     -44.766  54.968 -54.465  1.00  0.00    -0.288 N 
HETATM    9  H   UNL     1     -45.725  54.736 -54.706  1.00  0.00     0.188 HD
HETATM   10  C   UNL     1     -44.138  56.174 -54.533  1.00  0.00     0.128 A 
BRANCH   6  11
HETATM   11  C   UNL     1     -41.687  53.763 -53.248  1.00  0.00    -0.004 A 
HETATM   12  C   UNL     1     -41.316  53.847 -51.895  1.00  0.00     0.017 A 
HETATM   13  C   UNL     1     -40.276  53.060 -51.393  1.00  0.00     0.043 A 
HETATM   14  C   UNL     1     -39.610  52.185 -52.240  1.00  0.00     0.116 A 
HETATM   15  F   UNL     1     -38.616  51.427 -51.760  1.00  0.00    -0.206 F 
HETATM   16  C   UNL     1     -39.967  52.077 -53.578  1.00  0.00     0.043 A 
HETATM   17  C   UNL     1     -41.008  52.862 -54.082  1.00  0.00     0.017 A 
ENDBRANCH   6  11
ENDBRANCH   2   5
BRANCH   1  18
HETATM   18  C   UNL     1     -41.456  59.375 -53.297  1.00  0.00     0.089 C 
HETATM   19  C   UNL     1     -40.206  59.198 -52.420  1.00  0.00     0.063 C 
HETATM   20  C   UNL     1     -40.471  59.130 -50.913  1.00  0.00     0.121 C 
HETATM   21  N   UNL     1     -41.354  60.292 -50.504  1.00  0.00    -0.059 N 
HETATM   22  C   UNL     1     -41.079  57.807 -50.440  1.00  0.00     0.046 C 
HETATM   23  C   UNL     1     -39.140  59.322 -50.156  1.00  0.00     0.046 C 
HETATM   24  C   UNL     1     -42.563  60.668 -51.333  1.00  0.00     0.121 C 
HETATM   25  H   UNL     1     -40.745  61.124 -50.464  1.00  0.00     0.279 HD
HETATM   26  H   UNL     1     -41.647  60.153 -49.527  1.00  0.00     0.279 HD
HETATM   27  C   UNL     1     -43.760  59.792 -50.947  1.00  0.00     0.046 C 
HETATM   28  C   UNL     1     -42.912  62.120 -50.945  1.00  0.00     0.046 C 
HETATM   29  C   UNL     1     -42.224  60.618 -52.834  1.00  0.00     0.063 C 
ENDBRANCH   1  18
TORSDOF 3
ENDMDL
MODEL 9
REMARK VINA RESULT:      -7.5      2.586      5.463
REMARK  3 active torsions:
REMARK  status: ('A' for Active; 'I' for Inactive)
REMARK    1  A    between atoms: C_11  and  N_12 
REMARK       I    between atoms: N_12  and  C_13 
REMARK    2  A    between atoms: C_13  and  C_14 
REMARK    3  A    between atoms: C_15  and  C_16 
ROOT
HETATM    1  N   UNL     1     -43.571  57.595 -53.702  1.00  0.00    -0.352 N 
HETATM    2  C   UNL     1     -44.443  57.269 -54.734  1.00  0.00     0.255 C 
HETATM    3  O   UNL     1     -45.651  57.171 -54.561  1.00  0.00    -0.268 OA
HETATM    4  H   UNL     1     -42.628  57.264 -53.874  1.00  0.00     0.163 HD
ENDROOT
BRANCH   2   5
HETATM    5  C   UNL     1     -43.799  57.064 -56.021  1.00  0.00     0.080 A 
HETATM    6  C   UNL     1     -42.851  56.062 -56.410  1.00  0.00     0.104 A 
HETATM    7  N   UNL     1     -42.556  56.173 -57.717  1.00  0.00    -0.174 NA
HETATM    8  N   UNL     1     -43.276  57.207 -58.153  1.00  0.00    -0.288 N 
HETATM    9  H   UNL     1     -43.208  57.453 -59.136  1.00  0.00     0.188 HD
HETATM   10  C   UNL     1     -44.029  57.789 -57.179  1.00  0.00     0.128 A 
BRANCH   6  11
HETATM   11  C   UNL     1     -42.196  55.025 -55.606  1.00  0.00    -0.004 A 
HETATM   12  C   UNL     1     -40.801  54.864 -55.678  1.00  0.00     0.017 A 
HETATM   13  C   UNL     1     -40.155  53.901 -54.899  1.00  0.00     0.043 A 
HETATM   14  C   UNL     1     -40.900  53.102 -54.042  1.00  0.00     0.116 A 
HETATM   15  F   UNL     1     -40.283  52.181 -53.292  1.00  0.00    -0.206 F 
HETATM   16  C   UNL     1     -42.279  53.250 -53.947  1.00  0.00     0.043 A 
HETATM   17  C   UNL     1     -42.926  54.214 -54.725  1.00  0.00     0.017 A 
ENDBRANCH   6  11
ENDBRANCH   2   5
BRANCH   1  18
HETATM   18  C   UNL     1     -44.031  57.674 -52.324  1.00  0.00     0.089 C 
HETATM   19  C   UNL     1     -43.744  59.011 -51.621  1.00  0.00     0.063 C 
HETATM   20  C   UNL     1     -42.273  59.260 -51.271  1.00  0.00     0.121 C 
HETATM   21  N   UNL     1     -41.715  58.048 -50.551  1.00  0.00    -0.059 N 
HETATM   22  C   UNL     1     -41.393  59.618 -52.471  1.00  0.00     0.046 C 
HETATM   23  C   UNL     1     -42.183  60.429 -50.268  1.00  0.00     0.046 C 
HETATM   24  C   UNL     1     -42.007  56.651 -51.055  1.00  0.00     0.121 C 
HETATM   25  H   UNL     1     -42.061  58.098 -49.581  1.00  0.00     0.279 HD
HETATM   26  H   UNL     1     -40.696  58.165 -50.456  1.00  0.00     0.279 HD
HETATM   27  C   UNL     1     -41.026  56.277 -52.171  1.00  0.00     0.046 C 
HETATM   28  C   UNL     1     -41.735  55.704 -49.868  1.00  0.00     0.046 C 
HETATM   29  C   UNL     1     -43.485  56.527 -51.468  1.00  0.00     0.063 C 
ENDBRANCH   1  18
TORSDOF 3
ENDMDL
MODEL 10
REMARK VINA RESULT:      -7.5      2.463      4.435
REMARK  3 active torsions:
REMARK  status: ('A' for Active; 'I' for Inactive)
REMARK    1  A    between atoms: C_11  and  N_12 
REMARK       I    between atoms: N_12  and  C_13 
REMARK    2  A    between atoms: C_13  and  C_14 
REMARK    3  A    between atoms: C_15  and  C_16 
ROOT
HETATM    1  N   UNL     1     -42.566  57.143 -52.344  1.00  0.00    -0.352 N 
HETATM    2  C   UNL     1     -43.289  55.974 -52.553  1.00  0.00     0.255 C 
HETATM    3  O   UNL     1     -43.968  55.461 -51.674  1.00  0.00    -0.268 OA
HETATM    4  H   UNL     1     -41.778  57.229 -52.977  1.00  0.00     0.163 HD
ENDROOT
BRANCH   2   5
HETATM    5  C   UNL     1     -43.169  55.427 -53.895  1.00  0.00     0.080 A 
HETATM    6  C   UNL     1     -42.398  54.308 -54.351  1.00  0.00     0.104 A 
HETATM    7  N   UNL     1     -42.621  54.082 -55.657  1.00  0.00    -0.174 NA
HETATM    8  N   UNL     1     -43.490  55.021 -56.032  1.00  0.00    -0.288 N 
HETATM    9  H   UNL     1     -43.806  55.018 -56.997  1.00  0.00     0.188 HD
HETATM   10  C   UNL     1     -43.843  55.864 -55.023  1.00  0.00     0.128 A 
BRANCH   6  11
HETATM   11  C   UNL     1     -41.450  53.458 -53.622  1.00  0.00    -0.004 A 
HETATM   12  C   UNL     1     -41.230  53.676 -52.251  1.00  0.00     0.017 A 
HETATM   13  C   UNL     1     -40.354  52.860 -51.532  1.00  0.00     0.043 A 
HETATM   14  C   UNL     1     -39.700  51.821 -52.181  1.00  0.00     0.116 A 
HETATM   15  F   UNL     1     -38.862  51.035 -51.494  1.00  0.00    -0.206 F 
HETATM   16  C   UNL     1     -39.910  51.579 -53.533  1.00  0.00     0.043 A 
HETATM   17  C   UNL     1     -40.789  52.394 -54.252  1.00  0.00     0.017 A 
ENDBRANCH   6  11
ENDBRANCH   2   5
BRANCH   1  18
HETATM   18  C   UNL     1     -42.449  57.729 -51.016  1.00  0.00     0.089 C 
HETATM   19  C   UNL     1     -43.239  59.031 -50.811  1.00  0.00     0.063 C 
HETATM   20  C   UNL     1     -42.673  60.257 -51.533  1.00  0.00     0.121 C 
HETATM   21  N   UNL     1     -41.192  60.378 -51.236  1.00  0.00    -0.059 N 
HETATM   22  C   UNL     1     -42.915  60.264 -53.045  1.00  0.00     0.046 C 
HETATM   23  C   UNL     1     -43.328  61.530 -50.957  1.00  0.00     0.046 C 
HETATM   24  C   UNL     1     -40.296  59.159 -51.283  1.00  0.00     0.121 C 
HETATM   25  H   UNL     1     -41.115  60.774 -50.287  1.00  0.00     0.279 HD
HETATM   26  H   UNL     1     -40.795  61.111 -51.842  1.00  0.00     0.279 HD
HETATM   27  C   UNL     1     -39.851  58.887 -52.724  1.00  0.00     0.046 C 
HETATM   28  C   UNL     1     -39.034  59.526 -50.474  1.00  0.00     0.046 C 
HETATM   29  C   UNL     1     -40.988  57.957 -50.615  1.00  0.00     0.063 C 
ENDBRANCH   1  18
TORSDOF 3
ENDMDL
