MODEL 1
REMARK VINA RESULT:      -8.7      0.000      0.000
REMARK  2 active torsions:
REMARK  status: ('A' for Active; 'I' for Inactive)
REMARK    1  A    between atoms: N_20  and  C_21 
REMARK    2  A    between atoms: C_22  and  O_23 
ROOT
HETATM    1  C   UNL     1     -43.181  55.410 -58.165  1.00  0.00     0.048 C 
HETATM    2  C   UNL     1     -42.922  56.686 -57.413  1.00  0.00    -0.061 A 
HETATM    3  C   UNL     1     -42.718  56.672 -56.023  1.00  0.00     0.019 A 
HETATM    4  C   UNL     1     -42.436  57.869 -55.379  1.00  0.00     0.016 A 
HETATM    5  C   UNL     1     -42.371  59.056 -56.118  1.00  0.00     0.044 A 
HETATM    6  N   UNL     1     -42.106  60.134 -55.290  1.00  0.00    -0.324 N 
HETATM    7  C   UNL     1     -41.975  59.732 -53.975  1.00  0.00     0.264 A 
HETATM    8  O   UNL     1     -41.786  60.454 -53.010  1.00  0.00    -0.270 OA
HETATM    9  C   UNL     1     -42.234  58.180 -53.920  1.00  0.00     0.250 A 
HETATM   10  N   UNL     1     -43.487  57.848 -53.111  1.00  0.00    -0.043 N 
HETATM   11  H   UNL     1     -43.775  56.897 -53.381  1.00  0.00     0.282 HD
HETATM   12  C   UNL     1     -43.050  57.866 -51.675  1.00  0.00     0.204 C 
HETATM   13  C   UNL     1     -44.332  57.457 -50.989  1.00  0.00     0.036 C 
HETATM   14  C   UNL     1     -45.401  58.235 -51.790  1.00  0.00     0.030 C 
HETATM   15  C   UNL     1     -44.747  58.650 -53.121  1.00  0.00     0.237 C 
HETATM   16  C   UNL     1     -41.733  57.139 -51.714  1.00  0.00     0.126 C 
HETATM   17  C   UNL     1     -41.104  57.538 -53.065  1.00  0.00     0.145 C 
HETATM   18  C   UNL     1     -40.568  56.244 -53.603  1.00  0.00     0.239 C 
HETATM   19  O   UNL     1     -39.937  56.200 -54.648  1.00  0.00    -0.272 OA
HETATM   20  N   UNL     1     -41.053  55.213 -52.828  1.00  0.00    -0.249 N 
HETATM   21  C   UNL     1     -41.862  55.651 -51.812  1.00  0.00     0.238 C 
HETATM   22  O   UNL     1     -42.602  55.004 -51.088  1.00  0.00    -0.272 OA
HETATM   23  C   UNL     1     -42.570  59.105 -57.481  1.00  0.00     0.031 A 
HETATM   24  C   UNL     1     -42.846  57.900 -58.129  1.00  0.00     0.009 A 
HETATM   25  H   UNL     1     -41.999  61.094 -55.598  1.00  0.00     0.169 HD
ENDROOT
BRANCH  20  26
HETATM   26  C   UNL     1     -40.893  53.846 -53.167  1.00  0.00     0.078 A 
HETATM   27  C   UNL     1     -40.117  52.984 -52.367  1.00  0.00     0.095 A 
HETATM   28  C   UNL     1     -39.923  51.657 -52.767  1.00  0.00     0.039 A 
HETATM   29  C   UNL     1     -40.534  51.170 -53.924  1.00  0.00     0.003 A 
HETATM   30  C   UNL     1     -41.354  51.999 -54.682  1.00  0.00     0.002 A 
HETATM   31  C   UNL     1     -41.538  53.328 -54.303  1.00  0.00     0.033 A 
BRANCH  27  32
HETATM   32  O   UNL     1     -39.649  53.498 -51.183  1.00  0.00    -0.354 OA
HETATM   33  C   UNL     1     -40.185  52.928 -49.991  1.00  0.00     0.210 C 
ENDBRANCH  27  32
ENDBRANCH  20  26
TORSDOF 2
ENDMDL
MODEL 2
REMARK VINA RESULT:      -8.6      2.336      6.099
REMARK  2 active torsions:
REMARK  status: ('A' for Active; 'I' for Inactive)
REMARK    1  A    between atoms: N_20  and  C_21 
REMARK    2  A    between atoms: C_22  and  O_23 
ROOT
HETATM    1  C   UNL     1     -39.933  54.260 -55.092  1.00  0.00     0.048 C 
HETATM    2  C   UNL     1     -40.830  54.506 -53.910  1.00  0.00    -0.061 A 
HETATM    3  C   UNL     1     -41.627  55.662 -53.843  1.00  0.00     0.019 A 
HETATM    4  C   UNL     1     -42.474  55.824 -52.755  1.00  0.00     0.016 A 
HETATM    5  C   UNL     1     -42.509  54.849 -51.752  1.00  0.00     0.044 A 
HETATM    6  N   UNL     1     -43.393  55.210 -50.749  1.00  0.00    -0.324 N 
HETATM    7  C   UNL     1     -43.992  56.423 -51.027  1.00  0.00     0.264 A 
HETATM    8  O   UNL     1     -44.779  57.024 -50.314  1.00  0.00    -0.270 OA
HETATM    9  C   UNL     1     -43.387  56.960 -52.377  1.00  0.00     0.250 A 
HETATM   10  N   UNL     1     -42.597  58.249 -52.166  1.00  0.00    -0.043 N 
HETATM   11  H   UNL     1     -41.978  58.360 -52.981  1.00  0.00     0.282 HD
HETATM   12  C   UNL     1     -43.622  59.346 -52.144  1.00  0.00     0.204 C 
HETATM   13  C   UNL     1     -42.732  60.558 -52.007  1.00  0.00     0.036 C 
HETATM   14  C   UNL     1     -41.664  60.074 -51.000  1.00  0.00     0.030 C 
HETATM   15  C   UNL     1     -41.730  58.535 -50.983  1.00  0.00     0.237 C 
HETATM   16  C   UNL     1     -44.536  58.976 -53.281  1.00  0.00     0.126 C 
HETATM   17  C   UNL     1     -44.567  57.432 -53.274  1.00  0.00     0.145 C 
HETATM   18  C   UNL     1     -44.439  57.068 -54.723  1.00  0.00     0.239 C 
HETATM   19  O   UNL     1     -44.494  55.906 -55.096  1.00  0.00    -0.272 OA
HETATM   20  N   UNL     1     -44.104  58.201 -55.432  1.00  0.00    -0.249 N 
HETATM   21  C   UNL     1     -43.988  59.309 -54.634  1.00  0.00     0.238 C 
HETATM   22  O   UNL     1     -43.514  60.401 -54.903  1.00  0.00    -0.272 OA
HETATM   23  C   UNL     1     -41.737  53.707 -51.786  1.00  0.00     0.031 A 
HETATM   24  C   UNL     1     -40.891  53.541 -52.883  1.00  0.00     0.009 A 
HETATM   25  H   UNL     1     -43.598  54.656 -49.925  1.00  0.00     0.169 HD
ENDROOT
BRANCH  20  26
HETATM   26  C   UNL     1     -43.727  58.178 -56.799  1.00  0.00     0.078 A 
HETATM   27  C   UNL     1     -44.690  58.291 -57.821  1.00  0.00     0.095 A 
HETATM   28  C   UNL     1     -44.292  58.196 -59.160  1.00  0.00     0.039 A 
HETATM   29  C   UNL     1     -42.943  58.040 -59.488  1.00  0.00     0.003 A 
HETATM   30  C   UNL     1     -41.982  57.993 -58.484  1.00  0.00     0.002 A 
HETATM   31  C   UNL     1     -42.370  58.068 -57.147  1.00  0.00     0.033 A 
BRANCH  27  32
HETATM   32  O   UNL     1     -45.976  58.565 -57.427  1.00  0.00    -0.354 OA
HETATM   33  C   UNL     1     -47.014  57.948 -58.186  1.00  0.00     0.210 C 
ENDBRANCH  27  32
ENDBRANCH  20  26
TORSDOF 2
ENDMDL
MODEL 3
REMARK VINA RESULT:      -8.1      1.048      1.224
REMARK  2 active torsions:
REMARK  status: ('A' for Active; 'I' for Inactive)
REMARK    1  A    between atoms: N_20  and  C_21 
REMARK    2  A    between atoms: C_22  and  O_23 
ROOT
HETATM    1  C   UNL     1     -42.860  56.972 -58.030  1.00  0.00     0.048 C 
HETATM    2  C   UNL     1     -42.761  58.139 -57.086  1.00  0.00    -0.061 A 
HETATM    3  C   UNL     1     -42.788  57.941 -55.695  1.00  0.00     0.019 A 
HETATM    4  C   UNL     1     -42.647  59.043 -54.862  1.00  0.00     0.016 A 
HETATM    5  C   UNL     1     -42.494  60.317 -55.420  1.00  0.00     0.044 A 
HETATM    6  N   UNL     1     -42.397  61.277 -54.426  1.00  0.00    -0.324 N 
HETATM    7  C   UNL     1     -42.472  60.704 -53.171  1.00  0.00     0.264 A 
HETATM    8  O   UNL     1     -42.463  61.292 -52.102  1.00  0.00    -0.270 OA
HETATM    9  C   UNL     1     -42.695  59.157 -53.362  1.00  0.00     0.250 A 
HETATM   10  N   UNL     1     -44.053  58.715 -52.823  1.00  0.00    -0.043 N 
HETATM   11  H   UNL     1     -44.269  57.807 -53.258  1.00  0.00     0.282 HD
HETATM   12  C   UNL     1     -43.859  58.544 -51.344  1.00  0.00     0.204 C 
HETATM   13  C   UNL     1     -45.224  58.041 -50.939  1.00  0.00     0.036 C 
HETATM   14  C   UNL     1     -46.168  58.913 -51.798  1.00  0.00     0.030 C 
HETATM   15  C   UNL     1     -45.316  59.505 -52.937  1.00  0.00     0.237 C 
HETATM   16  C   UNL     1     -42.534  57.835 -51.259  1.00  0.00     0.126 C 
HETATM   17  C   UNL     1     -41.703  58.413 -52.423  1.00  0.00     0.145 C 
HETATM   18  C   UNL     1     -41.052  57.205 -53.029  1.00  0.00     0.239 C 
HETATM   19  O   UNL     1     -40.258  57.303 -53.952  1.00  0.00    -0.272 OA
HETATM   20  N   UNL     1     -41.630  56.078 -52.486  1.00  0.00    -0.249 N 
HETATM   21  C   UNL     1     -42.606  56.372 -51.571  1.00  0.00     0.238 C 
HETATM   22  O   UNL     1     -43.436  55.631 -51.070  1.00  0.00    -0.272 OA
HETATM   23  C   UNL     1     -42.468  60.546 -56.778  1.00  0.00     0.031 A 
HETATM   24  C   UNL     1     -42.602  59.438 -57.615  1.00  0.00     0.009 A 
HETATM   25  H   UNL     1     -42.267  62.270 -54.584  1.00  0.00     0.169 HD
ENDROOT
BRANCH  20  26
HETATM   26  C   UNL     1     -41.380  54.768 -52.970  1.00  0.00     0.078 A 
HETATM   27  C   UNL     1     -40.605  53.855 -52.228  1.00  0.00     0.095 A 
HETATM   28  C   UNL     1     -40.320  52.594 -52.765  1.00  0.00     0.039 A 
HETATM   29  C   UNL     1     -40.840  52.219 -54.005  1.00  0.00     0.003 A 
HETATM   30  C   UNL     1     -41.659  53.093 -54.712  1.00  0.00     0.002 A 
HETATM   31  C   UNL     1     -41.934  54.358 -54.194  1.00  0.00     0.033 A 
BRANCH  27  32
HETATM   32  O   UNL     1     -40.230  54.247 -50.966  1.00  0.00    -0.354 OA
HETATM   33  C   UNL     1     -40.588  53.371 -49.900  1.00  0.00     0.210 C 
ENDBRANCH  27  32
ENDBRANCH  20  26
TORSDOF 2
ENDMDL
MODEL 4
REMARK VINA RESULT:      -8.1      2.203      5.530
REMARK  2 active torsions:
REMARK  status: ('A' for Active; 'I' for Inactive)
REMARK    1  A    between atoms: N_20  and  C_21 
REMARK    2  A    between atoms: C_22  and  O_23 
ROOT
HETATM    1  C   UNL     1     -41.804  60.096 -57.226  1.00  0.00     0.048 C 
HETATM    2  C   UNL     1     -42.248  58.667 -57.376  1.00  0.00    -0.061 A 
HETATM    3  C   UNL     1     -42.395  57.840 -56.249  1.00  0.00     0.019 A 
HETATM    4  C   UNL     1     -42.851  56.542 -56.431  1.00  0.00     0.016 A 
HETATM    5  C   UNL     1     -43.142  56.083 -57.721  1.00  0.00     0.044 A 
HETATM    6  N   UNL     1     -43.554  54.762 -57.689  1.00  0.00    -0.324 N 
HETATM    7  C   UNL     1     -43.568  54.275 -56.396  1.00  0.00     0.264 A 
HETATM    8  O   UNL     1     -43.840  53.137 -56.051  1.00  0.00    -0.270 OA
HETATM    9  C   UNL     1     -43.049  55.419 -55.447  1.00  0.00     0.250 A 
HETATM   10  N   UNL     1     -41.730  55.040 -54.778  1.00  0.00    -0.043 N 
HETATM   11  H   UNL     1     -41.295  55.914 -54.452  1.00  0.00     0.282 HD
HETATM   12  C   UNL     1     -42.110  54.184 -53.604  1.00  0.00     0.204 C 
HETATM   13  C   UNL     1     -40.754  53.937 -52.988  1.00  0.00     0.036 C 
HETATM   14  C   UNL     1     -39.862  53.710 -54.230  1.00  0.00     0.030 C 
HETATM   15  C   UNL     1     -40.624  54.283 -55.439  1.00  0.00     0.237 C 
HETATM   16  C   UNL     1     -43.287  54.919 -53.020  1.00  0.00     0.126 C 
HETATM   17  C   UNL     1     -44.023  55.514 -54.239  1.00  0.00     0.145 C 
HETATM   18  C   UNL     1     -44.352  56.912 -53.806  1.00  0.00     0.239 C 
HETATM   19  O   UNL     1     -45.005  57.663 -54.515  1.00  0.00    -0.272 OA
HETATM   20  N   UNL     1     -43.673  57.181 -52.638  1.00  0.00    -0.249 N 
HETATM   21  C   UNL     1     -42.912  56.123 -52.213  1.00  0.00     0.238 C 
HETATM   22  O   UNL     1     -42.049  56.097 -51.351  1.00  0.00    -0.272 OA
HETATM   23  C   UNL     1     -43.004  56.867 -58.846  1.00  0.00     0.031 A 
HETATM   24  C   UNL     1     -42.552  58.174 -58.662  1.00  0.00     0.009 A 
HETATM   25  H   UNL     1     -43.832  54.218 -58.498  1.00  0.00     0.169 HD
ENDROOT
BRANCH  20  26
HETATM   26  C   UNL     1     -43.612  58.472 -52.055  1.00  0.00     0.078 A 
HETATM   27  C   UNL     1     -42.536  59.341 -52.323  1.00  0.00     0.095 A 
HETATM   28  C   UNL     1     -42.471  60.582 -51.678  1.00  0.00     0.039 A 
HETATM   29  C   UNL     1     -43.491  60.983 -50.813  1.00  0.00     0.003 A 
HETATM   30  C   UNL     1     -44.588  60.157 -50.595  1.00  0.00     0.002 A 
HETATM   31  C   UNL     1     -44.652  58.911 -51.218  1.00  0.00     0.033 A 
BRANCH  27  32
HETATM   32  O   UNL     1     -41.636  58.931 -53.275  1.00  0.00    -0.354 OA
HETATM   33  C   UNL     1     -40.277  58.824 -52.857  1.00  0.00     0.210 C 
ENDBRANCH  27  32
ENDBRANCH  20  26
TORSDOF 2
ENDMDL
MODEL 5
REMARK VINA RESULT:      -7.9      2.439      5.995
REMARK  2 active torsions:
REMARK  status: ('A' for Active; 'I' for Inactive)
REMARK    1  A    between atoms: N_20  and  C_21 
REMARK    2  A    between atoms: C_22  and  O_23 
ROOT
HETATM    1  C   UNL     1     -46.691  60.915 -52.430  1.00  0.00     0.048 C 
HETATM    2  C   UNL     1     -45.385  60.469 -51.834  1.00  0.00    -0.061 A 
HETATM    3  C   UNL     1     -44.680  59.383 -52.381  1.00  0.00     0.019 A 
HETATM    4  C   UNL     1     -43.456  59.036 -51.825  1.00  0.00     0.016 A 
HETATM    5  C   UNL     1     -42.959  59.759 -50.736  1.00  0.00     0.044 A 
HETATM    6  N   UNL     1     -41.745  59.240 -50.316  1.00  0.00    -0.324 N 
HETATM    7  C   UNL     1     -41.369  58.162 -51.095  1.00  0.00     0.264 A 
HETATM    8  O   UNL     1     -40.376  57.470 -50.945  1.00  0.00    -0.270 OA
HETATM    9  C   UNL     1     -42.513  57.906 -52.145  1.00  0.00     0.250 A 
HETATM   10  N   UNL     1     -43.186  56.553 -51.924  1.00  0.00    -0.043 N 
HETATM   11  H   UNL     1     -44.097  56.588 -52.401  1.00  0.00     0.282 HD
HETATM   12  C   UNL     1     -42.292  55.549 -52.594  1.00  0.00     0.204 C 
HETATM   13  C   UNL     1     -43.084  54.282 -52.378  1.00  0.00     0.036 C 
HETATM   14  C   UNL     1     -43.599  54.455 -50.931  1.00  0.00     0.030 C 
HETATM   15  C   UNL     1     -43.474  55.951 -50.588  1.00  0.00     0.237 C 
HETATM   16  C   UNL     1     -41.939  56.226 -53.891  1.00  0.00     0.126 C 
HETATM   17  C   UNL     1     -41.848  57.727 -53.540  1.00  0.00     0.145 C 
HETATM   18  C   UNL     1     -42.570  58.400 -54.670  1.00  0.00     0.239 C 
HETATM   19  O   UNL     1     -42.635  59.617 -54.750  1.00  0.00    -0.272 OA
HETATM   20  N   UNL     1     -43.219  57.436 -55.412  1.00  0.00    -0.249 N 
HETATM   21  C   UNL     1     -43.025  56.172 -54.921  1.00  0.00     0.238 C 
HETATM   22  O   UNL     1     -43.609  55.140 -55.208  1.00  0.00    -0.272 OA
HETATM   23  C   UNL     1     -43.626  60.825 -50.173  1.00  0.00     0.031 A 
HETATM   24  C   UNL     1     -44.853  61.179 -50.736  1.00  0.00     0.009 A 
HETATM   25  H   UNL     1     -41.186  59.605 -49.554  1.00  0.00     0.169 HD
ENDROOT
BRANCH  20  26
HETATM   26  C   UNL     1     -44.143  57.743 -56.442  1.00  0.00     0.078 A 
HETATM   27  C   UNL     1     -43.752  57.734 -57.796  1.00  0.00     0.095 A 
HETATM   28  C   UNL     1     -44.671  58.108 -58.784  1.00  0.00     0.039 A 
HETATM   29  C   UNL     1     -45.983  58.439 -58.440  1.00  0.00     0.003 A 
HETATM   30  C   UNL     1     -46.392  58.385 -57.112  1.00  0.00     0.002 A 
HETATM   31  C   UNL     1     -45.480  58.033 -56.119  1.00  0.00     0.033 A 
BRANCH  27  32
HETATM   32  O   UNL     1     -42.485  57.281 -58.068  1.00  0.00    -0.354 OA
HETATM   33  C   UNL     1     -41.736  58.033 -59.020  1.00  0.00     0.210 C 
ENDBRANCH  27  32
ENDBRANCH  20  26
TORSDOF 2
ENDMDL
MODEL 6
REMARK VINA RESULT:      -7.3      2.391      4.958
REMARK  2 active torsions:
REMARK  status: ('A' for Active; 'I' for Inactive)
REMARK    1  A    between atoms: N_20  and  C_21 
REMARK    2  A    between atoms: C_22  and  O_23 
ROOT
HETATM    1  C   UNL     1     -42.596  61.158 -50.588  1.00  0.00     0.048 C 
HETATM    2  C   UNL     1     -43.510  61.093 -51.780  1.00  0.00    -0.061 A 
HETATM    3  C   UNL     1     -43.375  60.069 -52.733  1.00  0.00     0.019 A 
HETATM    4  C   UNL     1     -44.271  60.023 -53.793  1.00  0.00     0.016 A 
HETATM    5  C   UNL     1     -45.274  60.994 -53.896  1.00  0.00     0.044 A 
HETATM    6  N   UNL     1     -46.040  60.787 -55.030  1.00  0.00    -0.324 N 
HETATM    7  C   UNL     1     -45.602  59.680 -55.732  1.00  0.00     0.264 A 
HETATM    8  O   UNL     1     -46.045  59.271 -56.793  1.00  0.00    -0.270 OA
HETATM    9  C   UNL     1     -44.344  59.103 -54.982  1.00  0.00     0.250 A 
HETATM   10  N   UNL     1     -43.083  59.211 -55.836  1.00  0.00    -0.043 N 
HETATM   11  H   UNL     1     -42.279  59.133 -55.197  1.00  0.00     0.282 HD
HETATM   12  C   UNL     1     -43.124  58.028 -56.760  1.00  0.00     0.204 C 
HETATM   13  C   UNL     1     -41.813  58.198 -57.489  1.00  0.00     0.036 C 
HETATM   14  C   UNL     1     -41.753  59.726 -57.713  1.00  0.00     0.030 C 
HETATM   15  C   UNL     1     -42.753  60.362 -56.730  1.00  0.00     0.237 C 
HETATM   16  C   UNL     1     -43.555  56.908 -55.852  1.00  0.00     0.126 C 
HETATM   17  C   UNL     1     -44.531  57.564 -54.853  1.00  0.00     0.145 C 
HETATM   18  C   UNL     1     -44.121  56.992 -53.528  1.00  0.00     0.239 C 
HETATM   19  O   UNL     1     -44.734  57.250 -52.504  1.00  0.00    -0.272 OA
HETATM   20  N   UNL     1     -42.924  56.328 -53.690  1.00  0.00    -0.249 N 
HETATM   21  C   UNL     1     -42.461  56.377 -54.978  1.00  0.00     0.238 C 
HETATM   22  O   UNL     1     -41.359  56.079 -55.409  1.00  0.00    -0.272 OA
HETATM   23  C   UNL     1     -45.431  62.012 -52.981  1.00  0.00     0.031 A 
HETATM   24  C   UNL     1     -44.535  62.054 -51.912  1.00  0.00     0.009 A 
HETATM   25  H   UNL     1     -46.834  61.352 -55.310  1.00  0.00     0.169 HD
ENDROOT
BRANCH  20  26
HETATM   26  C   UNL     1     -42.162  55.828 -52.603  1.00  0.00     0.078 A 
HETATM   27  C   UNL     1     -41.930  54.446 -52.453  1.00  0.00     0.095 A 
HETATM   28  C   UNL     1     -41.232  53.980 -51.333  1.00  0.00     0.039 A 
HETATM   29  C   UNL     1     -40.723  54.877 -50.392  1.00  0.00     0.003 A 
HETATM   30  C   UNL     1     -40.893  56.246 -50.570  1.00  0.00     0.002 A 
HETATM   31  C   UNL     1     -41.603  56.720 -51.672  1.00  0.00     0.033 A 
BRANCH  27  32
HETATM   32  O   UNL     1     -42.353  53.636 -53.478  1.00  0.00    -0.354 OA
HETATM   33  C   UNL     1     -41.359  52.813 -54.084  1.00  0.00     0.210 C 
ENDBRANCH  27  32
ENDBRANCH  20  26
TORSDOF 2
ENDMDL
MODEL 7
REMARK VINA RESULT:      -7.2      2.059      4.606
REMARK  2 active torsions:
REMARK  status: ('A' for Active; 'I' for Inactive)
REMARK    1  A    between atoms: N_20  and  C_21 
REMARK    2  A    between atoms: C_22  and  O_23 
ROOT
HETATM    1  C   UNL     1     -41.430  59.946 -50.200  1.00  0.00     0.048 C 
HETATM    2  C   UNL     1     -42.542  59.970 -51.213  1.00  0.00    -0.061 A 
HETATM    3  C   UNL     1     -42.612  58.998 -52.225  1.00  0.00     0.019 A 
HETATM    4  C   UNL     1     -43.681  59.032 -53.109  1.00  0.00     0.016 A 
HETATM    5  C   UNL     1     -44.653  60.031 -52.983  1.00  0.00     0.044 A 
HETATM    6  N   UNL     1     -45.615  59.906 -53.972  1.00  0.00    -0.324 N 
HETATM    7  C   UNL     1     -45.345  58.830 -54.795  1.00  0.00     0.264 A 
HETATM    8  O   UNL     1     -45.981  58.492 -55.780  1.00  0.00    -0.270 OA
HETATM    9  C   UNL     1     -43.995  58.182 -54.311  1.00  0.00     0.250 A 
HETATM   10  N   UNL     1     -42.900  58.307 -55.370  1.00  0.00    -0.043 N 
HETATM   11  H   UNL     1     -42.000  58.174 -54.889  1.00  0.00     0.282 HD
HETATM   12  C   UNL     1     -43.144  57.179 -56.330  1.00  0.00     0.204 C 
HETATM   13  C   UNL     1     -41.977  57.357 -57.272  1.00  0.00     0.036 C 
HETATM   14  C   UNL     1     -41.906  58.894 -57.425  1.00  0.00     0.030 C 
HETATM   15  C   UNL     1     -42.695  59.497 -56.249  1.00  0.00     0.237 C 
HETATM   16  C   UNL     1     -43.446  56.020 -55.418  1.00  0.00     0.126 C 
HETATM   17  C   UNL     1     -44.207  56.644 -54.229  1.00  0.00     0.145 C 
HETATM   18  C   UNL     1     -43.589  55.989 -53.029  1.00  0.00     0.239 C 
HETATM   19  O   UNL     1     -44.003  56.204 -51.900  1.00  0.00    -0.272 OA
HETATM   20  N   UNL     1     -42.462  55.307 -53.434  1.00  0.00    -0.249 N 
HETATM   21  C   UNL     1     -42.233  55.416 -54.781  1.00  0.00     0.238 C 
HETATM   22  O   UNL     1     -41.235  55.115 -55.415  1.00  0.00    -0.272 OA
HETATM   23  C   UNL     1     -44.613  61.001 -52.004  1.00  0.00     0.031 A 
HETATM   24  C   UNL     1     -43.541  60.962 -51.111  1.00  0.00     0.009 A 
HETATM   25  H   UNL     1     -46.426  60.505 -54.076  1.00  0.00     0.169 HD
ENDROOT
BRANCH  20  26
HETATM   26  C   UNL     1     -41.537  54.728 -52.527  1.00  0.00     0.078 A 
HETATM   27  C   UNL     1     -41.124  53.388 -52.667  1.00  0.00     0.095 A 
HETATM   28  C   UNL     1     -40.264  52.828 -51.715  1.00  0.00     0.039 A 
HETATM   29  C   UNL     1     -39.774  53.602 -50.661  1.00  0.00     0.003 A 
HETATM   30  C   UNL     1     -40.128  54.943 -50.556  1.00  0.00     0.002 A 
HETATM   31  C   UNL     1     -40.999  55.505 -51.488  1.00  0.00     0.033 A 
BRANCH  27  32
HETATM   32  O   UNL     1     -41.547  52.727 -53.793  1.00  0.00    -0.354 OA
HETATM   33  C   UNL     1     -40.683  51.709 -54.291  1.00  0.00     0.210 C 
ENDBRANCH  27  32
ENDBRANCH  20  26
TORSDOF 2
ENDMDL
MODEL 8
REMARK VINA RESULT:      -7.0      4.214      7.611
REMARK  2 active torsions:
REMARK  status: ('A' for Active; 'I' for Inactive)
REMARK    1  A    between atoms: N_20  and  C_21 
REMARK    2  A    between atoms: C_22  and  O_23 
ROOT
HETATM    1  C   UNL     1     -41.480  56.603 -54.885  1.00  0.00     0.048 C 
HETATM    2  C   UNL     1     -41.859  58.059 -54.904  1.00  0.00    -0.061 A 
HETATM    3  C   UNL     1     -42.344  58.659 -56.078  1.00  0.00     0.019 A 
HETATM    4  C   UNL     1     -42.725  59.993 -56.036  1.00  0.00     0.016 A 
HETATM    5  C   UNL     1     -42.609  60.709 -54.840  1.00  0.00     0.044 A 
HETATM    6  N   UNL     1     -43.014  62.022 -55.015  1.00  0.00    -0.324 N 
HETATM    7  C   UNL     1     -43.422  62.248 -56.316  1.00  0.00     0.264 A 
HETATM    8  O   UNL     1     -43.788  63.312 -56.787  1.00  0.00    -0.270 OA
HETATM    9  C   UNL     1     -43.215  60.913 -57.123  1.00  0.00     0.250 A 
HETATM   10  N   UNL     1     -42.163  61.075 -58.218  1.00  0.00    -0.043 N 
HETATM   11  H   UNL     1     -41.847  60.129 -58.474  1.00  0.00     0.282 HD
HETATM   12  C   UNL     1     -42.884  61.707 -59.373  1.00  0.00     0.204 C 
HETATM   13  C   UNL     1     -41.781  61.748 -60.402  1.00  0.00     0.036 C 
HETATM   14  C   UNL     1     -40.553  62.157 -59.557  1.00  0.00     0.030 C 
HETATM   15  C   UNL     1     -40.910  61.877 -58.086  1.00  0.00     0.237 C 
HETATM   16  C   UNL     1     -44.182  60.946 -59.417  1.00  0.00     0.126 C 
HETATM   17  C   UNL     1     -44.511  60.644 -57.939  1.00  0.00     0.145 C 
HETATM   18  C   UNL     1     -44.954  59.211 -57.960  1.00  0.00     0.239 C 
HETATM   19  O   UNL     1     -45.358  58.653 -56.951  1.00  0.00    -0.272 OA
HETATM   20  N   UNL     1     -44.663  58.680 -59.198  1.00  0.00    -0.249 N 
HETATM   21  C   UNL     1     -44.069  59.587 -60.036  1.00  0.00     0.238 C 
HETATM   22  O   UNL     1     -43.509  59.394 -61.103  1.00  0.00    -0.272 OA
HETATM   23  C   UNL     1     -42.134  60.152 -53.672  1.00  0.00     0.031 A 
HETATM   24  C   UNL     1     -41.758  58.809 -53.713  1.00  0.00     0.009 A 
HETATM   25  H   UNL     1     -43.034  62.729 -54.288  1.00  0.00     0.169 HD
ENDROOT
BRANCH  20  26
HETATM   26  C   UNL     1     -44.781  57.299 -59.497  1.00  0.00     0.078 A 
HETATM   27  C   UNL     1     -45.938  56.785 -60.114  1.00  0.00     0.095 A 
HETATM   28  C   UNL     1     -46.052  55.407 -60.334  1.00  0.00     0.039 A 
HETATM   29  C   UNL     1     -45.005  54.548 -59.991  1.00  0.00     0.003 A 
HETATM   30  C   UNL     1     -43.834  55.058 -59.442  1.00  0.00     0.002 A 
HETATM   31  C   UNL     1     -43.719  56.427 -59.202  1.00  0.00     0.033 A 
BRANCH  27  32
HETATM   32  O   UNL     1     -46.871  57.702 -60.534  1.00  0.00    -0.354 OA
HETATM   33  C   UNL     1     -47.826  57.240 -61.486  1.00  0.00     0.210 C 
ENDBRANCH  27  32
ENDBRANCH  20  26
TORSDOF 2
ENDMDL
MODEL 9
REMARK VINA RESULT:      -6.8      2.793      5.616
REMARK  2 active torsions:
REMARK  status: ('A' for Active; 'I' for Inactive)
REMARK    1  A    between atoms: N_20  and  C_21 
REMARK    2  A    between atoms: C_22  and  O_23 
ROOT
HETATM    1  C   UNL     1     -46.389  61.755 -55.230  1.00  0.00     0.048 C 
HETATM    2  C   UNL     1     -45.339  61.544 -54.175  1.00  0.00    -0.061 A 
HETATM    3  C   UNL     1     -44.505  60.413 -54.208  1.00  0.00     0.019 A 
HETATM    4  C   UNL     1     -43.520  60.284 -53.238  1.00  0.00     0.016 A 
HETATM    5  C   UNL     1     -43.385  61.266 -52.251  1.00  0.00     0.044 A 
HETATM    6  N   UNL     1     -42.368  60.938 -51.370  1.00  0.00    -0.324 N 
HETATM    7  C   UNL     1     -41.773  59.742 -51.720  1.00  0.00     0.264 A 
HETATM    8  O   UNL     1     -40.882  59.169 -51.113  1.00  0.00    -0.270 OA
HETATM    9  C   UNL     1     -42.531  59.178 -52.979  1.00  0.00     0.250 A 
HETATM   10  N   UNL     1     -43.248  57.867 -52.663  1.00  0.00    -0.043 N 
HETATM   11  H   UNL     1     -43.963  57.732 -53.391  1.00  0.00     0.282 HD
HETATM   12  C   UNL     1     -42.195  56.802 -52.771  1.00  0.00     0.204 C 
HETATM   13  C   UNL     1     -43.023  55.565 -52.516  1.00  0.00     0.036 C 
HETATM   14  C   UNL     1     -43.966  56.024 -51.380  1.00  0.00     0.030 C 
HETATM   15  C   UNL     1     -43.945  57.563 -51.377  1.00  0.00     0.237 C 
HETATM   16  C   UNL     1     -41.449  57.191 -54.018  1.00  0.00     0.126 C 
HETATM   17  C   UNL     1     -41.463  58.735 -54.019  1.00  0.00     0.145 C 
HETATM   18  C   UNL     1     -41.789  59.086 -55.441  1.00  0.00     0.239 C 
HETATM   19  O   UNL     1     -41.818  60.246 -55.821  1.00  0.00    -0.272 OA
HETATM   20  N   UNL     1     -42.178  57.938 -56.097  1.00  0.00    -0.249 N 
HETATM   21  C   UNL     1     -42.156  56.832 -55.288  1.00  0.00     0.238 C 
HETATM   22  O   UNL     1     -42.627  55.725 -55.490  1.00  0.00    -0.272 OA
HETATM   23  C   UNL     1     -44.189  62.384 -52.188  1.00  0.00     0.031 A 
HETATM   24  C   UNL     1     -45.175  62.517 -53.166  1.00  0.00     0.009 A 
HETATM   25  H   UNL     1     -42.075  61.503 -50.581  1.00  0.00     0.169 HD
ENDROOT
BRANCH  20  26
HETATM   26  C   UNL     1     -42.730  57.941 -57.404  1.00  0.00     0.078 A 
HETATM   27  C   UNL     1     -44.125  57.903 -57.603  1.00  0.00     0.095 A 
HETATM   28  C   UNL     1     -44.635  57.838 -58.905  1.00  0.00     0.039 A 
HETATM   29  C   UNL     1     -43.775  57.861 -60.005  1.00  0.00     0.003 A 
HETATM   30  C   UNL     1     -42.401  57.964 -59.814  1.00  0.00     0.002 A 
HETATM   31  C   UNL     1     -41.882  58.010 -58.521  1.00  0.00     0.033 A 
BRANCH  27  32
HETATM   32  O   UNL     1     -44.911  58.007 -56.482  1.00  0.00    -0.354 OA
HETATM   33  C   UNL     1     -46.296  58.262 -56.702  1.00  0.00     0.210 C 
ENDBRANCH  27  32
ENDBRANCH  20  26
TORSDOF 2
ENDMDL
MODEL 10
REMARK VINA RESULT:      -6.8      4.010      8.491
REMARK  2 active torsions:
REMARK  status: ('A' for Active; 'I' for Inactive)
REMARK    1  A    between atoms: N_20  and  C_21 
REMARK    2  A    between atoms: C_22  and  O_23 
ROOT
HETATM    1  C   UNL     1     -44.051  58.246 -53.438  1.00  0.00     0.048 C 
HETATM    2  C   UNL     1     -43.676  57.547 -54.715  1.00  0.00    -0.061 A 
HETATM    3  C   UNL     1     -43.764  58.213 -55.950  1.00  0.00     0.019 A 
HETATM    4  C   UNL     1     -43.364  57.542 -57.098  1.00  0.00     0.016 A 
HETATM    5  C   UNL     1     -42.895  56.227 -57.005  1.00  0.00     0.044 A 
HETATM    6  N   UNL     1     -42.574  55.733 -58.258  1.00  0.00    -0.324 N 
HETATM    7  C   UNL     1     -42.800  56.678 -59.240  1.00  0.00     0.264 A 
HETATM    8  O   UNL     1     -42.657  56.526 -60.441  1.00  0.00    -0.270 OA
HETATM    9  C   UNL     1     -43.396  57.959 -58.545  1.00  0.00     0.250 A 
HETATM   10  N   UNL     1     -44.827  58.232 -59.003  1.00  0.00    -0.043 N 
HETATM   11  H   UNL     1     -45.256  58.849 -58.299  1.00  0.00     0.282 HD
HETATM   12  C   UNL     1     -44.695  58.956 -60.312  1.00  0.00     0.204 C 
HETATM   13  C   UNL     1     -46.146  59.234 -60.624  1.00  0.00     0.036 C 
HETATM   14  C   UNL     1     -46.837  57.919 -60.196  1.00  0.00     0.030 C 
HETATM   15  C   UNL     1     -45.854  57.180 -59.269  1.00  0.00     0.237 C 
HETATM   16  C   UNL     1     -43.587  59.938 -60.043  1.00  0.00     0.126 C 
HETATM   17  C   UNL     1     -42.628  59.197 -59.087  1.00  0.00     0.145 C 
HETATM   18  C   UNL     1     -42.290  60.229 -58.052  1.00  0.00     0.239 C 
HETATM   19  O   UNL     1     -41.487  60.000 -57.161  1.00  0.00    -0.272 OA
HETATM   20  N   UNL     1     -43.133  61.307 -58.217  1.00  0.00    -0.249 N 
HETATM   21  C   UNL     1     -44.015  61.135 -59.252  1.00  0.00     0.238 C 
HETATM   22  O   UNL     1     -45.007  61.789 -59.530  1.00  0.00    -0.272 OA
HETATM   23  C   UNL     1     -42.801  55.545 -55.811  1.00  0.00     0.031 A 
HETATM   24  C   UNL     1     -43.197  56.221 -54.657  1.00  0.00     0.009 A 
HETATM   25  H   UNL     1     -42.201  54.808 -58.443  1.00  0.00     0.169 HD
ENDROOT
BRANCH  20  26
HETATM   26  C   UNL     1     -43.210  62.380 -57.293  1.00  0.00     0.078 A 
HETATM   27  C   UNL     1     -42.479  63.567 -57.496  1.00  0.00     0.095 A 
HETATM   28  C   UNL     1     -42.523  64.580 -56.530  1.00  0.00     0.039 A 
HETATM   29  C   UNL     1     -43.325  64.441 -55.395  1.00  0.00     0.003 A 
HETATM   30  C   UNL     1     -44.098  63.298 -55.223  1.00  0.00     0.002 A 
HETATM   31  C   UNL     1     -44.047  62.276 -56.169  1.00  0.00     0.033 A 
BRANCH  27  32
HETATM   32  O   UNL     1     -41.812  63.683 -58.690  1.00  0.00    -0.354 OA
HETATM   33  C   UNL     1     -40.389  63.611 -58.629  1.00  0.00     0.210 C 
ENDBRANCH  27  32
ENDBRANCH  20  26
TORSDOF 2
ENDMDL
