MODEL 1
REMARK VINA RESULT:      -9.7      0.000      0.000
REMARK  8 active torsions:
REMARK  status: ('A' for Active; 'I' for Inactive)
REMARK    1  A    between atoms: C_4  and  C_5 
REMARK    2  A    between atoms: C_5  and  N_6 
REMARK    3  A    between atoms: C_5  and  C_36 
REMARK    4  A    between atoms: N_10  and  C_11 
REMARK    5  A    between atoms: C_13  and  C_14 
REMARK       I    between atoms: C_14  and  N_15 
REMARK    6  A    between atoms: N_15  and  C_16 
REMARK    7  A    between atoms: C_19  and  O_20 
REMARK    8  A    between atoms: O_20  and  C_21 
ROOT
HETATM    1  C   UNL     1     -44.092  60.378 -53.183  1.00  0.00     0.181 C 
HETATM    2  N   UNL     1     -44.933  59.719 -52.354  1.00  0.00    -0.351 N 
HETATM    3  C   UNL     1     -44.366  59.070 -51.181  1.00  0.00     0.185 C 
HETATM    4  C   UNL     1     -43.351  59.999 -50.555  1.00  0.00     0.140 C 
HETATM    5  C   UNL     1     -42.423  60.532 -51.618  1.00  0.00     0.248 C 
HETATM    6  O   UNL     1     -41.253  60.778 -51.333  1.00  0.00    -0.271 OA
HETATM    7  N   UNL     1     -42.916  60.800 -52.873  1.00  0.00    -0.185 NA
HETATM    8  H   UNL     1     -45.656  59.184 -52.827  1.00  0.00     0.163 HD
ENDROOT
BRANCH   1   9
HETATM    9  N   UNL     1     -44.617  60.517 -54.449  1.00  0.00    -0.250 NA
HETATM   10  C   UNL     1     -45.514  59.413 -54.875  1.00  0.00     0.126 C 
HETATM   11  C   UNL     1     -44.699  58.159 -55.261  1.00  0.00     0.251 C 
HETATM   12  N   UNL     1     -43.732  58.509 -56.397  1.00  0.00    -0.057 N 
HETATM   13  H   UNL     1     -44.305  58.865 -57.167  1.00  0.00     0.281 HD
HETATM   14  C   UNL     1     -42.825  59.672 -56.007  1.00  0.00     0.251 C 
HETATM   15  C   UNL     1     -43.662  60.880 -55.527  1.00  0.00     0.126 C 
BRANCH  12  16
HETATM   16  C   UNL     1     -43.034  57.280 -56.983  1.00  0.00     0.254 C 
BRANCH  16  17
HETATM   17  C   UNL     1     -43.688  56.656 -58.215  1.00  0.00    -0.023 A 
HETATM   18  C   UNL     1     -44.876  57.224 -58.717  1.00  0.00     0.009 A 
HETATM   19  C   UNL     1     -45.538  56.669 -59.815  1.00  0.00     0.001 A 
HETATM   20  C   UNL     1     -45.026  55.537 -60.438  1.00  0.00     0.000 A 
HETATM   21  C   UNL     1     -43.849  54.966 -59.971  1.00  0.00     0.001 A 
HETATM   22  C   UNL     1     -43.183  55.523 -58.875  1.00  0.00     0.009 A 
ENDBRANCH  16  17
BRANCH  16  23
HETATM   23  C   UNL     1     -42.532  56.342 -55.885  1.00  0.00    -0.023 A 
HETATM   24  C   UNL     1     -43.215  55.124 -55.677  1.00  0.00     0.009 A 
HETATM   25  C   UNL     1     -42.780  54.203 -54.722  1.00  0.00     0.001 A 
HETATM   26  C   UNL     1     -41.653  54.480 -53.955  1.00  0.00     0.000 A 
HETATM   27  C   UNL     1     -40.967  55.675 -54.141  1.00  0.00     0.001 A 
HETATM   28  C   UNL     1     -41.400  56.599 -55.098  1.00  0.00     0.009 A 
ENDBRANCH  16  23
ENDBRANCH  12  16
ENDBRANCH   1   9
BRANCH   3  29
HETATM   29  C   UNL     1     -43.764  57.691 -51.552  1.00  0.00     0.245 C 
HETATM   30  N   UNL     1     -42.787  57.269 -50.662  1.00  0.00    -0.325 N 
HETATM   31  H   UNL     1     -42.480  57.922 -49.950  1.00  0.00     0.169 HD
HETATM   32  O   UNL     1     -44.177  57.061 -52.526  1.00  0.00    -0.271 OA
BRANCH  30  33
HETATM   33  C   UNL     1     -42.173  55.997 -50.602  1.00  0.00     0.035 A 
HETATM   34  C   UNL     1     -42.873  54.789 -50.651  1.00  0.00     0.032 A 
HETATM   35  C   UNL     1     -42.194  53.572 -50.533  1.00  0.00     0.039 A 
HETATM   36  C   UNL     1     -40.809  53.553 -50.387  1.00  0.00     0.076 A 
HETATM   37  C   UNL     1     -40.100  54.750 -50.323  1.00  0.00     0.039 A 
HETATM   38  C   UNL     1     -40.780  55.967 -50.437  1.00  0.00     0.032 A 
BRANCH  36  39
HETATM   39  O   UNL     1     -40.212  52.327 -50.215  1.00  0.00    -0.311 OA
BRANCH  39  40
HETATM   40  C   UNL     1     -39.945  51.576 -51.338  1.00  0.00     0.076 A 
HETATM   41  C   UNL     1     -39.821  50.198 -51.149  1.00  0.00     0.037 A 
HETATM   42  C   UNL     1     -39.602  49.360 -52.242  1.00  0.00     0.003 A 
HETATM   43  C   UNL     1     -39.518  49.896 -53.525  1.00  0.00     0.000 A 
HETATM   44  C   UNL     1     -39.662  51.270 -53.719  1.00  0.00     0.003 A 
HETATM   45  C   UNL     1     -39.885  52.112 -52.628  1.00  0.00     0.037 A 
ENDBRANCH  39  40
ENDBRANCH  36  39
ENDBRANCH  30  33
ENDBRANCH   3  29
TORSDOF 8
ENDMDL
MODEL 2
REMARK VINA RESULT:      -9.4      1.517      1.963
REMARK  8 active torsions:
REMARK  status: ('A' for Active; 'I' for Inactive)
REMARK    1  A    between atoms: C_4  and  C_5 
REMARK    2  A    between atoms: C_5  and  N_6 
REMARK    3  A    between atoms: C_5  and  C_36 
REMARK    4  A    between atoms: N_10  and  C_11 
REMARK    5  A    between atoms: C_13  and  C_14 
REMARK       I    between atoms: C_14  and  N_15 
REMARK    6  A    between atoms: N_15  and  C_16 
REMARK    7  A    between atoms: C_19  and  O_20 
REMARK    8  A    between atoms: O_20  and  C_21 
ROOT
HETATM    1  C   UNL     1     -44.959  60.709 -52.719  1.00  0.00     0.181 C 
HETATM    2  N   UNL     1     -45.853  59.752 -52.381  1.00  0.00    -0.351 N 
HETATM    3  C   UNL     1     -45.521  58.869 -51.272  1.00  0.00     0.185 C 
HETATM    4  C   UNL     1     -44.924  59.695 -50.156  1.00  0.00     0.140 C 
HETATM    5  C   UNL     1     -43.858  60.608 -50.710  1.00  0.00     0.248 C 
HETATM    6  O   UNL     1     -42.886  60.896 -50.016  1.00  0.00    -0.271 OA
HETATM    7  N   UNL     1     -44.023  61.159 -51.958  1.00  0.00    -0.185 NA
HETATM    8  H   UNL     1     -46.296  59.291 -53.171  1.00  0.00     0.163 HD
ENDROOT
BRANCH   1   9
HETATM    9  N   UNL     1     -45.126  61.137 -54.018  1.00  0.00    -0.250 NA
HETATM   10  C   UNL     1     -45.637  60.102 -54.953  1.00  0.00     0.126 C 
HETATM   11  C   UNL     1     -44.519  59.107 -55.336  1.00  0.00     0.251 C 
HETATM   12  N   UNL     1     -43.361  59.868 -55.988  1.00  0.00    -0.057 N 
HETATM   13  H   UNL     1     -43.753  60.358 -56.797  1.00  0.00     0.281 HD
HETATM   14  C   UNL     1     -42.843  60.970 -55.070  1.00  0.00     0.251 C 
HETATM   15  C   UNL     1     -43.998  61.893 -54.618  1.00  0.00     0.126 C 
BRANCH  12  16
HETATM   16  C   UNL     1     -42.303  58.940 -56.588  1.00  0.00     0.254 C 
BRANCH  16  17
HETATM   17  C   UNL     1     -42.128  59.005 -58.104  1.00  0.00    -0.023 A 
HETATM   18  C   UNL     1     -42.029  60.267 -58.725  1.00  0.00     0.009 A 
HETATM   19  C   UNL     1     -41.910  60.386 -60.112  1.00  0.00     0.001 A 
HETATM   20  C   UNL     1     -41.882  59.248 -60.909  1.00  0.00     0.000 A 
HETATM   21  C   UNL     1     -41.964  57.991 -60.320  1.00  0.00     0.001 A 
HETATM   22  C   UNL     1     -42.079  57.871 -58.932  1.00  0.00     0.009 A 
ENDBRANCH  16  17
BRANCH  16  23
HETATM   23  C   UNL     1     -42.326  57.561 -55.928  1.00  0.00    -0.023 A 
HETATM   24  C   UNL     1     -41.523  57.347 -54.786  1.00  0.00     0.009 A 
HETATM   25  C   UNL     1     -41.533  56.126 -54.111  1.00  0.00     0.001 A 
HETATM   26  C   UNL     1     -42.347  55.092 -54.561  1.00  0.00     0.000 A 
HETATM   27  C   UNL     1     -43.145  55.278 -55.685  1.00  0.00     0.001 A 
HETATM   28  C   UNL     1     -43.137  56.502 -56.363  1.00  0.00     0.009 A 
ENDBRANCH  16  23
ENDBRANCH  12  16
ENDBRANCH   1   9
BRANCH   3  29
HETATM   29  C   UNL     1     -44.582  57.728 -51.739  1.00  0.00     0.245 C 
HETATM   30  N   UNL     1     -43.724  57.289 -50.741  1.00  0.00    -0.325 N 
HETATM   31  H   UNL     1     -43.702  57.810 -49.871  1.00  0.00     0.169 HD
HETATM   32  O   UNL     1     -44.662  57.269 -52.879  1.00  0.00    -0.271 OA
BRANCH  30  33
HETATM   33  C   UNL     1     -42.878  56.158 -50.773  1.00  0.00     0.035 A 
HETATM   34  C   UNL     1     -43.325  54.855 -51.007  1.00  0.00     0.032 A 
HETATM   35  C   UNL     1     -42.428  53.782 -50.971  1.00  0.00     0.039 A 
HETATM   36  C   UNL     1     -41.076  54.006 -50.724  1.00  0.00     0.076 A 
HETATM   37  C   UNL     1     -40.619  55.297 -50.476  1.00  0.00     0.039 A 
HETATM   38  C   UNL     1     -41.517  56.370 -50.508  1.00  0.00     0.032 A 
BRANCH  36  39
HETATM   39  O   UNL     1     -40.261  52.902 -50.642  1.00  0.00    -0.311 OA
BRANCH  39  40
HETATM   40  C   UNL     1     -40.059  52.163 -51.786  1.00  0.00     0.076 A 
HETATM   41  C   UNL     1     -39.715  50.821 -51.605  1.00  0.00     0.037 A 
HETATM   42  C   UNL     1     -39.543  49.989 -52.712  1.00  0.00     0.003 A 
HETATM   43  C   UNL     1     -39.726  50.494 -53.998  1.00  0.00     0.000 A 
HETATM   44  C   UNL     1     -40.090  51.829 -54.179  1.00  0.00     0.003 A 
HETATM   45  C   UNL     1     -40.266  52.663 -53.074  1.00  0.00     0.037 A 
ENDBRANCH  39  40
ENDBRANCH  36  39
ENDBRANCH  30  33
ENDBRANCH   3  29
TORSDOF 8
ENDMDL
MODEL 3
REMARK VINA RESULT:      -9.4      1.177      3.039
REMARK  8 active torsions:
REMARK  status: ('A' for Active; 'I' for Inactive)
REMARK    1  A    between atoms: C_4  and  C_5 
REMARK    2  A    between atoms: C_5  and  N_6 
REMARK    3  A    between atoms: C_5  and  C_36 
REMARK    4  A    between atoms: N_10  and  C_11 
REMARK    5  A    between atoms: C_13  and  C_14 
REMARK       I    between atoms: C_14  and  N_15 
REMARK    6  A    between atoms: N_15  and  C_16 
REMARK    7  A    between atoms: C_19  and  O_20 
REMARK    8  A    between atoms: O_20  and  C_21 
ROOT
HETATM    1  C   UNL     1     -44.563  60.619 -52.731  1.00  0.00     0.181 C 
HETATM    2  N   UNL     1     -45.515  59.676 -52.544  1.00  0.00    -0.351 N 
HETATM    3  C   UNL     1     -45.366  58.772 -51.413  1.00  0.00     0.185 C 
HETATM    4  C   UNL     1     -44.924  59.570 -50.207  1.00  0.00     0.140 C 
HETATM    5  C   UNL     1     -43.772  60.468 -50.584  1.00  0.00     0.248 C 
HETATM    6  O   UNL     1     -42.907  60.726 -49.750  1.00  0.00    -0.271 OA
HETATM    7  N   UNL     1     -43.741  61.039 -51.834  1.00  0.00    -0.185 NA
HETATM    8  H   UNL     1     -45.844  59.236 -53.398  1.00  0.00     0.163 HD
ENDROOT
BRANCH   1   9
HETATM    9  N   UNL     1     -44.529  61.068 -54.033  1.00  0.00    -0.250 NA
HETATM   10  C   UNL     1     -45.542  60.454 -54.929  1.00  0.00     0.126 C 
HETATM   11  C   UNL     1     -45.130  59.019 -55.325  1.00  0.00     0.251 C 
HETATM   12  N   UNL     1     -43.770  59.055 -56.029  1.00  0.00    -0.057 N 
HETATM   13  H   UNL     1     -43.876  59.676 -56.836  1.00  0.00     0.281 HD
HETATM   14  C   UNL     1     -42.716  59.721 -55.151  1.00  0.00     0.251 C 
HETATM   15  C   UNL     1     -43.195  61.115 -54.684  1.00  0.00     0.126 C 
BRANCH  12  16
HETATM   16  C   UNL     1     -43.382  57.708 -56.641  1.00  0.00     0.254 C 
BRANCH  16  17
HETATM   17  C   UNL     1     -42.693  56.714 -55.707  1.00  0.00    -0.023 A 
HETATM   18  C   UNL     1     -43.242  55.423 -55.562  1.00  0.00     0.009 A 
HETATM   19  C   UNL     1     -42.676  54.489 -54.690  1.00  0.00     0.001 A 
HETATM   20  C   UNL     1     -41.550  54.822 -53.947  1.00  0.00     0.000 A 
HETATM   21  C   UNL     1     -40.982  56.083 -54.083  1.00  0.00     0.001 A 
HETATM   22  C   UNL     1     -41.543  57.017 -54.957  1.00  0.00     0.009 A 
ENDBRANCH  16  17
BRANCH  16  23
HETATM   23  C   UNL     1     -42.818  57.873 -58.052  1.00  0.00    -0.023 A 
HETATM   24  C   UNL     1     -42.647  56.719 -58.848  1.00  0.00     0.009 A 
HETATM   25  C   UNL     1     -42.179  56.807 -60.160  1.00  0.00     0.001 A 
HETATM   26  C   UNL     1     -41.874  58.049 -60.706  1.00  0.00     0.000 A 
HETATM   27  C   UNL     1     -42.032  59.199 -59.940  1.00  0.00     0.001 A 
HETATM   28  C   UNL     1     -42.501  59.114 -58.625  1.00  0.00     0.009 A 
ENDBRANCH  16  23
ENDBRANCH  12  16
ENDBRANCH   1   9
BRANCH   3  29
HETATM   29  C   UNL     1     -44.389  57.618 -51.755  1.00  0.00     0.245 C 
HETATM   30  N   UNL     1     -43.627  57.212 -50.669  1.00  0.00    -0.325 N 
HETATM   31  H   UNL     1     -43.685  57.760 -49.818  1.00  0.00     0.169 HD
HETATM   32  O   UNL     1     -44.364  57.123 -52.883  1.00  0.00    -0.271 OA
BRANCH  30  33
HETATM   33  C   UNL     1     -42.784  56.081 -50.588  1.00  0.00     0.035 A 
HETATM   34  C   UNL     1     -43.237  54.761 -50.662  1.00  0.00     0.032 A 
HETATM   35  C   UNL     1     -42.341  53.696 -50.521  1.00  0.00     0.039 A 
HETATM   36  C   UNL     1     -40.984  53.942 -50.327  1.00  0.00     0.076 A 
HETATM   37  C   UNL     1     -40.520  55.252 -50.238  1.00  0.00     0.039 A 
HETATM   38  C   UNL     1     -41.417  56.317 -50.375  1.00  0.00     0.032 A 
BRANCH  36  39
HETATM   39  O   UNL     1     -40.169  52.852 -50.135  1.00  0.00    -0.311 OA
BRANCH  39  40
HETATM   40  C   UNL     1     -39.964  52.005 -51.201  1.00  0.00     0.076 A 
HETATM   41  C   UNL     1     -39.850  50.646 -50.899  1.00  0.00     0.037 A 
HETATM   42  C   UNL     1     -39.692  49.714 -51.926  1.00  0.00     0.003 A 
HETATM   43  C   UNL     1     -39.659  50.138 -53.253  1.00  0.00     0.000 A 
HETATM   44  C   UNL     1     -39.793  51.493 -53.556  1.00  0.00     0.003 A 
HETATM   45  C   UNL     1     -39.954  52.428 -52.533  1.00  0.00     0.037 A 
ENDBRANCH  39  40
ENDBRANCH  36  39
ENDBRANCH  30  33
ENDBRANCH   3  29
TORSDOF 8
ENDMDL
MODEL 4
REMARK VINA RESULT:      -8.9      2.261      5.860
REMARK  8 active torsions:
REMARK  status: ('A' for Active; 'I' for Inactive)
REMARK    1  A    between atoms: C_4  and  C_5 
REMARK    2  A    between atoms: C_5  and  N_6 
REMARK    3  A    between atoms: C_5  and  C_36 
REMARK    4  A    between atoms: N_10  and  C_11 
REMARK    5  A    between atoms: C_13  and  C_14 
REMARK       I    between atoms: C_14  and  N_15 
REMARK    6  A    between atoms: N_15  and  C_16 
REMARK    7  A    between atoms: C_19  and  O_20 
REMARK    8  A    between atoms: O_20  and  C_21 
ROOT
HETATM    1  C   UNL     1     -44.290  59.567 -58.051  1.00  0.00     0.181 C 
HETATM    2  N   UNL     1     -43.387  58.659 -58.489  1.00  0.00    -0.351 N 
HETATM    3  C   UNL     1     -43.733  57.249 -58.387  1.00  0.00     0.185 C 
HETATM    4  C   UNL     1     -45.171  57.069 -58.815  1.00  0.00     0.140 C 
HETATM    5  C   UNL     1     -46.042  58.088 -58.124  1.00  0.00     0.248 C 
HETATM    6  O   UNL     1     -47.200  57.798 -57.833  1.00  0.00    -0.271 OA
HETATM    7  N   UNL     1     -45.549  59.350 -57.889  1.00  0.00    -0.185 NA
HETATM    8  H   UNL     1     -42.423  58.878 -58.253  1.00  0.00     0.163 HD
ENDROOT
BRANCH   1   9
HETATM    9  N   UNL     1     -43.702  60.773 -57.741  1.00  0.00    -0.250 NA
HETATM   10  C   UNL     1     -42.268  60.688 -57.364  1.00  0.00     0.126 C 
HETATM   11  C   UNL     1     -42.110  60.147 -55.925  1.00  0.00     0.251 C 
HETATM   12  N   UNL     1     -42.849  61.068 -54.950  1.00  0.00    -0.057 N 
HETATM   13  H   UNL     1     -42.448  62.002 -55.070  1.00  0.00     0.281 HD
HETATM   14  C   UNL     1     -44.317  61.212 -55.337  1.00  0.00     0.251 C 
HETATM   15  C   UNL     1     -44.451  61.657 -56.812  1.00  0.00     0.126 C 
BRANCH  12  16
HETATM   16  C   UNL     1     -42.571  60.726 -53.484  1.00  0.00     0.254 C 
BRANCH  16  17
HETATM   17  C   UNL     1     -42.965  59.322 -53.031  1.00  0.00    -0.023 A 
HETATM   18  C   UNL     1     -41.949  58.377 -52.781  1.00  0.00     0.009 A 
HETATM   19  C   UNL     1     -42.254  57.066 -52.404  1.00  0.00     0.001 A 
HETATM   20  C   UNL     1     -43.579  56.672 -52.265  1.00  0.00     0.000 A 
HETATM   21  C   UNL     1     -44.599  57.588 -52.492  1.00  0.00     0.001 A 
HETATM   22  C   UNL     1     -44.295  58.901 -52.865  1.00  0.00     0.009 A 
ENDBRANCH  16  17
BRANCH  16  23
HETATM   23  C   UNL     1     -42.907  61.898 -52.561  1.00  0.00    -0.023 A 
HETATM   24  C   UNL     1     -42.968  61.662 -51.170  1.00  0.00     0.009 A 
HETATM   25  C   UNL     1     -43.225  62.698 -50.270  1.00  0.00     0.001 A 
HETATM   26  C   UNL     1     -43.426  63.991 -50.740  1.00  0.00     0.000 A 
HETATM   27  C   UNL     1     -43.373  64.246 -52.107  1.00  0.00     0.001 A 
HETATM   28  C   UNL     1     -43.115  63.210 -53.011  1.00  0.00     0.009 A 
ENDBRANCH  16  23
ENDBRANCH  12  16
ENDBRANCH   1   9
BRANCH   3  29
HETATM   29  C   UNL     1     -43.466  56.720 -56.954  1.00  0.00     0.245 C 
HETATM   30  N   UNL     1     -42.675  55.580 -56.936  1.00  0.00    -0.325 N 
HETATM   31  H   UNL     1     -42.452  55.143 -57.823  1.00  0.00     0.169 HD
HETATM   32  O   UNL     1     -43.902  57.314 -55.968  1.00  0.00    -0.271 OA
BRANCH  30  33
HETATM   33  C   UNL     1     -42.099  54.954 -55.808  1.00  0.00     0.035 A 
HETATM   34  C   UNL     1     -42.798  54.116 -54.936  1.00  0.00     0.032 A 
HETATM   35  C   UNL     1     -42.165  53.577 -53.811  1.00  0.00     0.039 A 
HETATM   36  C   UNL     1     -40.823  53.854 -53.562  1.00  0.00     0.076 A 
HETATM   37  C   UNL     1     -40.117  54.698 -54.414  1.00  0.00     0.039 A 
HETATM   38  C   UNL     1     -40.752  55.241 -55.537  1.00  0.00     0.032 A 
BRANCH  36  39
HETATM   39  O   UNL     1     -40.280  53.342 -52.407  1.00  0.00    -0.311 OA
BRANCH  39  40
HETATM   40  C   UNL     1     -39.992  51.996 -52.372  1.00  0.00     0.076 A 
HETATM   41  C   UNL     1     -39.931  51.408 -51.107  1.00  0.00     0.037 A 
HETATM   42  C   UNL     1     -39.694  50.038 -50.984  1.00  0.00     0.003 A 
HETATM   43  C   UNL     1     -39.531  49.255 -52.125  1.00  0.00     0.000 A 
HETATM   44  C   UNL     1     -39.612  49.837 -53.390  1.00  0.00     0.003 A 
HETATM   45  C   UNL     1     -39.851  51.206 -53.516  1.00  0.00     0.037 A 
ENDBRANCH  39  40
ENDBRANCH  36  39
ENDBRANCH  30  33
ENDBRANCH   3  29
TORSDOF 8
ENDMDL
MODEL 5
REMARK VINA RESULT:      -8.9      2.541      4.128
REMARK  8 active torsions:
REMARK  status: ('A' for Active; 'I' for Inactive)
REMARK    1  A    between atoms: C_4  and  C_5 
REMARK    2  A    between atoms: C_5  and  N_6 
REMARK    3  A    between atoms: C_5  and  C_36 
REMARK    4  A    between atoms: N_10  and  C_11 
REMARK    5  A    between atoms: C_13  and  C_14 
REMARK       I    between atoms: C_14  and  N_15 
REMARK    6  A    between atoms: N_15  and  C_16 
REMARK    7  A    between atoms: C_19  and  O_20 
REMARK    8  A    between atoms: O_20  and  C_21 
ROOT
HETATM    1  C   UNL     1     -44.506  60.687 -53.853  1.00  0.00     0.181 C 
HETATM    2  N   UNL     1     -45.396  59.739 -53.479  1.00  0.00    -0.351 N 
HETATM    3  C   UNL     1     -44.913  58.634 -52.664  1.00  0.00     0.185 C 
HETATM    4  C   UNL     1     -43.984  59.180 -51.604  1.00  0.00     0.140 C 
HETATM    5  C   UNL     1     -42.984  60.117 -52.236  1.00  0.00     0.248 C 
HETATM    6  O   UNL     1     -41.851  60.198 -51.767  1.00  0.00    -0.271 OA
HETATM    7  N   UNL     1     -43.374  60.915 -53.284  1.00  0.00    -0.185 NA
HETATM    8  H   UNL     1     -46.058  59.475 -54.202  1.00  0.00     0.163 HD
ENDROOT
BRANCH   1   9
HETATM    9  N   UNL     1     -44.923  61.375 -54.971  1.00  0.00    -0.250 NA
HETATM   10  C   UNL     1     -45.444  60.521 -56.070  1.00  0.00     0.126 C 
HETATM   11  C   UNL     1     -44.287  59.830 -56.825  1.00  0.00     0.251 C 
HETATM   12  N   UNL     1     -43.345  60.894 -57.397  1.00  0.00    -0.057 N 
HETATM   13  H   UNL     1     -43.915  61.492 -58.002  1.00  0.00     0.281 HD
HETATM   14  C   UNL     1     -42.828  61.817 -56.299  1.00  0.00     0.251 C 
HETATM   15  C   UNL     1     -44.002  62.417 -55.492  1.00  0.00     0.126 C 
BRANCH  12  16
HETATM   16  C   UNL     1     -42.288  60.309 -58.337  1.00  0.00     0.254 C 
BRANCH  16  17
HETATM   17  C   UNL     1     -41.452  61.315 -59.124  1.00  0.00    -0.023 A 
HETATM   18  C   UNL     1     -41.791  61.579 -60.467  1.00  0.00     0.009 A 
HETATM   19  C   UNL     1     -41.035  62.459 -61.246  1.00  0.00     0.001 A 
HETATM   20  C   UNL     1     -39.927  63.097 -60.702  1.00  0.00     0.000 A 
HETATM   21  C   UNL     1     -39.581  62.865 -59.376  1.00  0.00     0.001 A 
HETATM   22  C   UNL     1     -40.338  61.988 -58.594  1.00  0.00     0.009 A 
ENDBRANCH  16  17
BRANCH  16  23
HETATM   23  C   UNL     1     -42.815  59.079 -59.078  1.00  0.00    -0.023 A 
HETATM   24  C   UNL     1     -42.029  57.906 -59.078  1.00  0.00     0.009 A 
HETATM   25  C   UNL     1     -42.473  56.736 -59.697  1.00  0.00     0.001 A 
HETATM   26  C   UNL     1     -43.712  56.714 -60.328  1.00  0.00     0.000 A 
HETATM   27  C   UNL     1     -44.502  57.859 -60.344  1.00  0.00     0.001 A 
HETATM   28  C   UNL     1     -44.060  59.032 -59.723  1.00  0.00     0.009 A 
ENDBRANCH  16  23
ENDBRANCH  12  16
ENDBRANCH   1   9
BRANCH   3  29
HETATM   29  C   UNL     1     -44.240  57.552 -53.548  1.00  0.00     0.245 C 
HETATM   30  N   UNL     1     -43.105  57.007 -52.966  1.00  0.00    -0.325 N 
HETATM   31  H   UNL     1     -42.761  57.427 -52.110  1.00  0.00     0.169 HD
HETATM   32  O   UNL     1     -44.730  57.222 -54.628  1.00  0.00    -0.271 OA
BRANCH  30  33
HETATM   33  C   UNL     1     -42.367  55.886 -53.411  1.00  0.00     0.035 A 
HETATM   34  C   UNL     1     -42.710  54.562 -53.127  1.00  0.00     0.032 A 
HETATM   35  C   UNL     1     -41.896  53.511 -53.563  1.00  0.00     0.039 A 
HETATM   36  C   UNL     1     -40.747  53.774 -54.303  1.00  0.00     0.076 A 
HETATM   37  C   UNL     1     -40.385  55.090 -54.582  1.00  0.00     0.039 A 
HETATM   38  C   UNL     1     -41.197  56.141 -54.143  1.00  0.00     0.032 A 
BRANCH  36  39
HETATM   39  O   UNL     1     -39.961  52.700 -54.647  1.00  0.00    -0.311 OA
BRANCH  39  40
HETATM   40  C   UNL     1     -39.790  51.701 -53.715  1.00  0.00     0.076 A 
HETATM   41  C   UNL     1     -39.658  52.110 -52.385  1.00  0.00     0.037 A 
HETATM   42  C   UNL     1     -39.533  51.159 -51.372  1.00  0.00     0.003 A 
HETATM   43  C   UNL     1     -39.552  49.801 -51.685  1.00  0.00     0.000 A 
HETATM   44  C   UNL     1     -39.704  49.391 -53.010  1.00  0.00     0.003 A 
HETATM   45  C   UNL     1     -39.832  50.340 -54.026  1.00  0.00     0.037 A 
ENDBRANCH  39  40
ENDBRANCH  36  39
ENDBRANCH  30  33
ENDBRANCH   3  29
TORSDOF 8
ENDMDL
MODEL 6
REMARK VINA RESULT:      -8.8      2.709      8.328
REMARK  8 active torsions:
REMARK  status: ('A' for Active; 'I' for Inactive)
REMARK    1  A    between atoms: C_4  and  C_5 
REMARK    2  A    between atoms: C_5  and  N_6 
REMARK    3  A    between atoms: C_5  and  C_36 
REMARK    4  A    between atoms: N_10  and  C_11 
REMARK    5  A    between atoms: C_13  and  C_14 
REMARK       I    between atoms: C_14  and  N_15 
REMARK    6  A    between atoms: N_15  and  C_16 
REMARK    7  A    between atoms: C_19  and  O_20 
REMARK    8  A    between atoms: O_20  and  C_21 
ROOT
HETATM    1  C   UNL     1     -43.113  56.621 -56.353  1.00  0.00     0.181 C 
HETATM    2  N   UNL     1     -44.377  56.725 -55.884  1.00  0.00    -0.351 N 
HETATM    3  C   UNL     1     -45.027  58.025 -55.954  1.00  0.00     0.185 C 
HETATM    4  C   UNL     1     -44.725  58.647 -57.298  1.00  0.00     0.140 C 
HETATM    5  C   UNL     1     -43.248  58.550 -57.586  1.00  0.00     0.248 C 
HETATM    6  O   UNL     1     -42.698  59.434 -58.239  1.00  0.00    -0.271 OA
HETATM    7  N   UNL     1     -42.550  57.440 -57.172  1.00  0.00    -0.185 NA
HETATM    8  H   UNL     1     -44.551  56.210 -55.026  1.00  0.00     0.163 HD
ENDROOT
BRANCH   1   9
HETATM    9  N   UNL     1     -42.448  55.542 -55.813  1.00  0.00    -0.250 NA
HETATM   10  C   UNL     1     -43.271  54.688 -54.919  1.00  0.00     0.126 C 
HETATM   11  C   UNL     1     -43.469  55.361 -53.543  1.00  0.00     0.251 C 
HETATM   12  N   UNL     1     -42.102  55.617 -52.900  1.00  0.00    -0.057 N 
HETATM   13  H   UNL     1     -41.635  54.708 -52.836  1.00  0.00     0.281 HD
HETATM   14  C   UNL     1     -41.215  56.456 -53.814  1.00  0.00     0.251 C 
HETATM   15  C   UNL     1     -41.115  55.815 -55.217  1.00  0.00     0.126 C 
BRANCH  12  16
HETATM   16  C   UNL     1     -42.208  56.088 -51.448  1.00  0.00     0.254 C 
BRANCH  16  17
HETATM   17  C   UNL     1     -41.968  57.576 -51.201  1.00  0.00    -0.023 A 
HETATM   18  C   UNL     1     -40.654  58.022 -50.948  1.00  0.00     0.009 A 
HETATM   19  C   UNL     1     -40.383  59.365 -50.676  1.00  0.00     0.001 A 
HETATM   20  C   UNL     1     -41.417  60.293 -50.651  1.00  0.00     0.000 A 
HETATM   21  C   UNL     1     -42.719  59.882 -50.911  1.00  0.00     0.001 A 
HETATM   22  C   UNL     1     -42.991  58.540 -51.189  1.00  0.00     0.009 A 
ENDBRANCH  16  17
BRANCH  16  23
HETATM   23  C   UNL     1     -41.565  55.090 -50.485  1.00  0.00    -0.023 A 
HETATM   24  C   UNL     1     -41.068  53.876 -51.008  1.00  0.00     0.009 A 
HETATM   25  C   UNL     1     -40.429  52.942 -50.190  1.00  0.00     0.001 A 
HETATM   26  C   UNL     1     -40.273  53.201 -48.833  1.00  0.00     0.000 A 
HETATM   27  C   UNL     1     -40.757  54.389 -48.295  1.00  0.00     0.001 A 
HETATM   28  C   UNL     1     -41.396  55.327 -49.113  1.00  0.00     0.009 A 
ENDBRANCH  16  23
ENDBRANCH  12  16
ENDBRANCH   1   9
BRANCH   3  29
HETATM   29  C   UNL     1     -44.589  58.924 -54.769  1.00  0.00     0.245 C 
HETATM   30  N   UNL     1     -45.539  59.877 -54.432  1.00  0.00    -0.325 N 
HETATM   31  H   UNL     1     -46.345  59.979 -55.038  1.00  0.00     0.169 HD
HETATM   32  O   UNL     1     -43.515  58.738 -54.196  1.00  0.00    -0.271 OA
BRANCH  30  33
HETATM   33  C   UNL     1     -45.539  60.724 -53.300  1.00  0.00     0.035 A 
HETATM   34  C   UNL     1     -44.854  61.940 -53.234  1.00  0.00     0.032 A 
HETATM   35  C   UNL     1     -44.864  62.695 -52.056  1.00  0.00     0.039 A 
HETATM   36  C   UNL     1     -45.577  62.251 -50.945  1.00  0.00     0.076 A 
HETATM   37  C   UNL     1     -46.252  61.035 -50.992  1.00  0.00     0.039 A 
HETATM   38  C   UNL     1     -46.239  60.278 -52.169  1.00  0.00     0.032 A 
BRANCH  36  39
HETATM   39  O   UNL     1     -45.494  63.010 -49.802  1.00  0.00    -0.311 OA
BRANCH  39  40
HETATM   40  C   UNL     1     -45.712  62.385 -48.595  1.00  0.00     0.076 A 
HETATM   41  C   UNL     1     -44.638  61.667 -48.065  1.00  0.00     0.037 A 
HETATM   42  C   UNL     1     -44.758  61.045 -46.822  1.00  0.00     0.003 A 
HETATM   43  C   UNL     1     -45.947  61.151 -46.103  1.00  0.00     0.000 A 
HETATM   44  C   UNL     1     -47.014  61.885 -46.621  1.00  0.00     0.003 A 
HETATM   45  C   UNL     1     -46.896  62.510 -47.863  1.00  0.00     0.037 A 
ENDBRANCH  39  40
ENDBRANCH  36  39
ENDBRANCH  30  33
ENDBRANCH   3  29
TORSDOF 8
ENDMDL
MODEL 7
REMARK VINA RESULT:      -8.8      2.473      6.232
REMARK  8 active torsions:
REMARK  status: ('A' for Active; 'I' for Inactive)
REMARK    1  A    between atoms: C_4  and  C_5 
REMARK    2  A    between atoms: C_5  and  N_6 
REMARK    3  A    between atoms: C_5  and  C_36 
REMARK    4  A    between atoms: N_10  and  C_11 
REMARK    5  A    between atoms: C_13  and  C_14 
REMARK       I    between atoms: C_14  and  N_15 
REMARK    6  A    between atoms: N_15  and  C_16 
REMARK    7  A    between atoms: C_19  and  O_20 
REMARK    8  A    between atoms: O_20  and  C_21 
ROOT
HETATM    1  C   UNL     1     -44.122  59.607 -58.447  1.00  0.00     0.181 C 
HETATM    2  N   UNL     1     -43.128  58.751 -58.778  1.00  0.00    -0.351 N 
HETATM    3  C   UNL     1     -43.390  57.324 -58.661  1.00  0.00     0.185 C 
HETATM    4  C   UNL     1     -44.771  57.037 -59.203  1.00  0.00     0.140 C 
HETATM    5  C   UNL     1     -45.762  58.014 -58.619  1.00  0.00     0.248 C 
HETATM    6  O   UNL     1     -46.920  57.655 -58.418  1.00  0.00    -0.271 OA
HETATM    7  N   UNL     1     -45.373  59.311 -58.384  1.00  0.00    -0.185 NA
HETATM    8  H   UNL     1     -42.204  59.039 -58.470  1.00  0.00     0.163 HD
ENDROOT
BRANCH   1   9
HETATM    9  N   UNL     1     -43.641  60.858 -58.127  1.00  0.00    -0.250 NA
HETATM   10  C   UNL     1     -42.209  60.893 -57.732  1.00  0.00     0.126 C 
HETATM   11  C   UNL     1     -42.023  60.362 -56.293  1.00  0.00     0.251 C 
HETATM   12  N   UNL     1     -42.849  61.214 -55.325  1.00  0.00    -0.057 N 
HETATM   13  H   UNL     1     -42.526  62.179 -55.439  1.00  0.00     0.281 HD
HETATM   14  C   UNL     1     -44.319  61.236 -55.730  1.00  0.00     0.251 C 
HETATM   15  C   UNL     1     -44.473  61.673 -57.205  1.00  0.00     0.126 C 
BRANCH  12  16
HETATM   16  C   UNL     1     -42.561  60.892 -53.857  1.00  0.00     0.254 C 
BRANCH  16  17
HETATM   17  C   UNL     1     -42.919  59.483 -53.391  1.00  0.00    -0.023 A 
HETATM   18  C   UNL     1     -41.878  58.578 -53.096  1.00  0.00     0.009 A 
HETATM   19  C   UNL     1     -42.149  57.264 -52.705  1.00  0.00     0.001 A 
HETATM   20  C   UNL     1     -43.463  56.825 -52.597  1.00  0.00     0.000 A 
HETATM   21  C   UNL     1     -44.507  57.702 -52.869  1.00  0.00     0.001 A 
HETATM   22  C   UNL     1     -44.238  59.018 -53.255  1.00  0.00     0.009 A 
ENDBRANCH  16  17
BRANCH  16  23
HETATM   23  C   UNL     1     -42.925  62.063 -52.943  1.00  0.00    -0.023 A 
HETATM   24  C   UNL     1     -43.211  61.794 -51.587  1.00  0.00     0.009 A 
HETATM   25  C   UNL     1     -43.506  62.823 -50.691  1.00  0.00     0.001 A 
HETATM   26  C   UNL     1     -43.520  64.143 -51.130  1.00  0.00     0.000 A 
HETATM   27  C   UNL     1     -43.244  64.431 -52.463  1.00  0.00     0.001 A 
HETATM   28  C   UNL     1     -42.947  63.402 -53.363  1.00  0.00     0.009 A 
ENDBRANCH  16  23
ENDBRANCH  12  16
ENDBRANCH   1   9
BRANCH   3  29
HETATM   29  C   UNL     1     -43.213  56.851 -57.195  1.00  0.00     0.245 C 
HETATM   30  N   UNL     1     -42.597  55.612 -57.096  1.00  0.00    -0.325 N 
HETATM   31  H   UNL     1     -42.433  55.094 -57.951  1.00  0.00     0.169 HD
HETATM   32  O   UNL     1     -43.566  57.562 -56.254  1.00  0.00    -0.271 OA
BRANCH  30  33
HETATM   33  C   UNL     1     -42.126  54.981 -55.923  1.00  0.00     0.035 A 
HETATM   34  C   UNL     1     -40.833  55.137 -55.416  1.00  0.00     0.032 A 
HETATM   35  C   UNL     1     -40.429  54.435 -54.276  1.00  0.00     0.039 A 
HETATM   36  C   UNL     1     -41.321  53.588 -53.622  1.00  0.00     0.076 A 
HETATM   37  C   UNL     1     -42.607  53.411 -54.123  1.00  0.00     0.039 A 
HETATM   38  C   UNL     1     -43.010  54.111 -55.266  1.00  0.00     0.032 A 
BRANCH  36  39
HETATM   39  O   UNL     1     -40.841  52.882 -52.544  1.00  0.00    -0.311 OA
BRANCH  39  40
HETATM   40  C   UNL     1     -40.790  53.520 -51.326  1.00  0.00     0.076 A 
HETATM   41  C   UNL     1     -42.002  54.001 -50.826  1.00  0.00     0.037 A 
HETATM   42  C   UNL     1     -42.047  54.616 -49.575  1.00  0.00     0.003 A 
HETATM   43  C   UNL     1     -40.884  54.739 -48.817  1.00  0.00     0.000 A 
HETATM   44  C   UNL     1     -39.676  54.241 -49.306  1.00  0.00     0.003 A 
HETATM   45  C   UNL     1     -39.628  53.623 -50.556  1.00  0.00     0.037 A 
ENDBRANCH  39  40
ENDBRANCH  36  39
ENDBRANCH  30  33
ENDBRANCH   3  29
TORSDOF 8
ENDMDL
MODEL 8
REMARK VINA RESULT:      -8.7      2.094      6.104
REMARK  8 active torsions:
REMARK  status: ('A' for Active; 'I' for Inactive)
REMARK    1  A    between atoms: C_4  and  C_5 
REMARK    2  A    between atoms: C_5  and  N_6 
REMARK    3  A    between atoms: C_5  and  C_36 
REMARK    4  A    between atoms: N_10  and  C_11 
REMARK    5  A    between atoms: C_13  and  C_14 
REMARK       I    between atoms: C_14  and  N_15 
REMARK    6  A    between atoms: N_15  and  C_16 
REMARK    7  A    between atoms: C_19  and  O_20 
REMARK    8  A    between atoms: O_20  and  C_21 
ROOT
HETATM    1  C   UNL     1     -43.994  59.622 -56.856  1.00  0.00     0.181 C 
HETATM    2  N   UNL     1     -43.433  59.174 -58.003  1.00  0.00    -0.351 N 
HETATM    3  C   UNL     1     -43.909  57.912 -58.548  1.00  0.00     0.185 C 
HETATM    4  C   UNL     1     -45.417  57.876 -58.445  1.00  0.00     0.140 C 
HETATM    5  C   UNL     1     -45.844  58.282 -57.056  1.00  0.00     0.248 C 
HETATM    6  O   UNL     1     -46.855  57.787 -56.564  1.00  0.00    -0.271 OA
HETATM    7  N   UNL     1     -45.133  59.250 -56.387  1.00  0.00    -0.185 NA
HETATM    8  H   UNL     1     -42.427  59.308 -58.059  1.00  0.00     0.163 HD
ENDROOT
BRANCH   1   9
HETATM    9  N   UNL     1     -43.176  60.511 -56.193  1.00  0.00    -0.250 NA
HETATM   10  C   UNL     1     -42.106  59.883 -55.377  1.00  0.00     0.126 C 
HETATM   11  C   UNL     1     -42.682  59.306 -54.065  1.00  0.00     0.251 C 
HETATM   12  N   UNL     1     -43.352  60.428 -53.266  1.00  0.00    -0.057 N 
HETATM   13  H   UNL     1     -42.634  61.140 -53.106  1.00  0.00     0.281 HD
HETATM   14  C   UNL     1     -44.427  61.124 -54.093  1.00  0.00     0.251 C 
HETATM   15  C   UNL     1     -43.851  61.603 -55.446  1.00  0.00     0.126 C 
BRANCH  12  16
HETATM   16  C   UNL     1     -43.765  59.990 -51.859  1.00  0.00     0.254 C 
BRANCH  16  17
HETATM   17  C   UNL     1     -43.958  61.105 -50.833  1.00  0.00    -0.023 A 
HETATM   18  C   UNL     1     -43.127  62.243 -50.900  1.00  0.00     0.009 A 
HETATM   19  C   UNL     1     -43.233  63.274 -49.963  1.00  0.00     0.001 A 
HETATM   20  C   UNL     1     -44.170  63.193 -48.940  1.00  0.00     0.000 A 
HETATM   21  C   UNL     1     -45.010  62.088 -48.861  1.00  0.00     0.001 A 
HETATM   22  C   UNL     1     -44.909  61.058 -49.800  1.00  0.00     0.009 A 
ENDBRANCH  16  17
BRANCH  16  23
HETATM   23  C   UNL     1     -43.013  58.733 -51.418  1.00  0.00    -0.023 A 
HETATM   24  C   UNL     1     -41.661  58.860 -51.030  1.00  0.00     0.009 A 
HETATM   25  C   UNL     1     -40.932  57.760 -50.575  1.00  0.00     0.001 A 
HETATM   26  C   UNL     1     -41.538  56.510 -50.497  1.00  0.00     0.000 A 
HETATM   27  C   UNL     1     -42.868  56.361 -50.877  1.00  0.00     0.001 A 
HETATM   28  C   UNL     1     -43.601  57.462 -51.333  1.00  0.00     0.009 A 
ENDBRANCH  16  23
ENDBRANCH  12  16
ENDBRANCH   1   9
BRANCH   3  29
HETATM   29  C   UNL     1     -43.233  56.714 -57.832  1.00  0.00     0.245 C 
HETATM   30  N   UNL     1     -42.899  56.988 -56.514  1.00  0.00    -0.325 N 
HETATM   31  H   UNL     1     -43.009  57.940 -56.185  1.00  0.00     0.169 HD
HETATM   32  O   UNL     1     -43.072  55.639 -58.412  1.00  0.00    -0.271 OA
BRANCH  30  33
HETATM   33  C   UNL     1     -42.444  56.074 -55.537  1.00  0.00     0.035 A 
HETATM   34  C   UNL     1     -43.265  55.147 -54.891  1.00  0.00     0.032 A 
HETATM   35  C   UNL     1     -42.745  54.311 -53.897  1.00  0.00     0.039 A 
HETATM   36  C   UNL     1     -41.397  54.382 -53.557  1.00  0.00     0.076 A 
HETATM   37  C   UNL     1     -40.569  55.310 -54.182  1.00  0.00     0.039 A 
HETATM   38  C   UNL     1     -41.090  56.148 -55.174  1.00  0.00     0.032 A 
BRANCH  36  39
HETATM   39  O   UNL     1     -40.965  53.576 -52.530  1.00  0.00    -0.311 OA
BRANCH  39  40
HETATM   40  C   UNL     1     -40.462  52.335 -52.851  1.00  0.00     0.076 A 
HETATM   41  C   UNL     1     -39.930  51.590 -51.797  1.00  0.00     0.037 A 
HETATM   42  C   UNL     1     -39.446  50.302 -52.027  1.00  0.00     0.003 A 
HETATM   43  C   UNL     1     -39.504  49.754 -53.308  1.00  0.00     0.000 A 
HETATM   44  C   UNL     1     -40.055  50.490 -54.357  1.00  0.00     0.003 A 
HETATM   45  C   UNL     1     -40.543  51.778 -54.130  1.00  0.00     0.037 A 
ENDBRANCH  39  40
ENDBRANCH  36  39
ENDBRANCH  30  33
ENDBRANCH   3  29
TORSDOF 8
ENDMDL
MODEL 9
REMARK VINA RESULT:      -8.5      2.524      4.155
REMARK  8 active torsions:
REMARK  status: ('A' for Active; 'I' for Inactive)
REMARK    1  A    between atoms: C_4  and  C_5 
REMARK    2  A    between atoms: C_5  and  N_6 
REMARK    3  A    between atoms: C_5  and  C_36 
REMARK    4  A    between atoms: N_10  and  C_11 
REMARK    5  A    between atoms: C_13  and  C_14 
REMARK       I    between atoms: C_14  and  N_15 
REMARK    6  A    between atoms: N_15  and  C_16 
REMARK    7  A    between atoms: C_19  and  O_20 
REMARK    8  A    between atoms: O_20  and  C_21 
ROOT
HETATM    1  C   UNL     1     -45.184  61.196 -54.575  1.00  0.00     0.181 C 
HETATM    2  N   UNL     1     -45.953  60.238 -54.008  1.00  0.00    -0.351 N 
HETATM    3  C   UNL     1     -45.311  59.292 -53.108  1.00  0.00     0.185 C 
HETATM    4  C   UNL     1     -44.357  60.046 -52.210  1.00  0.00     0.140 C 
HETATM    5  C   UNL     1     -43.497  60.968 -53.039  1.00  0.00     0.248 C 
HETATM    6  O   UNL     1     -42.343  61.200 -52.685  1.00  0.00    -0.271 OA
HETATM    7  N   UNL     1     -44.037  61.587 -54.140  1.00  0.00    -0.185 NA
HETATM    8  H   UNL     1     -46.643  59.828 -54.632  1.00  0.00     0.163 HD
ENDROOT
BRANCH   1   9
HETATM    9  N   UNL     1     -45.747  61.695 -55.729  1.00  0.00    -0.250 NA
HETATM   10  C   UNL     1     -46.344  60.671 -56.624  1.00  0.00     0.126 C 
HETATM   11  C   UNL     1     -45.245  59.905 -57.393  1.00  0.00     0.251 C 
HETATM   12  N   UNL     1     -44.416  60.894 -58.217  1.00  0.00    -0.057 N 
HETATM   13  H   UNL     1     -45.072  61.378 -58.837  1.00  0.00     0.281 HD
HETATM   14  C   UNL     1     -43.825  61.987 -57.332  1.00  0.00     0.251 C 
HETATM   15  C   UNL     1     -44.932  62.670 -56.497  1.00  0.00     0.126 C 
BRANCH  12  16
HETATM   16  C   UNL     1     -43.440  60.201 -59.171  1.00  0.00     0.254 C 
BRANCH  16  17
HETATM   17  C   UNL     1     -43.184  58.717 -58.916  1.00  0.00    -0.023 A 
HETATM   18  C   UNL     1     -43.427  57.796 -59.955  1.00  0.00     0.009 A 
HETATM   19  C   UNL     1     -43.249  56.423 -59.764  1.00  0.00     0.001 A 
HETATM   20  C   UNL     1     -42.823  55.941 -58.532  1.00  0.00     0.000 A 
HETATM   21  C   UNL     1     -42.563  56.830 -57.496  1.00  0.00     0.001 A 
HETATM   22  C   UNL     1     -42.736  58.203 -57.688  1.00  0.00     0.009 A 
ENDBRANCH  16  17
BRANCH  16  23
HETATM   23  C   UNL     1     -42.238  61.091 -59.490  1.00  0.00    -0.023 A 
HETATM   24  C   UNL     1     -41.287  61.326 -58.473  1.00  0.00     0.009 A 
HETATM   25  C   UNL     1     -40.145  62.092 -58.712  1.00  0.00     0.001 A 
HETATM   26  C   UNL     1     -39.927  62.638 -59.973  1.00  0.00     0.000 A 
HETATM   27  C   UNL     1     -40.852  62.421 -60.989  1.00  0.00     0.001 A 
HETATM   28  C   UNL     1     -41.997  61.654 -60.752  1.00  0.00     0.009 A 
ENDBRANCH  16  23
ENDBRANCH  12  16
ENDBRANCH   1   9
BRANCH   3  29
HETATM   29  C   UNL     1     -44.613  58.160 -53.905  1.00  0.00     0.245 C 
HETATM   30  N   UNL     1     -43.445  57.714 -53.303  1.00  0.00    -0.325 N 
HETATM   31  H   UNL     1     -43.102  58.224 -52.497  1.00  0.00     0.169 HD
HETATM   32  O   UNL     1     -45.110  57.715 -54.939  1.00  0.00    -0.271 OA
BRANCH  30  33
HETATM   33  C   UNL     1     -42.672  56.587 -53.662  1.00  0.00     0.035 A 
HETATM   34  C   UNL     1     -41.312  56.639 -53.976  1.00  0.00     0.032 A 
HETATM   35  C   UNL     1     -40.631  55.483 -54.372  1.00  0.00     0.039 A 
HETATM   36  C   UNL     1     -41.299  54.263 -54.435  1.00  0.00     0.076 A 
HETATM   37  C   UNL     1     -42.658  54.198 -54.138  1.00  0.00     0.039 A 
HETATM   38  C   UNL     1     -43.340  55.355 -53.746  1.00  0.00     0.032 A 
BRANCH  36  39
HETATM   39  O   UNL     1     -40.586  53.180 -54.890  1.00  0.00    -0.311 OA
BRANCH  39  40
HETATM   40  C   UNL     1     -40.269  52.191 -53.987  1.00  0.00     0.076 A 
HETATM   41  C   UNL     1     -40.211  50.888 -54.487  1.00  0.00     0.037 A 
HETATM   42  C   UNL     1     -39.847  49.833 -53.650  1.00  0.00     0.003 A 
HETATM   43  C   UNL     1     -39.530  50.081 -52.315  1.00  0.00     0.000 A 
HETATM   44  C   UNL     1     -39.567  51.385 -51.819  1.00  0.00     0.003 A 
HETATM   45  C   UNL     1     -39.929  52.442 -52.655  1.00  0.00     0.037 A 
ENDBRANCH  39  40
ENDBRANCH  36  39
ENDBRANCH  30  33
ENDBRANCH   3  29
TORSDOF 8
ENDMDL
MODEL 10
REMARK VINA RESULT:      -8.2      2.424      6.320
REMARK  8 active torsions:
REMARK  status: ('A' for Active; 'I' for Inactive)
REMARK    1  A    between atoms: C_4  and  C_5 
REMARK    2  A    between atoms: C_5  and  N_6 
REMARK    3  A    between atoms: C_5  and  C_36 
REMARK    4  A    between atoms: N_10  and  C_11 
REMARK    5  A    between atoms: C_13  and  C_14 
REMARK       I    between atoms: C_14  and  N_15 
REMARK    6  A    between atoms: N_15  and  C_16 
REMARK    7  A    between atoms: C_19  and  O_20 
REMARK    8  A    between atoms: O_20  and  C_21 
ROOT
HETATM    1  C   UNL     1     -43.784  59.885 -57.893  1.00  0.00     0.181 C 
HETATM    2  N   UNL     1     -42.814  59.028 -58.284  1.00  0.00    -0.351 N 
HETATM    3  C   UNL     1     -43.192  57.649 -58.560  1.00  0.00     0.185 C 
HETATM    4  C   UNL     1     -44.486  57.647 -59.342  1.00  0.00     0.140 C 
HETATM    5  C   UNL     1     -45.485  58.563 -58.679  1.00  0.00     0.248 C 
HETATM    6  O   UNL     1     -46.683  58.294 -58.734  1.00  0.00    -0.271 OA
HETATM    7  N   UNL     1     -45.047  59.720 -58.080  1.00  0.00    -0.185 NA
HETATM    8  H   UNL     1     -41.933  59.135 -57.789  1.00  0.00     0.163 HD
ENDROOT
BRANCH   1   9
HETATM    9  N   UNL     1     -43.273  60.968 -57.212  1.00  0.00    -0.250 NA
HETATM   10  C   UNL     1     -42.125  60.658 -56.322  1.00  0.00     0.126 C 
HETATM   11  C   UNL     1     -42.603  59.963 -55.028  1.00  0.00     0.251 C 
HETATM   12  N   UNL     1     -43.594  60.875 -54.297  1.00  0.00    -0.057 N 
HETATM   13  H   UNL     1     -43.102  61.755 -54.119  1.00  0.00     0.281 HD
HETATM   14  C   UNL     1     -44.764  61.249 -55.200  1.00  0.00     0.251 C 
HETATM   15  C   UNL     1     -44.257  61.849 -56.532  1.00  0.00     0.126 C 
BRANCH  12  16
HETATM   16  C   UNL     1     -43.958  60.359 -52.903  1.00  0.00     0.254 C 
BRANCH  16  17
HETATM   17  C   UNL     1     -44.668  61.348 -51.981  1.00  0.00    -0.023 A 
HETATM   18  C   UNL     1     -44.175  62.665 -51.886  1.00  0.00     0.009 A 
HETATM   19  C   UNL     1     -44.761  63.599 -51.027  1.00  0.00     0.001 A 
HETATM   20  C   UNL     1     -45.853  63.239 -50.247  1.00  0.00     0.000 A 
HETATM   21  C   UNL     1     -46.367  61.950 -50.333  1.00  0.00     0.001 A 
HETATM   22  C   UNL     1     -45.785  61.017 -51.195  1.00  0.00     0.009 A 
ENDBRANCH  16  17
BRANCH  16  23
HETATM   23  C   UNL     1     -42.837  59.504 -52.310  1.00  0.00    -0.023 A 
HETATM   24  C   UNL     1     -41.853  60.139 -51.521  1.00  0.00     0.009 A 
HETATM   25  C   UNL     1     -40.829  59.409 -50.914  1.00  0.00     0.001 A 
HETATM   26  C   UNL     1     -40.768  58.029 -51.081  1.00  0.00     0.000 A 
HETATM   27  C   UNL     1     -41.725  57.384 -51.857  1.00  0.00     0.001 A 
HETATM   28  C   UNL     1     -42.752  58.113 -52.465  1.00  0.00     0.009 A 
ENDBRANCH  16  23
ENDBRANCH  12  16
ENDBRANCH   1   9
BRANCH   3  29
HETATM   29  C   UNL     1     -43.288  56.832 -57.246  1.00  0.00     0.245 C 
HETATM   30  N   UNL     1     -42.181  56.023 -57.029  1.00  0.00    -0.325 N 
HETATM   31  H   UNL     1     -41.495  55.948 -57.771  1.00  0.00     0.169 HD
HETATM   32  O   UNL     1     -44.252  56.958 -56.490  1.00  0.00    -0.271 OA
BRANCH  30  33
HETATM   33  C   UNL     1     -41.866  55.298 -55.857  1.00  0.00     0.035 A 
HETATM   34  C   UNL     1     -40.730  55.529 -55.077  1.00  0.00     0.032 A 
HETATM   35  C   UNL     1     -40.464  54.731 -53.960  1.00  0.00     0.039 A 
HETATM   36  C   UNL     1     -41.342  53.711 -53.601  1.00  0.00     0.076 A 
HETATM   37  C   UNL     1     -42.471  53.461 -54.377  1.00  0.00     0.039 A 
HETATM   38  C   UNL     1     -42.735  54.257 -55.497  1.00  0.00     0.032 A 
BRANCH  36  39
HETATM   39  O   UNL     1     -40.990  52.927 -52.529  1.00  0.00    -0.311 OA
BRANCH  39  40
HETATM   40  C   UNL     1     -40.888  53.529 -51.295  1.00  0.00     0.076 A 
HETATM   41  C   UNL     1     -42.070  54.040 -50.756  1.00  0.00     0.037 A 
HETATM   42  C   UNL     1     -42.065  54.621 -49.487  1.00  0.00     0.003 A 
HETATM   43  C   UNL     1     -40.882  54.679 -48.753  1.00  0.00     0.000 A 
HETATM   44  C   UNL     1     -39.704  54.150 -49.282  1.00  0.00     0.003 A 
HETATM   45  C   UNL     1     -39.707  53.566 -50.550  1.00  0.00     0.037 A 
ENDBRANCH  39  40
ENDBRANCH  36  39
ENDBRANCH  30  33
ENDBRANCH   3  29
TORSDOF 8
ENDMDL
