MODEL 1
REMARK VINA RESULT:      -8.7      0.000      0.000
REMARK  8 active torsions:
REMARK  status: ('A' for Active; 'I' for Inactive)
REMARK    1  A    between atoms: O_2  and  C_3 
REMARK    2  A    between atoms: C_6  and  N_7 
REMARK       I    between atoms: N_7  and  C_8 
REMARK    3  A    between atoms: C_8  and  C_9 
REMARK    4  A    between atoms: C_9  and  N_10 
REMARK    5  A    between atoms: N_13  and  C_14 
REMARK    6  A    between atoms: C_14  and  C_15 
REMARK    7  A    between atoms: C_30  and  C_31 
REMARK       I    between atoms: C_31  and  N_32 
REMARK    8  A    between atoms: N_32  and  C_33 
ROOT
HETATM    1  N   UNL     1     -42.509  59.690 -52.082  1.00  0.00    -0.290 N 
HETATM    2  C   UNL     1     -42.028  59.214 -53.294  1.00  0.00     0.332 C 
HETATM    3  O   UNL     1     -40.812  59.088 -53.476  1.00  0.00    -0.246 OA
HETATM    4  N   UNL     1     -42.964  58.919 -54.270  1.00  0.00    -0.261 N 
HETATM    5  C   UNL     1     -44.306  59.269 -54.204  1.00  0.00     0.264 C 
HETATM    6  O   UNL     1     -45.114  59.072 -55.109  1.00  0.00    -0.267 OA
HETATM    7  C   UNL     1     -44.757  59.936 -52.971  1.00  0.00     0.059 A 
HETATM    8  C   UNL     1     -43.858  60.104 -51.919  1.00  0.00     0.056 A 
HETATM    9  C   UNL     1     -46.083  60.381 -52.867  1.00  0.00     0.020 A 
HETATM   10  C   UNL     1     -46.514  61.027 -51.709  1.00  0.00     0.018 A 
HETATM   11  C   UNL     1     -45.627  61.218 -50.647  1.00  0.00     0.034 A 
HETATM   12  C   UNL     1     -44.318  60.720 -50.744  1.00  0.00     0.048 A 
ENDROOT
BRANCH   1  13
HETATM   13  C   UNL     1     -41.534  59.867 -51.002  1.00  0.00     0.237 C 
BRANCH  13  14
HETATM   14  C   UNL     1     -40.813  58.556 -50.685  1.00  0.00     0.240 C 
HETATM   15  N   UNL     1     -41.652  57.455 -50.729  1.00  0.00    -0.326 N 
HETATM   16  H   UNL     1     -42.615  57.633 -51.016  1.00  0.00     0.169 HD
HETATM   17  O   UNL     1     -39.604  58.553 -50.461  1.00  0.00    -0.271 OA
BRANCH  15  18
HETATM   18  C   UNL     1     -41.325  56.118 -50.431  1.00  0.00     0.034 A 
HETATM   19  C   UNL     1     -41.156  55.241 -51.509  1.00  0.00     0.032 A 
HETATM   20  C   UNL     1     -40.866  53.885 -51.298  1.00  0.00     0.039 A 
HETATM   21  C   UNL     1     -40.742  53.391 -50.001  1.00  0.00     0.068 A 
HETATM   22  C   UNL     1     -40.888  54.267 -48.927  1.00  0.00     0.039 A 
HETATM   23  C   UNL     1     -41.181  55.620 -49.136  1.00  0.00     0.032 A 
BRANCH  21  24
HETATM   24  O   UNL     1     -40.476  52.096 -49.654  1.00  0.00    -0.356 OA
HETATM   25  C   UNL     1     -40.047  51.229 -50.697  1.00  0.00     0.210 C 
ENDBRANCH  21  24
ENDBRANCH  15  18
ENDBRANCH  13  14
ENDBRANCH   1  13
BRANCH   4  26
HETATM   26  C   UNL     1     -42.511  58.213 -55.461  1.00  0.00     0.175 C 
BRANCH  26  27
HETATM   27  C   UNL     1     -42.351  56.728 -55.190  1.00  0.00    -0.037 A 
HETATM   28  C   UNL     1     -41.074  56.141 -55.189  1.00  0.00     0.048 A 
HETATM   29  C   UNL     1     -40.983  54.781 -54.977  1.00  0.00     0.105 A 
HETATM   30  C   UNL     1     -42.097  54.001 -54.780  1.00  0.00     0.105 A 
HETATM   31  O   UNL     1     -39.832  54.058 -54.943  1.00  0.00    -0.323 OA
HETATM   32  O   UNL     1     -41.788  52.689 -54.598  1.00  0.00    -0.323 OA
HETATM   33  C   UNL     1     -43.366  54.536 -54.781  1.00  0.00     0.040 A 
HETATM   34  C   UNL     1     -40.350  52.734 -54.698  1.00  0.00     0.352 A 
HETATM   35  C   UNL     1     -43.491  55.914 -54.988  1.00  0.00     0.012 A 
ENDBRANCH  26  27
ENDBRANCH   4  26
BRANCH  11  36
HETATM   36  C   UNL     1     -46.103  61.947 -49.436  1.00  0.00     0.252 C 
HETATM   37  N   UNL     1     -46.110  61.237 -48.251  1.00  0.00    -0.352 N 
HETATM   38  H   UNL     1     -45.632  60.345 -48.205  1.00  0.00     0.163 HD
HETATM   39  O   UNL     1     -46.438  63.122 -49.529  1.00  0.00    -0.268 OA
BRANCH  37  40
HETATM   40  C   UNL     1     -46.454  61.856 -46.974  1.00  0.00     0.084 C 
HETATM   41  C   UNL     1     -47.293  60.899 -46.121  1.00  0.00     0.025 C 
HETATM   42  C   UNL     1     -46.483  59.728 -45.565  1.00  0.00     0.002 C 
HETATM   43  C   UNL     1     -45.242  60.205 -44.819  1.00  0.00     0.000 C 
HETATM   44  C   UNL     1     -44.380  61.121 -45.682  1.00  0.00     0.002 C 
HETATM   45  C   UNL     1     -45.185  62.300 -46.234  1.00  0.00     0.025 C 
ENDBRANCH  37  40
ENDBRANCH  11  36
TORSDOF 8
ENDMDL
MODEL 2
REMARK VINA RESULT:      -8.5      3.016      4.355
REMARK  8 active torsions:
REMARK  status: ('A' for Active; 'I' for Inactive)
REMARK    1  A    between atoms: O_2  and  C_3 
REMARK    2  A    between atoms: C_6  and  N_7 
REMARK       I    between atoms: N_7  and  C_8 
REMARK    3  A    between atoms: C_8  and  C_9 
REMARK    4  A    between atoms: C_9  and  N_10 
REMARK    5  A    between atoms: N_13  and  C_14 
REMARK    6  A    between atoms: C_14  and  C_15 
REMARK    7  A    between atoms: C_30  and  C_31 
REMARK       I    between atoms: C_31  and  N_32 
REMARK    8  A    between atoms: N_32  and  C_33 
ROOT
HETATM    1  N   UNL     1     -42.915  59.926 -54.849  1.00  0.00    -0.290 N 
HETATM    2  C   UNL     1     -42.544  60.211 -56.156  1.00  0.00     0.332 C 
HETATM    3  O   UNL     1     -41.394  59.978 -56.542  1.00  0.00    -0.246 OA
HETATM    4  N   UNL     1     -43.507  60.776 -56.974  1.00  0.00    -0.261 N 
HETATM    5  C   UNL     1     -44.723  61.276 -56.528  1.00  0.00     0.264 C 
HETATM    6  O   UNL     1     -45.538  61.847 -57.249  1.00  0.00    -0.267 OA
HETATM    7  C   UNL     1     -45.019  61.119 -55.095  1.00  0.00     0.059 A 
HETATM    8  C   UNL     1     -44.125  60.417 -54.287  1.00  0.00     0.056 A 
HETATM    9  C   UNL     1     -46.198  61.664 -54.564  1.00  0.00     0.020 A 
HETATM   10  C   UNL     1     -46.477  61.533 -53.205  1.00  0.00     0.018 A 
HETATM   11  C   UNL     1     -45.589  60.844 -52.374  1.00  0.00     0.034 A 
HETATM   12  C   UNL     1     -44.441  60.258 -52.928  1.00  0.00     0.048 A 
ENDROOT
BRANCH   1  13
HETATM   13  C   UNL     1     -41.946  59.199 -54.025  1.00  0.00     0.237 C 
BRANCH  13  14
HETATM   14  C   UNL     1     -42.144  57.687 -54.141  1.00  0.00     0.240 C 
HETATM   15  N   UNL     1     -41.028  56.966 -53.750  1.00  0.00    -0.326 N 
HETATM   16  H   UNL     1     -40.245  57.508 -53.386  1.00  0.00     0.169 HD
HETATM   17  O   UNL     1     -43.223  57.231 -54.516  1.00  0.00    -0.271 OA
BRANCH  15  18
HETATM   18  C   UNL     1     -40.855  55.568 -53.791  1.00  0.00     0.034 A 
HETATM   19  C   UNL     1     -40.311  55.021 -54.959  1.00  0.00     0.032 A 
HETATM   20  C   UNL     1     -40.141  53.636 -55.097  1.00  0.00     0.039 A 
HETATM   21  C   UNL     1     -40.516  52.780 -54.063  1.00  0.00     0.068 A 
HETATM   22  C   UNL     1     -41.038  53.324 -52.891  1.00  0.00     0.039 A 
HETATM   23  C   UNL     1     -41.211  54.707 -52.754  1.00  0.00     0.032 A 
BRANCH  21  24
HETATM   24  O   UNL     1     -40.418  51.417 -54.070  1.00  0.00    -0.356 OA
HETATM   25  C   UNL     1     -39.590  50.830 -53.074  1.00  0.00     0.210 C 
ENDBRANCH  21  24
ENDBRANCH  15  18
ENDBRANCH  13  14
ENDBRANCH   1  13
BRANCH   4  26
HETATM   26  C   UNL     1     -43.219  60.878 -58.399  1.00  0.00     0.175 C 
BRANCH  26  27
HETATM   27  C   UNL     1     -43.357  59.530 -59.083  1.00  0.00    -0.037 A 
HETATM   28  C   UNL     1     -44.598  58.871 -59.106  1.00  0.00     0.048 A 
HETATM   29  C   UNL     1     -44.666  57.630 -59.704  1.00  0.00     0.105 A 
HETATM   30  C   UNL     1     -43.560  57.032 -60.261  1.00  0.00     0.105 A 
HETATM   31  O   UNL     1     -45.781  56.860 -59.814  1.00  0.00    -0.323 OA
HETATM   32  O   UNL     1     -43.841  55.811 -60.790  1.00  0.00    -0.323 OA
HETATM   33  C   UNL     1     -42.326  57.641 -60.254  1.00  0.00     0.040 A 
HETATM   34  C   UNL     1     -45.252  55.711 -60.508  1.00  0.00     0.352 A 
HETATM   35  C   UNL     1     -42.226  58.904 -59.658  1.00  0.00     0.012 A 
ENDBRANCH  26  27
ENDBRANCH   4  26
BRANCH  11  36
HETATM   36  C   UNL     1     -45.894  60.752 -50.917  1.00  0.00     0.252 C 
HETATM   37  N   UNL     1     -45.795  61.922 -50.191  1.00  0.00    -0.352 N 
HETATM   38  H   UNL     1     -45.710  62.804 -50.680  1.00  0.00     0.163 HD
HETATM   39  O   UNL     1     -46.235  59.677 -50.436  1.00  0.00    -0.268 OA
BRANCH  37  40
HETATM   40  C   UNL     1     -46.163  61.997 -48.779  1.00  0.00     0.084 C 
HETATM   41  C   UNL     1     -44.945  62.362 -47.924  1.00  0.00     0.025 C 
HETATM   42  C   UNL     1     -44.509  63.817 -48.095  1.00  0.00     0.002 C 
HETATM   43  C   UNL     1     -45.667  64.782 -47.866  1.00  0.00     0.000 C 
HETATM   44  C   UNL     1     -46.865  64.449 -48.750  1.00  0.00     0.002 C 
HETATM   45  C   UNL     1     -47.310  62.995 -48.576  1.00  0.00     0.025 C 
ENDBRANCH  37  40
ENDBRANCH  11  36
TORSDOF 8
ENDMDL
MODEL 3
REMARK VINA RESULT:      -8.3      3.248      8.129
REMARK  8 active torsions:
REMARK  status: ('A' for Active; 'I' for Inactive)
REMARK    1  A    between atoms: O_2  and  C_3 
REMARK    2  A    between atoms: C_6  and  N_7 
REMARK       I    between atoms: N_7  and  C_8 
REMARK    3  A    between atoms: C_8  and  C_9 
REMARK    4  A    between atoms: C_9  and  N_10 
REMARK    5  A    between atoms: N_13  and  C_14 
REMARK    6  A    between atoms: C_14  and  C_15 
REMARK    7  A    between atoms: C_30  and  C_31 
REMARK       I    between atoms: C_31  and  N_32 
REMARK    8  A    between atoms: N_32  and  C_33 
ROOT
HETATM    1  N   UNL     1     -41.933  57.785 -54.687  1.00  0.00    -0.290 N 
HETATM    2  C   UNL     1     -41.987  56.778 -53.734  1.00  0.00     0.332 C 
HETATM    3  O   UNL     1     -41.445  56.929 -52.635  1.00  0.00    -0.246 OA
HETATM    4  N   UNL     1     -42.648  55.614 -54.087  1.00  0.00    -0.261 N 
HETATM    5  C   UNL     1     -43.057  55.301 -55.377  1.00  0.00     0.264 C 
HETATM    6  O   UNL     1     -43.574  54.233 -55.695  1.00  0.00    -0.267 OA
HETATM    7  C   UNL     1     -42.827  56.324 -56.411  1.00  0.00     0.059 A 
HETATM    8  C   UNL     1     -42.299  57.560 -56.041  1.00  0.00     0.056 A 
HETATM    9  C   UNL     1     -43.151  56.046 -57.747  1.00  0.00     0.020 A 
HETATM   10  C   UNL     1     -42.921  57.004 -58.734  1.00  0.00     0.018 A 
HETATM   11  C   UNL     1     -42.381  58.245 -58.389  1.00  0.00     0.034 A 
HETATM   12  C   UNL     1     -42.112  58.529 -57.041  1.00  0.00     0.048 A 
ENDROOT
BRANCH   1  13
HETATM   13  C   UNL     1     -41.360  59.068 -54.268  1.00  0.00     0.237 C 
BRANCH  13  14
HETATM   14  C   UNL     1     -42.388  59.914 -53.515  1.00  0.00     0.240 C 
HETATM   15  N   UNL     1     -42.655  59.433 -52.244  1.00  0.00    -0.326 N 
HETATM   16  H   UNL     1     -42.110  58.625 -51.943  1.00  0.00     0.169 HD
HETATM   17  O   UNL     1     -42.857  60.925 -54.035  1.00  0.00    -0.271 OA
BRANCH  15  18
HETATM   18  C   UNL     1     -43.590  59.937 -51.318  1.00  0.00     0.034 A 
HETATM   19  C   UNL     1     -43.152  60.938 -50.442  1.00  0.00     0.032 A 
HETATM   20  C   UNL     1     -44.007  61.467 -49.465  1.00  0.00     0.039 A 
HETATM   21  C   UNL     1     -45.315  60.999 -49.354  1.00  0.00     0.068 A 
HETATM   22  C   UNL     1     -45.759  60.018 -50.239  1.00  0.00     0.039 A 
HETATM   23  C   UNL     1     -44.905  59.487 -51.212  1.00  0.00     0.032 A 
BRANCH  21  24
HETATM   24  O   UNL     1     -46.245  61.416 -48.444  1.00  0.00    -0.356 OA
HETATM   25  C   UNL     1     -46.705  62.756 -48.567  1.00  0.00     0.210 C 
ENDBRANCH  21  24
ENDBRANCH  15  18
ENDBRANCH  13  14
ENDBRANCH   1  13
BRANCH   4  26
HETATM   26  C   UNL     1     -42.914  54.634 -53.041  1.00  0.00     0.175 C 
BRANCH  26  27
HETATM   27  C   UNL     1     -41.785  53.626 -52.935  1.00  0.00    -0.037 A 
HETATM   28  C   UNL     1     -41.562  52.700 -53.968  1.00  0.00     0.048 A 
HETATM   29  C   UNL     1     -40.549  51.777 -53.808  1.00  0.00     0.105 A 
HETATM   30  C   UNL     1     -39.773  51.741 -52.675  1.00  0.00     0.105 A 
HETATM   31  O   UNL     1     -40.200  50.817 -54.706  1.00  0.00    -0.323 OA
HETATM   32  O   UNL     1     -38.838  50.754 -52.715  1.00  0.00    -0.323 OA
HETATM   33  C   UNL     1     -39.963  52.626 -51.637  1.00  0.00     0.040 A 
HETATM   34  C   UNL     1     -39.112  50.175 -54.009  1.00  0.00     0.352 A 
HETATM   35  C   UNL     1     -40.980  53.578 -51.771  1.00  0.00     0.012 A 
ENDBRANCH  26  27
ENDBRANCH   4  26
BRANCH  11  36
HETATM   36  C   UNL     1     -42.110  59.236 -59.470  1.00  0.00     0.252 C 
HETATM   37  N   UNL     1     -42.212  60.569 -59.125  1.00  0.00    -0.352 N 
HETATM   38  H   UNL     1     -42.276  60.825 -58.148  1.00  0.00     0.163 HD
HETATM   39  O   UNL     1     -41.791  58.842 -60.586  1.00  0.00    -0.268 OA
BRANCH  37  40
HETATM   40  C   UNL     1     -41.874  61.643 -60.056  1.00  0.00     0.084 C 
HETATM   41  C   UNL     1     -42.923  62.759 -59.994  1.00  0.00     0.025 C 
HETATM   42  C   UNL     1     -42.848  63.578 -58.707  1.00  0.00     0.002 C 
HETATM   43  C   UNL     1     -41.442  64.113 -58.461  1.00  0.00     0.000 C 
HETATM   44  C   UNL     1     -40.400  62.998 -58.476  1.00  0.00     0.002 C 
HETATM   45  C   UNL     1     -40.466  62.180 -59.767  1.00  0.00     0.025 C 
ENDBRANCH  37  40
ENDBRANCH  11  36
TORSDOF 8
ENDMDL
MODEL 4
REMARK VINA RESULT:      -8.3      4.712      9.268
REMARK  8 active torsions:
REMARK  status: ('A' for Active; 'I' for Inactive)
REMARK    1  A    between atoms: O_2  and  C_3 
REMARK    2  A    between atoms: C_6  and  N_7 
REMARK       I    between atoms: N_7  and  C_8 
REMARK    3  A    between atoms: C_8  and  C_9 
REMARK    4  A    between atoms: C_9  and  N_10 
REMARK    5  A    between atoms: N_13  and  C_14 
REMARK    6  A    between atoms: C_14  and  C_15 
REMARK    7  A    between atoms: C_30  and  C_31 
REMARK       I    between atoms: C_31  and  N_32 
REMARK    8  A    between atoms: N_32  and  C_33 
ROOT
HETATM    1  N   UNL     1     -42.697  57.378 -56.864  1.00  0.00    -0.290 N 
HETATM    2  C   UNL     1     -43.128  56.142 -56.404  1.00  0.00     0.332 C 
HETATM    3  O   UNL     1     -43.092  55.154 -57.145  1.00  0.00    -0.246 OA
HETATM    4  N   UNL     1     -43.609  56.086 -55.107  1.00  0.00    -0.261 N 
HETATM    5  C   UNL     1     -43.895  57.197 -54.326  1.00  0.00     0.264 C 
HETATM    6  O   UNL     1     -44.395  57.140 -53.205  1.00  0.00    -0.267 OA
HETATM    7  C   UNL     1     -43.590  58.514 -54.910  1.00  0.00     0.059 A 
HETATM    8  C   UNL     1     -42.966  58.580 -56.154  1.00  0.00     0.056 A 
HETATM    9  C   UNL     1     -43.921  59.680 -54.204  1.00  0.00     0.020 A 
HETATM   10  C   UNL     1     -43.650  60.931 -54.757  1.00  0.00     0.018 A 
HETATM   11  C   UNL     1     -43.036  61.021 -56.009  1.00  0.00     0.034 A 
HETATM   12  C   UNL     1     -42.663  59.846 -56.680  1.00  0.00     0.048 A 
ENDROOT
BRANCH   1  13
HETATM   13  C   UNL     1     -42.057  57.412 -58.182  1.00  0.00     0.237 C 
BRANCH  13  14
HETATM   14  C   UNL     1     -43.072  57.161 -59.298  1.00  0.00     0.240 C 
HETATM   15  N   UNL     1     -44.332  57.652 -59.001  1.00  0.00    -0.326 N 
HETATM   16  H   UNL     1     -44.423  58.161 -58.122  1.00  0.00     0.169 HD
HETATM   17  O   UNL     1     -42.722  56.607 -60.339  1.00  0.00    -0.271 OA
BRANCH  15  18
HETATM   18  C   UNL     1     -45.500  57.535 -59.780  1.00  0.00     0.034 A 
HETATM   19  C   UNL     1     -45.977  56.244 -60.035  1.00  0.00     0.032 A 
HETATM   20  C   UNL     1     -47.111  56.037 -60.833  1.00  0.00     0.039 A 
HETATM   21  C   UNL     1     -47.784  57.126 -61.385  1.00  0.00     0.068 A 
HETATM   22  C   UNL     1     -47.325  58.413 -61.114  1.00  0.00     0.039 A 
HETATM   23  C   UNL     1     -46.189  58.620 -60.321  1.00  0.00     0.032 A 
BRANCH  21  24
HETATM   24  O   UNL     1     -48.889  57.067 -62.187  1.00  0.00    -0.356 OA
HETATM   25  C   UNL     1     -48.935  57.972 -63.282  1.00  0.00     0.210 C 
ENDBRANCH  21  24
ENDBRANCH  15  18
ENDBRANCH  13  14
ENDBRANCH   1  13
BRANCH   4  26
HETATM   26  C   UNL     1     -43.857  54.773 -54.525  1.00  0.00     0.175 C 
BRANCH  26  27
HETATM   27  C   UNL     1     -42.683  54.319 -53.677  1.00  0.00    -0.037 A 
HETATM   28  C   UNL     1     -42.768  54.351 -52.275  1.00  0.00     0.048 A 
HETATM   29  C   UNL     1     -41.661  53.967 -51.546  1.00  0.00     0.105 A 
HETATM   30  C   UNL     1     -40.494  53.570 -52.155  1.00  0.00     0.105 A 
HETATM   31  O   UNL     1     -41.574  53.937 -50.190  1.00  0.00    -0.323 OA
HETATM   32  O   UNL     1     -39.526  53.241 -51.258  1.00  0.00    -0.323 OA
HETATM   33  C   UNL     1     -40.368  53.532 -53.525  1.00  0.00     0.040 A 
HETATM   34  C   UNL     1     -40.220  53.471 -50.014  1.00  0.00     0.352 A 
HETATM   35  C   UNL     1     -41.475  53.911 -54.292  1.00  0.00     0.012 A 
ENDBRANCH  26  27
ENDBRANCH   4  26
BRANCH  11  36
HETATM   36  C   UNL     1     -42.793  62.372 -56.594  1.00  0.00     0.252 C 
HETATM   37  N   UNL     1     -41.801  62.460 -57.550  1.00  0.00    -0.352 N 
HETATM   38  H   UNL     1     -41.417  61.612 -57.947  1.00  0.00     0.163 HD
HETATM   39  O   UNL     1     -43.480  63.321 -56.233  1.00  0.00    -0.268 OA
BRANCH  37  40
HETATM   40  C   UNL     1     -41.528  63.697 -58.277  1.00  0.00     0.084 C 
HETATM   41  C   UNL     1     -40.019  63.893 -58.459  1.00  0.00     0.025 C 
HETATM   42  C   UNL     1     -39.409  62.926 -59.473  1.00  0.00     0.002 C 
HETATM   43  C   UNL     1     -40.146  62.968 -60.806  1.00  0.00     0.000 C 
HETATM   44  C   UNL     1     -41.643  62.727 -60.634  1.00  0.00     0.002 C 
HETATM   45  C   UNL     1     -42.260  63.699 -59.626  1.00  0.00     0.025 C 
ENDBRANCH  37  40
ENDBRANCH  11  36
TORSDOF 8
ENDMDL
MODEL 5
REMARK VINA RESULT:      -8.1      3.399      8.536
REMARK  8 active torsions:
REMARK  status: ('A' for Active; 'I' for Inactive)
REMARK    1  A    between atoms: O_2  and  C_3 
REMARK    2  A    between atoms: C_6  and  N_7 
REMARK       I    between atoms: N_7  and  C_8 
REMARK    3  A    between atoms: C_8  and  C_9 
REMARK    4  A    between atoms: C_9  and  N_10 
REMARK    5  A    between atoms: N_13  and  C_14 
REMARK    6  A    between atoms: C_14  and  C_15 
REMARK    7  A    between atoms: C_30  and  C_31 
REMARK       I    between atoms: C_31  and  N_32 
REMARK    8  A    between atoms: N_32  and  C_33 
ROOT
HETATM    1  N   UNL     1     -42.144  58.673 -53.714  1.00  0.00    -0.290 N 
HETATM    2  C   UNL     1     -42.315  57.543 -52.925  1.00  0.00     0.332 C 
HETATM    3  O   UNL     1     -41.971  57.553 -51.739  1.00  0.00    -0.246 OA
HETATM    4  N   UNL     1     -42.858  56.426 -53.536  1.00  0.00    -0.261 N 
HETATM    5  C   UNL     1     -43.033  56.285 -54.906  1.00  0.00     0.264 C 
HETATM    6  O   UNL     1     -43.444  55.261 -55.446  1.00  0.00    -0.267 OA
HETATM    7  C   UNL     1     -42.676  57.444 -55.743  1.00  0.00     0.059 A 
HETATM    8  C   UNL     1     -42.270  58.628 -55.129  1.00  0.00     0.056 A 
HETATM    9  C   UNL     1     -42.760  57.345 -57.139  1.00  0.00     0.020 A 
HETATM   10  C   UNL     1     -42.409  58.433 -57.938  1.00  0.00     0.018 A 
HETATM   11  C   UNL     1     -41.987  59.625 -57.345  1.00  0.00     0.034 A 
HETATM   12  C   UNL     1     -41.959  59.727 -55.945  1.00  0.00     0.048 A 
ENDROOT
BRANCH   1  13
HETATM   13  C   UNL     1     -41.704  59.896 -53.038  1.00  0.00     0.237 C 
BRANCH  13  14
HETATM   14  C   UNL     1     -42.888  60.648 -52.426  1.00  0.00     0.240 C 
HETATM   15  N   UNL     1     -42.796  60.769 -51.049  1.00  0.00    -0.326 N 
HETATM   16  H   UNL     1     -41.947  60.403 -50.620  1.00  0.00     0.169 HD
HETATM   17  O   UNL     1     -43.772  61.102 -53.150  1.00  0.00    -0.271 OA
BRANCH  15  18
HETATM   18  C   UNL     1     -43.740  61.346 -50.177  1.00  0.00     0.034 A 
HETATM   19  C   UNL     1     -43.513  62.665 -49.765  1.00  0.00     0.032 A 
HETATM   20  C   UNL     1     -44.383  63.301 -48.868  1.00  0.00     0.039 A 
HETATM   21  C   UNL     1     -45.494  62.621 -48.372  1.00  0.00     0.068 A 
HETATM   22  C   UNL     1     -45.734  61.316 -48.798  1.00  0.00     0.039 A 
HETATM   23  C   UNL     1     -44.864  60.679 -49.691  1.00  0.00     0.032 A 
BRANCH  21  24
HETATM   24  O   UNL     1     -46.411  63.115 -47.488  1.00  0.00    -0.356 OA
HETATM   25  C   UNL     1     -46.848  62.234 -46.460  1.00  0.00     0.210 C 
ENDBRANCH  21  24
ENDBRANCH  15  18
ENDBRANCH  13  14
ENDBRANCH   1  13
BRANCH   4  26
HETATM   26  C   UNL     1     -43.254  55.308 -52.689  1.00  0.00     0.175 C 
BRANCH  26  27
HETATM   27  C   UNL     1     -42.110  54.328 -52.506  1.00  0.00    -0.037 A 
HETATM   28  C   UNL     1     -41.725  53.483 -53.560  1.00  0.00     0.048 A 
HETATM   29  C   UNL     1     -40.706  52.581 -53.333  1.00  0.00     0.105 A 
HETATM   30  C   UNL     1     -40.077  52.489 -52.115  1.00  0.00     0.105 A 
HETATM   31  O   UNL     1     -40.212  51.696 -54.239  1.00  0.00    -0.323 OA
HETATM   32  O   UNL     1     -39.109  51.534 -52.100  1.00  0.00    -0.323 OA
HETATM   33  C   UNL     1     -40.429  53.294 -51.055  1.00  0.00     0.040 A 
HETATM   34  C   UNL     1     -39.197  51.039 -53.453  1.00  0.00     0.352 A 
HETATM   35  C   UNL     1     -41.456  54.223 -51.255  1.00  0.00     0.012 A 
ENDBRANCH  26  27
ENDBRANCH   4  26
BRANCH  11  36
HETATM   36  C   UNL     1     -41.580  60.760 -58.224  1.00  0.00     0.252 C 
HETATM   37  N   UNL     1     -42.445  61.086 -59.251  1.00  0.00    -0.352 N 
HETATM   38  H   UNL     1     -43.377  60.690 -59.258  1.00  0.00     0.163 HD
HETATM   39  O   UNL     1     -40.536  61.359 -57.995  1.00  0.00    -0.268 OA
BRANCH  37  40
HETATM   40  C   UNL     1     -42.221  62.237 -60.121  1.00  0.00     0.084 C 
HETATM   41  C   UNL     1     -41.377  61.836 -61.337  1.00  0.00     0.025 C 
HETATM   42  C   UNL     1     -42.144  60.973 -62.338  1.00  0.00     0.002 C 
HETATM   43  C   UNL     1     -43.457  61.626 -62.755  1.00  0.00     0.000 C 
HETATM   44  C   UNL     1     -44.320  61.984 -61.549  1.00  0.00     0.002 C 
HETATM   45  C   UNL     1     -43.559  62.855 -60.547  1.00  0.00     0.025 C 
ENDBRANCH  37  40
ENDBRANCH  11  36
TORSDOF 8
ENDMDL
MODEL 6
REMARK VINA RESULT:      -8.0      2.850      8.571
REMARK  8 active torsions:
REMARK  status: ('A' for Active; 'I' for Inactive)
REMARK    1  A    between atoms: O_2  and  C_3 
REMARK    2  A    between atoms: C_6  and  N_7 
REMARK       I    between atoms: N_7  and  C_8 
REMARK    3  A    between atoms: C_8  and  C_9 
REMARK    4  A    between atoms: C_9  and  N_10 
REMARK    5  A    between atoms: N_13  and  C_14 
REMARK    6  A    between atoms: C_14  and  C_15 
REMARK    7  A    between atoms: C_30  and  C_31 
REMARK       I    between atoms: C_31  and  N_32 
REMARK    8  A    between atoms: N_32  and  C_33 
ROOT
HETATM    1  N   UNL     1     -43.761  58.860 -53.276  1.00  0.00    -0.290 N 
HETATM    2  C   UNL     1     -43.745  59.225 -51.936  1.00  0.00     0.332 C 
HETATM    3  O   UNL     1     -44.103  58.423 -51.067  1.00  0.00    -0.246 OA
HETATM    4  N   UNL     1     -43.338  60.514 -51.641  1.00  0.00    -0.261 N 
HETATM    5  C   UNL     1     -43.162  61.519 -52.582  1.00  0.00     0.264 C 
HETATM    6  O   UNL     1     -42.876  62.681 -52.304  1.00  0.00    -0.267 OA
HETATM    7  C   UNL     1     -43.358  61.147 -53.994  1.00  0.00     0.059 A 
HETATM    8  C   UNL     1     -43.621  59.816 -54.317  1.00  0.00     0.056 A 
HETATM    9  C   UNL     1     -43.266  62.129 -54.990  1.00  0.00     0.020 A 
HETATM   10  C   UNL     1     -43.466  61.787 -56.327  1.00  0.00     0.018 A 
HETATM   11  C   UNL     1     -43.742  60.462 -56.674  1.00  0.00     0.034 A 
HETATM   12  C   UNL     1     -43.779  59.480 -55.671  1.00  0.00     0.048 A 
ENDROOT
BRANCH   1  13
HETATM   13  C   UNL     1     -44.053  57.456 -53.580  1.00  0.00     0.237 C 
BRANCH  13  14
HETATM   14  C   UNL     1     -42.773  56.620 -53.624  1.00  0.00     0.240 C 
HETATM   15  N   UNL     1     -43.003  55.271 -53.409  1.00  0.00    -0.326 N 
HETATM   16  H   UNL     1     -43.978  54.991 -53.305  1.00  0.00     0.169 HD
HETATM   17  O   UNL     1     -41.693  57.155 -53.867  1.00  0.00    -0.271 OA
BRANCH  15  18
HETATM   18  C   UNL     1     -42.043  54.243 -53.324  1.00  0.00     0.034 A 
HETATM   19  C   UNL     1     -41.833  53.464 -54.468  1.00  0.00     0.032 A 
HETATM   20  C   UNL     1     -40.923  52.397 -54.457  1.00  0.00     0.039 A 
HETATM   21  C   UNL     1     -40.212  52.097 -53.297  1.00  0.00     0.068 A 
HETATM   22  C   UNL     1     -40.403  52.886 -52.164  1.00  0.00     0.039 A 
HETATM   23  C   UNL     1     -41.314  53.949 -52.173  1.00  0.00     0.032 A 
BRANCH  21  24
HETATM   24  O   UNL     1     -39.308  51.083 -53.146  1.00  0.00    -0.356 OA
HETATM   25  C   UNL     1     -39.511  49.921 -53.939  1.00  0.00     0.210 C 
ENDBRANCH  21  24
ENDBRANCH  15  18
ENDBRANCH  13  14
ENDBRANCH   1  13
BRANCH   4  26
HETATM   26  C   UNL     1     -43.099  60.853 -50.243  1.00  0.00     0.175 C 
BRANCH  26  27
HETATM   27  C   UNL     1     -44.341  61.443 -49.602  1.00  0.00    -0.037 A 
HETATM   28  C   UNL     1     -44.466  61.481 -48.203  1.00  0.00     0.048 A 
HETATM   29  C   UNL     1     -45.631  61.990 -47.667  1.00  0.00     0.105 A 
HETATM   30  C   UNL     1     -46.657  62.445 -48.461  1.00  0.00     0.105 A 
HETATM   31  O   UNL     1     -45.914  62.101 -46.342  1.00  0.00    -0.323 OA
HETATM   32  O   UNL     1     -47.714  62.898 -47.736  1.00  0.00    -0.323 OA
HETATM   33  C   UNL     1     -46.576  62.419 -49.835  1.00  0.00     0.040 A 
HETATM   34  C   UNL     1     -47.234  62.681 -46.393  1.00  0.00     0.352 A 
HETATM   35  C   UNL     1     -45.405  61.913 -50.409  1.00  0.00     0.012 A 
ENDBRANCH  26  27
ENDBRANCH   4  26
BRANCH  11  36
HETATM   36  C   UNL     1     -43.990  60.132 -58.107  1.00  0.00     0.252 C 
HETATM   37  N   UNL     1     -43.359  59.006 -58.598  1.00  0.00    -0.352 N 
HETATM   38  H   UNL     1     -42.923  58.360 -57.952  1.00  0.00     0.163 HD
HETATM   39  O   UNL     1     -44.742  60.837 -58.770  1.00  0.00    -0.268 OA
BRANCH  37  40
HETATM   40  C   UNL     1     -43.594  58.510 -59.952  1.00  0.00     0.084 C 
HETATM   41  C   UNL     1     -42.403  57.673 -60.433  1.00  0.00     0.025 C 
HETATM   42  C   UNL     1     -42.305  56.317 -59.736  1.00  0.00     0.002 C 
HETATM   43  C   UNL     1     -43.612  55.539 -59.830  1.00  0.00     0.000 C 
HETATM   44  C   UNL     1     -44.794  56.352 -59.309  1.00  0.00     0.002 C 
HETATM   45  C   UNL     1     -44.901  57.708 -60.010  1.00  0.00     0.025 C 
ENDBRANCH  37  40
ENDBRANCH  11  36
TORSDOF 8
ENDMDL
MODEL 7
REMARK VINA RESULT:      -8.0     17.782     20.853
REMARK  8 active torsions:
REMARK  status: ('A' for Active; 'I' for Inactive)
REMARK    1  A    between atoms: O_2  and  C_3 
REMARK    2  A    between atoms: C_6  and  N_7 
REMARK       I    between atoms: N_7  and  C_8 
REMARK    3  A    between atoms: C_8  and  C_9 
REMARK    4  A    between atoms: C_9  and  N_10 
REMARK    5  A    between atoms: N_13  and  C_14 
REMARK    6  A    between atoms: C_14  and  C_15 
REMARK    7  A    between atoms: C_30  and  C_31 
REMARK       I    between atoms: C_31  and  N_32 
REMARK    8  A    between atoms: N_32  and  C_33 
ROOT
HETATM    1  N   UNL     1     -36.251  39.129 -50.990  1.00  0.00    -0.290 N 
HETATM    2  C   UNL     1     -36.925  39.866 -51.954  1.00  0.00     0.332 C 
HETATM    3  O   UNL     1     -37.895  39.381 -52.545  1.00  0.00    -0.246 OA
HETATM    4  N   UNL     1     -36.444  41.135 -52.224  1.00  0.00    -0.261 N 
HETATM    5  C   UNL     1     -35.228  41.629 -51.772  1.00  0.00     0.264 C 
HETATM    6  O   UNL     1     -34.773  42.728 -52.080  1.00  0.00    -0.267 OA
HETATM    7  C   UNL     1     -34.445  40.751 -50.885  1.00  0.00     0.059 A 
HETATM    8  C   UNL     1     -34.986  39.531 -50.484  1.00  0.00     0.056 A 
HETATM    9  C   UNL     1     -33.175  41.158 -50.449  1.00  0.00     0.020 A 
HETATM   10  C   UNL     1     -32.421  40.325 -49.623  1.00  0.00     0.018 A 
HETATM   11  C   UNL     1     -32.938  39.093 -49.218  1.00  0.00     0.034 A 
HETATM   12  C   UNL     1     -34.231  38.722 -49.619  1.00  0.00     0.048 A 
ENDROOT
BRANCH   1  13
HETATM   13  C   UNL     1     -36.841  37.845 -50.601  1.00  0.00     0.237 C 
BRANCH  13  14
HETATM   14  C   UNL     1     -38.160  38.045 -49.852  1.00  0.00     0.240 C 
HETATM   15  N   UNL     1     -39.260  37.610 -50.572  1.00  0.00    -0.326 N 
HETATM   16  H   UNL     1     -39.065  37.167 -51.469  1.00  0.00     0.169 HD
HETATM   17  O   UNL     1     -38.161  38.515 -48.716  1.00  0.00    -0.271 OA
BRANCH  15  18
HETATM   18  C   UNL     1     -40.616  37.704 -50.201  1.00  0.00     0.034 A 
HETATM   19  C   UNL     1     -41.419  38.599 -50.918  1.00  0.00     0.032 A 
HETATM   20  C   UNL     1     -42.770  38.781 -50.588  1.00  0.00     0.039 A 
HETATM   21  C   UNL     1     -43.333  38.066 -49.534  1.00  0.00     0.068 A 
HETATM   22  C   UNL     1     -42.542  37.158 -48.833  1.00  0.00     0.039 A 
HETATM   23  C   UNL     1     -41.192  36.978 -49.159  1.00  0.00     0.032 A 
BRANCH  21  24
HETATM   24  O   UNL     1     -44.627  38.155 -49.101  1.00  0.00    -0.356 OA
HETATM   25  C   UNL     1     -45.106  37.087 -48.294  1.00  0.00     0.210 C 
ENDBRANCH  21  24
ENDBRANCH  15  18
ENDBRANCH  13  14
ENDBRANCH   1  13
BRANCH   4  26
HETATM   26  C   UNL     1     -37.255  42.011 -53.061  1.00  0.00     0.175 C 
BRANCH  26  27
HETATM   27  C   UNL     1     -36.930  41.819 -54.531  1.00  0.00    -0.037 A 
HETATM   28  C   UNL     1     -37.847  41.178 -55.381  1.00  0.00     0.048 A 
HETATM   29  C   UNL     1     -37.491  40.991 -56.701  1.00  0.00     0.105 A 
HETATM   30  C   UNL     1     -36.274  41.404 -57.189  1.00  0.00     0.105 A 
HETATM   31  O   UNL     1     -38.255  40.394 -57.654  1.00  0.00    -0.323 OA
HETATM   32  O   UNL     1     -36.119  41.118 -58.509  1.00  0.00    -0.323 OA
HETATM   33  C   UNL     1     -35.346  42.029 -56.387  1.00  0.00     0.040 A 
HETATM   34  C   UNL     1     -37.382  40.482 -58.798  1.00  0.00     0.352 A 
HETATM   35  C   UNL     1     -35.680  42.238 -55.045  1.00  0.00     0.012 A 
ENDBRANCH  26  27
ENDBRANCH   4  26
BRANCH  11  36
HETATM   36  C   UNL     1     -32.094  38.206 -48.366  1.00  0.00     0.252 C 
HETATM   37  N   UNL     1     -31.569  38.769 -47.220  1.00  0.00    -0.352 N 
HETATM   38  H   UNL     1     -31.913  39.668 -46.906  1.00  0.00     0.163 HD
HETATM   39  O   UNL     1     -31.924  37.036 -48.692  1.00  0.00    -0.268 OA
BRANCH  37  40
HETATM   40  C   UNL     1     -30.812  37.988 -46.245  1.00  0.00     0.084 C 
HETATM   41  C   UNL     1     -29.396  38.553 -46.086  1.00  0.00     0.025 C 
HETATM   42  C   UNL     1     -29.366  39.887 -45.341  1.00  0.00     0.002 C 
HETATM   43  C   UNL     1     -30.092  39.802 -44.004  1.00  0.00     0.000 C 
HETATM   44  C   UNL     1     -31.517  39.284 -44.164  1.00  0.00     0.002 C 
HETATM   45  C   UNL     1     -31.552  37.944 -44.902  1.00  0.00     0.025 C 
ENDBRANCH  37  40
ENDBRANCH  11  36
TORSDOF 8
ENDMDL
MODEL 8
REMARK VINA RESULT:      -8.0     18.136     20.501
REMARK  8 active torsions:
REMARK  status: ('A' for Active; 'I' for Inactive)
REMARK    1  A    between atoms: O_2  and  C_3 
REMARK    2  A    between atoms: C_6  and  N_7 
REMARK       I    between atoms: N_7  and  C_8 
REMARK    3  A    between atoms: C_8  and  C_9 
REMARK    4  A    between atoms: C_9  and  N_10 
REMARK    5  A    between atoms: N_13  and  C_14 
REMARK    6  A    between atoms: C_14  and  C_15 
REMARK    7  A    between atoms: C_30  and  C_31 
REMARK       I    between atoms: C_31  and  N_32 
REMARK    8  A    between atoms: N_32  and  C_33 
ROOT
HETATM    1  N   UNL     1     -36.124  40.461 -51.303  1.00  0.00    -0.290 N 
HETATM    2  C   UNL     1     -34.840  40.629 -51.804  1.00  0.00     0.332 C 
HETATM    3  O   UNL     1     -34.667  41.131 -52.920  1.00  0.00    -0.246 OA
HETATM    4  N   UNL     1     -33.794  40.192 -51.011  1.00  0.00    -0.261 N 
HETATM    5  C   UNL     1     -33.942  39.411 -49.873  1.00  0.00     0.264 C 
HETATM    6  O   UNL     1     -33.003  38.963 -49.219  1.00  0.00    -0.267 OA
HETATM    7  C   UNL     1     -35.320  39.097 -49.459  1.00  0.00     0.059 A 
HETATM    8  C   UNL     1     -36.386  39.655 -50.163  1.00  0.00     0.056 A 
HETATM    9  C   UNL     1     -35.540  38.253 -48.361  1.00  0.00     0.020 A 
HETATM   10  C   UNL     1     -36.842  37.939 -47.973  1.00  0.00     0.018 A 
HETATM   11  C   UNL     1     -37.926  38.477 -48.671  1.00  0.00     0.034 A 
HETATM   12  C   UNL     1     -37.691  39.362 -49.735  1.00  0.00     0.048 A 
ENDROOT
BRANCH   1  13
HETATM   13  C   UNL     1     -37.222  41.050 -52.075  1.00  0.00     0.237 C 
BRANCH  13  14
HETATM   14  C   UNL     1     -37.220  40.544 -53.518  1.00  0.00     0.240 C 
HETATM   15  N   UNL     1     -37.206  41.569 -54.449  1.00  0.00    -0.326 N 
HETATM   16  H   UNL     1     -37.143  42.516 -54.076  1.00  0.00     0.169 HD
HETATM   17  O   UNL     1     -37.195  39.336 -53.750  1.00  0.00    -0.271 OA
BRANCH  15  18
HETATM   18  C   UNL     1     -37.261  41.451 -55.852  1.00  0.00     0.034 A 
HETATM   19  C   UNL     1     -36.220  42.030 -56.588  1.00  0.00     0.032 A 
HETATM   20  C   UNL     1     -36.218  41.991 -57.990  1.00  0.00     0.039 A 
HETATM   21  C   UNL     1     -37.262  41.369 -58.672  1.00  0.00     0.068 A 
HETATM   22  C   UNL     1     -38.288  40.773 -57.941  1.00  0.00     0.039 A 
HETATM   23  C   UNL     1     -38.292  40.815 -56.542  1.00  0.00     0.032 A 
BRANCH  21  24
HETATM   24  O   UNL     1     -37.391  41.270 -60.029  1.00  0.00    -0.356 OA
HETATM   25  C   UNL     1     -37.435  39.957 -60.574  1.00  0.00     0.210 C 
ENDBRANCH  21  24
ENDBRANCH  15  18
ENDBRANCH  13  14
ENDBRANCH   1  13
BRANCH   4  26
HETATM   26  C   UNL     1     -32.438  40.555 -51.406  1.00  0.00     0.175 C 
BRANCH  26  27
HETATM   27  C   UNL     1     -31.969  39.720 -52.583  1.00  0.00    -0.037 A 
HETATM   28  C   UNL     1     -31.786  40.312 -53.844  1.00  0.00     0.048 A 
HETATM   29  C   UNL     1     -31.397  39.505 -54.892  1.00  0.00     0.105 A 
HETATM   30  C   UNL     1     -31.196  38.155 -54.732  1.00  0.00     0.105 A 
HETATM   31  O   UNL     1     -31.175  39.913 -56.170  1.00  0.00    -0.323 OA
HETATM   32  O   UNL     1     -30.824  37.544 -55.889  1.00  0.00    -0.323 OA
HETATM   33  C   UNL     1     -31.371  37.535 -53.516  1.00  0.00     0.040 A 
HETATM   34  C   UNL     1     -30.808  38.666 -56.795  1.00  0.00     0.352 A 
HETATM   35  C   UNL     1     -31.761  38.328 -52.431  1.00  0.00     0.012 A 
ENDBRANCH  26  27
ENDBRANCH   4  26
BRANCH  11  36
HETATM   36  C   UNL     1     -39.307  38.093 -48.259  1.00  0.00     0.252 C 
HETATM   37  N   UNL     1     -39.600  38.193 -46.913  1.00  0.00    -0.352 N 
HETATM   38  H   UNL     1     -38.960  38.684 -46.301  1.00  0.00     0.163 HD
HETATM   39  O   UNL     1     -40.116  37.737 -49.108  1.00  0.00    -0.268 OA
BRANCH  37  40
HETATM   40  C   UNL     1     -40.940  37.948 -46.387  1.00  0.00     0.084 C 
HETATM   41  C   UNL     1     -40.867  37.433 -44.945  1.00  0.00     0.025 C 
HETATM   42  C   UNL     1     -40.453  38.513 -43.946  1.00  0.00     0.002 C 
HETATM   43  C   UNL     1     -41.336  39.751 -44.057  1.00  0.00     0.000 C 
HETATM   44  C   UNL     1     -41.374  40.293 -45.483  1.00  0.00     0.002 C 
HETATM   45  C   UNL     1     -41.796  39.218 -46.486  1.00  0.00     0.025 C 
ENDBRANCH  37  40
ENDBRANCH  11  36
TORSDOF 8
ENDMDL
MODEL 9
REMARK VINA RESULT:      -8.0      2.696      9.226
REMARK  8 active torsions:
REMARK  status: ('A' for Active; 'I' for Inactive)
REMARK    1  A    between atoms: O_2  and  C_3 
REMARK    2  A    between atoms: C_6  and  N_7 
REMARK       I    between atoms: N_7  and  C_8 
REMARK    3  A    between atoms: C_8  and  C_9 
REMARK    4  A    between atoms: C_9  and  N_10 
REMARK    5  A    between atoms: N_13  and  C_14 
REMARK    6  A    between atoms: C_14  and  C_15 
REMARK    7  A    between atoms: C_30  and  C_31 
REMARK       I    between atoms: C_31  and  N_32 
REMARK    8  A    between atoms: N_32  and  C_33 
ROOT
HETATM    1  N   UNL     1     -42.542  58.143 -52.836  1.00  0.00    -0.290 N 
HETATM    2  C   UNL     1     -43.530  59.104 -52.668  1.00  0.00     0.332 C 
HETATM    3  O   UNL     1     -43.370  60.247 -53.107  1.00  0.00    -0.246 OA
HETATM    4  N   UNL     1     -44.667  58.721 -51.977  1.00  0.00    -0.261 N 
HETATM    5  C   UNL     1     -44.793  57.538 -51.261  1.00  0.00     0.264 C 
HETATM    6  O   UNL     1     -45.776  57.242 -50.587  1.00  0.00    -0.267 OA
HETATM    7  C   UNL     1     -43.652  56.608 -51.313  1.00  0.00     0.059 A 
HETATM    8  C   UNL     1     -42.561  56.913 -52.126  1.00  0.00     0.056 A 
HETATM    9  C   UNL     1     -43.683  55.428 -50.556  1.00  0.00     0.020 A 
HETATM   10  C   UNL     1     -42.599  54.551 -50.587  1.00  0.00     0.018 A 
HETATM   11  C   UNL     1     -41.491  54.841 -51.386  1.00  0.00     0.034 A 
HETATM   12  C   UNL     1     -41.496  55.999 -52.179  1.00  0.00     0.048 A 
ENDROOT
BRANCH   1  13
HETATM   13  C   UNL     1     -41.404  58.502 -53.687  1.00  0.00     0.237 C 
BRANCH  13  14
HETATM   14  C   UNL     1     -41.809  58.556 -55.161  1.00  0.00     0.240 C 
HETATM   15  N   UNL     1     -42.475  57.416 -55.580  1.00  0.00    -0.326 N 
HETATM   16  H   UNL     1     -42.663  56.715 -54.863  1.00  0.00     0.169 HD
HETATM   17  O   UNL     1     -41.568  59.558 -55.832  1.00  0.00    -0.271 OA
BRANCH  15  18
HETATM   18  C   UNL     1     -42.927  57.118 -56.881  1.00  0.00     0.034 A 
HETATM   19  C   UNL     1     -42.859  55.783 -57.296  1.00  0.00     0.032 A 
HETATM   20  C   UNL     1     -43.253  55.408 -58.588  1.00  0.00     0.039 A 
HETATM   21  C   UNL     1     -43.721  56.369 -59.482  1.00  0.00     0.068 A 
HETATM   22  C   UNL     1     -43.810  57.696 -59.064  1.00  0.00     0.039 A 
HETATM   23  C   UNL     1     -43.413  58.072 -57.775  1.00  0.00     0.032 A 
BRANCH  21  24
HETATM   24  O   UNL     1     -44.124  56.145 -60.769  1.00  0.00    -0.356 OA
HETATM   25  C   UNL     1     -45.089  55.119 -60.968  1.00  0.00     0.210 C 
ENDBRANCH  21  24
ENDBRANCH  15  18
ENDBRANCH  13  14
ENDBRANCH   1  13
BRANCH   4  26
HETATM   26  C   UNL     1     -45.807  59.630 -51.978  1.00  0.00     0.175 C 
BRANCH  26  27
HETATM   27  C   UNL     1     -45.639  60.719 -50.935  1.00  0.00    -0.037 A 
HETATM   28  C   UNL     1     -45.436  60.382 -49.586  1.00  0.00     0.048 A 
HETATM   29  C   UNL     1     -45.330  61.407 -48.668  1.00  0.00     0.105 A 
HETATM   30  C   UNL     1     -45.426  62.726 -49.039  1.00  0.00     0.105 A 
HETATM   31  O   UNL     1     -45.131  61.258 -47.330  1.00  0.00    -0.323 OA
HETATM   32  O   UNL     1     -45.301  63.574 -47.982  1.00  0.00    -0.323 OA
HETATM   33  C   UNL     1     -45.631  63.098 -50.348  1.00  0.00     0.040 A 
HETATM   34  C   UNL     1     -45.109  62.635 -46.903  1.00  0.00     0.352 A 
HETATM   35  C   UNL     1     -45.738  62.082 -51.304  1.00  0.00     0.012 A 
ENDBRANCH  26  27
ENDBRANCH   4  26
BRANCH  11  36
HETATM   36  C   UNL     1     -40.330  53.904 -51.371  1.00  0.00     0.252 C 
HETATM   37  N   UNL     1     -40.279  52.968 -52.385  1.00  0.00    -0.352 N 
HETATM   38  H   UNL     1     -40.898  53.064 -53.180  1.00  0.00     0.163 HD
HETATM   39  O   UNL     1     -39.475  54.012 -50.498  1.00  0.00    -0.268 OA
BRANCH  37  40
HETATM   40  C   UNL     1     -39.149  52.058 -52.549  1.00  0.00     0.084 C 
HETATM   41  C   UNL     1     -39.246  50.894 -51.557  1.00  0.00     0.025 C 
HETATM   42  C   UNL     1     -40.354  49.902 -51.906  1.00  0.00     0.002 C 
HETATM   43  C   UNL     1     -40.235  49.408 -53.343  1.00  0.00     0.000 C 
HETATM   44  C   UNL     1     -40.185  50.563 -54.338  1.00  0.00     0.002 C 
HETATM   45  C   UNL     1     -39.071  51.555 -53.997  1.00  0.00     0.025 C 
ENDBRANCH  37  40
ENDBRANCH  11  36
TORSDOF 8
ENDMDL
MODEL 10
REMARK VINA RESULT:      -7.6     18.038     20.951
REMARK  8 active torsions:
REMARK  status: ('A' for Active; 'I' for Inactive)
REMARK    1  A    between atoms: O_2  and  C_3 
REMARK    2  A    between atoms: C_6  and  N_7 
REMARK       I    between atoms: N_7  and  C_8 
REMARK    3  A    between atoms: C_8  and  C_9 
REMARK    4  A    between atoms: C_9  and  N_10 
REMARK    5  A    between atoms: N_13  and  C_14 
REMARK    6  A    between atoms: C_14  and  C_15 
REMARK    7  A    between atoms: C_30  and  C_31 
REMARK       I    between atoms: C_31  and  N_32 
REMARK    8  A    between atoms: N_32  and  C_33 
ROOT
HETATM    1  N   UNL     1     -36.388  38.983 -50.462  1.00  0.00    -0.290 N 
HETATM    2  C   UNL     1     -37.149  39.537 -51.482  1.00  0.00     0.332 C 
HETATM    3  O   UNL     1     -38.245  39.050 -51.777  1.00  0.00    -0.246 OA
HETATM    4  N   UNL     1     -36.611  40.626 -52.148  1.00  0.00    -0.261 N 
HETATM    5  C   UNL     1     -35.297  41.054 -52.021  1.00  0.00     0.264 C 
HETATM    6  O   UNL     1     -34.807  41.973 -52.674  1.00  0.00    -0.267 OA
HETATM    7  C   UNL     1     -34.454  40.332 -51.054  1.00  0.00     0.059 A 
HETATM    8  C   UNL     1     -35.024  39.331 -50.268  1.00  0.00     0.056 A 
HETATM    9  C   UNL     1     -33.098  40.666 -50.928  1.00  0.00     0.020 A 
HETATM   10  C   UNL     1     -32.290  39.975 -50.025  1.00  0.00     0.018 A 
HETATM   11  C   UNL     1     -32.836  38.961 -49.236  1.00  0.00     0.034 A 
HETATM   12  C   UNL     1     -34.207  38.673 -49.334  1.00  0.00     0.048 A 
ENDROOT
BRANCH   1  13
HETATM   13  C   UNL     1     -37.013  37.925 -49.664  1.00  0.00     0.237 C 
BRANCH  13  14
HETATM   14  C   UNL     1     -37.756  38.505 -48.459  1.00  0.00     0.240 C 
HETATM   15  N   UNL     1     -38.790  37.693 -48.022  1.00  0.00    -0.326 N 
HETATM   16  H   UNL     1     -38.897  36.800 -48.503  1.00  0.00     0.169 HD
HETATM   17  O   UNL     1     -37.392  39.569 -47.962  1.00  0.00    -0.271 OA
BRANCH  15  18
HETATM   18  C   UNL     1     -39.703  37.957 -46.982  1.00  0.00     0.034 A 
HETATM   19  C   UNL     1     -40.919  38.557 -47.331  1.00  0.00     0.032 A 
HETATM   20  C   UNL     1     -41.867  38.888 -46.353  1.00  0.00     0.039 A 
HETATM   21  C   UNL     1     -41.608  38.622 -45.010  1.00  0.00     0.068 A 
HETATM   22  C   UNL     1     -40.407  38.004 -44.663  1.00  0.00     0.039 A 
HETATM   23  C   UNL     1     -39.458  37.677 -45.638  1.00  0.00     0.032 A 
BRANCH  21  24
HETATM   24  O   UNL     1     -42.435  38.902 -43.959  1.00  0.00    -0.356 OA
HETATM   25  C   UNL     1     -42.283  38.101 -42.794  1.00  0.00     0.210 C 
ENDBRANCH  21  24
ENDBRANCH  15  18
ENDBRANCH  13  14
ENDBRANCH   1  13
BRANCH   4  26
HETATM   26  C   UNL     1     -37.474  41.362 -53.063  1.00  0.00     0.175 C 
BRANCH  26  27
HETATM   27  C   UNL     1     -37.178  40.998 -54.506  1.00  0.00    -0.037 A 
HETATM   28  C   UNL     1     -37.361  41.945 -55.528  1.00  0.00     0.048 A 
HETATM   29  C   UNL     1     -37.117  41.556 -56.829  1.00  0.00     0.105 A 
HETATM   30  C   UNL     1     -36.715  40.279 -57.140  1.00  0.00     0.105 A 
HETATM   31  O   UNL     1     -37.242  42.343 -57.931  1.00  0.00    -0.323 OA
HETATM   32  O   UNL     1     -36.537  40.102 -58.477  1.00  0.00    -0.323 OA
HETATM   33  C   UNL     1     -36.530  39.320 -56.170  1.00  0.00     0.040 A 
HETATM   34  C   UNL     1     -36.869  41.416 -58.971  1.00  0.00     0.352 A 
HETATM   35  C   UNL     1     -36.765  39.686 -54.840  1.00  0.00     0.012 A 
ENDBRANCH  26  27
ENDBRANCH   4  26
BRANCH  11  36
HETATM   36  C   UNL     1     -31.941  38.213 -48.307  1.00  0.00     0.252 C 
HETATM   37  N   UNL     1     -31.207  38.969 -47.414  1.00  0.00    -0.352 N 
HETATM   38  H   UNL     1     -31.432  39.948 -47.292  1.00  0.00     0.163 HD
HETATM   39  O   UNL     1     -31.908  36.988 -48.352  1.00  0.00    -0.268 OA
BRANCH  37  40
HETATM   40  C   UNL     1     -30.370  38.361 -46.383  1.00  0.00     0.084 C 
HETATM   41  C   UNL     1     -29.237  39.312 -45.981  1.00  0.00     0.025 C 
HETATM   42  C   UNL     1     -29.723  40.510 -45.166  1.00  0.00     0.002 C 
HETATM   43  C   UNL     1     -30.546  40.074 -43.959  1.00  0.00     0.000 C 
HETATM   44  C   UNL     1     -31.703  39.165 -44.361  1.00  0.00     0.002 C 
HETATM   45  C   UNL     1     -31.221  37.959 -45.170  1.00  0.00     0.025 C 
ENDBRANCH  37  40
ENDBRANCH  11  36
TORSDOF 8
ENDMDL
