MODEL 1
REMARK VINA RESULT:      -8.3      0.000      0.000
REMARK  5 active torsions:
REMARK  status: ('A' for Active; 'I' for Inactive)
REMARK    1  A    between atoms: C_2  and  N_3 
REMARK       I    between atoms: N_3  and  C_4 
REMARK       I    between atoms: C_4  and  N_5 
REMARK    2  A    between atoms: C_7  and  C_8 
REMARK    3  A    between atoms: C_13  and  N_14 
REMARK       I    between atoms: N_14  and  C_15 
REMARK    4  A    between atoms: C_15  and  C_16 
REMARK    5  A    between atoms: C_19  and  O_20 
ROOT
HETATM    1  C   UNL     1     -42.565  58.423 -52.427  1.00  0.00     0.088 A 
HETATM    2  N   UNL     1     -42.845  59.492 -51.657  1.00  0.00    -0.177 NA
HETATM    3  N   UNL     1     -42.128  59.305 -50.541  1.00  0.00    -0.287 N 
HETATM    4  H   UNL     1     -42.202  59.998 -49.805  1.00  0.00     0.188 HD
HETATM    5  C   UNL     1     -41.348  58.191 -50.573  1.00  0.00     0.141 A 
HETATM    6  C   UNL     1     -41.670  57.543 -51.741  1.00  0.00     0.079 A 
ENDROOT
BRANCH   1   7
HETATM    7  C   UNL     1     -43.019  58.408 -53.877  1.00  0.00     0.060 C 
HETATM    8  C   UNL     1     -43.807  57.156 -54.286  1.00  0.00     0.138 C 
HETATM    9  N   UNL     1     -44.204  57.201 -55.697  1.00  0.00    -0.334 N 
HETATM   10  C   UNL     1     -43.399  56.541 -56.618  1.00  0.00     0.318 C 
HETATM   11  C   UNL     1     -45.052  58.339 -56.039  1.00  0.00     0.127 C 
HETATM   12  N   UNL     1     -43.914  56.514 -57.891  1.00  0.00    -0.339 N 
HETATM   13  O   UNL     1     -42.334  56.004 -56.324  1.00  0.00    -0.247 OA
HETATM   14  H   UNL     1     -44.923  56.509 -57.909  1.00  0.00     0.164 HD
HETATM   15  C   UNL     1     -44.315  59.637 -55.718  1.00  0.00     0.021 C 
HETATM   16  C   UNL     1     -43.850  59.664 -54.259  1.00  0.00     0.014 C 
BRANCH  12  17
HETATM   17  C   UNL     1     -43.256  55.766 -58.954  1.00  0.00     0.078 C 
HETATM   18  C   UNL     1     -42.572  56.731 -59.917  1.00  0.00     0.032 C 
HETATM   19  C   UNL     1     -44.256  54.883 -59.699  1.00  0.00     0.032 C 
ENDBRANCH  12  17
ENDBRANCH   1   7
BRANCH   6  20
HETATM   20  N   UNL     1     -41.116  56.332 -52.113  1.00  0.00    -0.320 N 
HETATM   21  C   UNL     1     -41.828  55.161 -51.902  1.00  0.00     0.256 C 
HETATM   22  O   UNL     1     -42.928  55.075 -51.366  1.00  0.00    -0.267 OA
HETATM   23  H   UNL     1     -40.124  56.227 -51.929  1.00  0.00     0.169 HD
BRANCH  21  24
HETATM   24  C   UNL     1     -41.123  53.923 -52.320  1.00  0.00     0.032 A 
HETATM   25  C   UNL     1     -41.153  53.546 -53.663  1.00  0.00     0.020 A 
HETATM   26  C   UNL     1     -40.470  52.400 -54.075  1.00  0.00     0.038 A 
HETATM   27  C   UNL     1     -39.730  51.647 -53.159  1.00  0.00     0.068 A 
HETATM   28  C   UNL     1     -39.702  52.028 -51.815  1.00  0.00     0.038 A 
HETATM   29  C   UNL     1     -40.394  53.167 -51.394  1.00  0.00     0.020 A 
BRANCH  27  30
HETATM   30  O   UNL     1     -39.088  50.562 -53.690  1.00  0.00    -0.356 OA
HETATM   31  C   UNL     1     -39.846  49.773 -54.601  1.00  0.00     0.210 C 
ENDBRANCH  27  30
ENDBRANCH  21  24
ENDBRANCH   6  20
TORSDOF 5
ENDMDL
MODEL 2
REMARK VINA RESULT:      -7.9      2.427      5.695
REMARK  5 active torsions:
REMARK  status: ('A' for Active; 'I' for Inactive)
REMARK    1  A    between atoms: C_2  and  N_3 
REMARK       I    between atoms: N_3  and  C_4 
REMARK       I    between atoms: C_4  and  N_5 
REMARK    2  A    between atoms: C_7  and  C_8 
REMARK    3  A    between atoms: C_13  and  N_14 
REMARK       I    between atoms: N_14  and  C_15 
REMARK    4  A    between atoms: C_15  and  C_16 
REMARK    5  A    between atoms: C_19  and  O_20 
ROOT
HETATM    1  C   UNL     1     -42.392  57.846 -55.265  1.00  0.00     0.088 A 
HETATM    2  N   UNL     1     -43.099  58.477 -56.222  1.00  0.00    -0.177 NA
HETATM    3  N   UNL     1     -43.279  57.556 -57.176  1.00  0.00    -0.287 N 
HETATM    4  H   UNL     1     -43.784  57.827 -58.013  1.00  0.00     0.188 HD
HETATM    5  C   UNL     1     -42.771  56.334 -56.860  1.00  0.00     0.141 A 
HETATM    6  C   UNL     1     -42.109  56.503 -55.668  1.00  0.00     0.079 A 
ENDROOT
BRANCH   1   7
HETATM    7  C   UNL     1     -42.202  58.514 -53.914  1.00  0.00     0.060 C 
HETATM    8  C   UNL     1     -43.186  58.053 -52.830  1.00  0.00     0.138 C 
HETATM    9  N   UNL     1     -42.956  58.745 -51.557  1.00  0.00    -0.334 N 
HETATM   10  C   UNL     1     -43.742  59.854 -51.272  1.00  0.00     0.318 C 
HETATM   11  C   UNL     1     -41.621  58.538 -51.003  1.00  0.00     0.127 C 
HETATM   12  N   UNL     1     -43.560  60.357 -50.006  1.00  0.00    -0.339 N 
HETATM   13  O   UNL     1     -44.549  60.335 -52.064  1.00  0.00    -0.247 OA
HETATM   14  H   UNL     1     -43.307  59.649 -49.333  1.00  0.00     0.164 HD
HETATM   15  C   UNL     1     -40.575  59.031 -51.999  1.00  0.00     0.021 C 
HETATM   16  C   UNL     1     -40.756  58.366 -53.367  1.00  0.00     0.014 C 
BRANCH  12  17
HETATM   17  C   UNL     1     -44.384  61.447 -49.503  1.00  0.00     0.078 C 
HETATM   18  C   UNL     1     -43.687  62.780 -49.755  1.00  0.00     0.032 C 
HETATM   19  C   UNL     1     -44.675  61.268 -48.013  1.00  0.00     0.032 C 
ENDBRANCH  12  17
ENDBRANCH   1   7
BRANCH   6  20
HETATM   20  N   UNL     1     -41.413  55.487 -55.037  1.00  0.00    -0.320 N 
HETATM   21  C   UNL     1     -42.087  54.622 -54.188  1.00  0.00     0.256 C 
HETATM   22  O   UNL     1     -43.276  54.684 -53.894  1.00  0.00    -0.267 OA
HETATM   23  H   UNL     1     -40.491  55.732 -54.698  1.00  0.00     0.169 HD
BRANCH  21  24
HETATM   24  C   UNL     1     -41.232  53.589 -53.552  1.00  0.00     0.032 A 
HETATM   25  C   UNL     1     -41.088  53.589 -52.163  1.00  0.00     0.020 A 
HETATM   26  C   UNL     1     -40.310  52.605 -51.549  1.00  0.00     0.038 A 
HETATM   27  C   UNL     1     -39.702  51.603 -52.310  1.00  0.00     0.068 A 
HETATM   28  C   UNL     1     -39.848  51.606 -53.699  1.00  0.00     0.038 A 
HETATM   29  C   UNL     1     -40.615  52.596 -54.322  1.00  0.00     0.020 A 
BRANCH  27  30
HETATM   30  O   UNL     1     -38.987  50.686 -51.589  1.00  0.00    -0.356 OA
HETATM   31  C   UNL     1     -39.735  49.889 -50.677  1.00  0.00     0.210 C 
ENDBRANCH  27  30
ENDBRANCH  21  24
ENDBRANCH   6  20
TORSDOF 5
ENDMDL
MODEL 3
REMARK VINA RESULT:      -7.9      2.447      7.448
REMARK  5 active torsions:
REMARK  status: ('A' for Active; 'I' for Inactive)
REMARK    1  A    between atoms: C_2  and  N_3 
REMARK       I    between atoms: N_3  and  C_4 
REMARK       I    between atoms: C_4  and  N_5 
REMARK    2  A    between atoms: C_7  and  C_8 
REMARK    3  A    between atoms: C_13  and  N_14 
REMARK       I    between atoms: N_14  and  C_15 
REMARK    4  A    between atoms: C_15  and  C_16 
REMARK    5  A    between atoms: C_19  and  O_20 
ROOT
HETATM    1  C   UNL     1     -40.437  52.646 -52.592  1.00  0.00     0.088 A 
HETATM    2  N   UNL     1     -39.747  51.528 -52.295  1.00  0.00    -0.177 NA
HETATM    3  N   UNL     1     -39.786  50.796 -53.415  1.00  0.00    -0.287 N 
HETATM    4  H   UNL     1     -39.332  49.889 -53.408  1.00  0.00     0.188 HD
HETATM    5  C   UNL     1     -40.421  51.411 -54.448  1.00  0.00     0.141 A 
HETATM    6  C   UNL     1     -40.936  52.575 -53.931  1.00  0.00     0.079 A 
ENDROOT
BRANCH   1   7
HETATM    7  C   UNL     1     -40.403  53.822 -51.630  1.00  0.00     0.060 C 
HETATM    8  C   UNL     1     -41.687  54.664 -51.608  1.00  0.00     0.138 C 
HETATM    9  N   UNL     1     -41.583  55.786 -50.669  1.00  0.00    -0.334 N 
HETATM   10  C   UNL     1     -41.222  57.027 -51.180  1.00  0.00     0.318 C 
HETATM   11  C   UNL     1     -41.341  55.384 -49.287  1.00  0.00     0.127 C 
HETATM   12  N   UNL     1     -41.284  58.049 -50.263  1.00  0.00    -0.339 N 
HETATM   13  O   UNL     1     -40.901  57.210 -52.352  1.00  0.00    -0.247 OA
HETATM   14  H   UNL     1     -41.995  57.906 -49.561  1.00  0.00     0.164 HD
HETATM   15  C   UNL     1     -40.042  54.587 -49.209  1.00  0.00     0.021 C 
HETATM   16  C   UNL     1     -40.061  53.399 -50.176  1.00  0.00     0.014 C 
BRANCH  12  17
HETATM   17  C   UNL     1     -41.050  59.430 -50.658  1.00  0.00     0.078 C 
HETATM   18  C   UNL     1     -39.664  59.872 -50.196  1.00  0.00     0.032 C 
HETATM   19  C   UNL     1     -42.126  60.352 -50.085  1.00  0.00     0.032 C 
ENDBRANCH  12  17
ENDBRANCH   1   7
BRANCH   6  20
HETATM   20  N   UNL     1     -41.698  53.461 -54.670  1.00  0.00    -0.320 N 
HETATM   21  C   UNL     1     -41.122  54.631 -55.141  1.00  0.00     0.256 C 
HETATM   22  O   UNL     1     -39.970  54.999 -54.934  1.00  0.00    -0.267 OA
HETATM   23  H   UNL     1     -42.651  53.593 -54.351  1.00  0.00     0.169 HD
BRANCH  21  24
HETATM   24  C   UNL     1     -42.043  55.512 -55.901  1.00  0.00     0.032 A 
HETATM   25  C   UNL     1     -42.192  56.842 -55.502  1.00  0.00     0.020 A 
HETATM   26  C   UNL     1     -43.033  57.691 -56.225  1.00  0.00     0.038 A 
HETATM   27  C   UNL     1     -43.701  57.228 -57.362  1.00  0.00     0.068 A 
HETATM   28  C   UNL     1     -43.550  55.897 -57.758  1.00  0.00     0.038 A 
HETATM   29  C   UNL     1     -42.719  55.038 -57.031  1.00  0.00     0.020 A 
BRANCH  27  30
HETATM   30  O   UNL     1     -44.476  58.162 -57.995  1.00  0.00    -0.356 OA
HETATM   31  C   UNL     1     -45.520  57.652 -58.817  1.00  0.00     0.210 C 
ENDBRANCH  27  30
ENDBRANCH  21  24
ENDBRANCH   6  20
TORSDOF 5
ENDMDL
MODEL 4
REMARK VINA RESULT:      -7.6      2.708      6.484
REMARK  5 active torsions:
REMARK  status: ('A' for Active; 'I' for Inactive)
REMARK    1  A    between atoms: C_2  and  N_3 
REMARK       I    between atoms: N_3  and  C_4 
REMARK       I    between atoms: C_4  and  N_5 
REMARK    2  A    between atoms: C_7  and  C_8 
REMARK    3  A    between atoms: C_13  and  N_14 
REMARK       I    between atoms: N_14  and  C_15 
REMARK    4  A    between atoms: C_15  and  C_16 
REMARK    5  A    between atoms: C_19  and  O_20 
ROOT
HETATM    1  C   UNL     1     -40.902  54.593 -51.015  1.00  0.00     0.088 A 
HETATM    2  N   UNL     1     -40.275  53.634 -50.306  1.00  0.00    -0.177 NA
HETATM    3  N   UNL     1     -40.441  53.994 -49.027  1.00  0.00    -0.287 N 
HETATM    4  H   UNL     1     -40.029  53.408 -48.309  1.00  0.00     0.188 HD
HETATM    5  C   UNL     1     -41.198  55.112 -48.867  1.00  0.00     0.141 A 
HETATM    6  C   UNL     1     -41.441  55.583 -50.135  1.00  0.00     0.079 A 
ENDROOT
BRANCH   1   7
HETATM    7  C   UNL     1     -41.125  54.394 -52.505  1.00  0.00     0.060 C 
HETATM    8  C   UNL     1     -40.593  55.532 -53.387  1.00  0.00     0.138 C 
HETATM    9  N   UNL     1     -40.851  55.282 -54.810  1.00  0.00    -0.334 N 
HETATM   10  C   UNL     1     -41.975  55.869 -55.377  1.00  0.00     0.318 C 
HETATM   11  C   UNL     1     -40.238  54.059 -55.318  1.00  0.00     0.127 C 
HETATM   12  N   UNL     1     -42.067  55.701 -56.737  1.00  0.00    -0.339 N 
HETATM   13  O   UNL     1     -42.805  56.506 -54.732  1.00  0.00    -0.247 OA
HETATM   14  H   UNL     1     -41.166  55.640 -57.189  1.00  0.00     0.164 HD
HETATM   15  C   UNL     1     -40.762  52.862 -54.529  1.00  0.00     0.021 C 
HETATM   16  C   UNL     1     -40.546  53.051 -53.025  1.00  0.00     0.014 C 
BRANCH  12  17
HETATM   17  C   UNL     1     -43.121  56.347 -57.507  1.00  0.00     0.078 C 
HETATM   18  C   UNL     1     -43.514  55.465 -58.687  1.00  0.00     0.032 C 
HETATM   19  C   UNL     1     -42.674  57.726 -57.993  1.00  0.00     0.032 C 
ENDBRANCH  12  17
ENDBRANCH   1   7
BRANCH   6  20
HETATM   20  N   UNL     1     -42.147  56.745 -50.389  1.00  0.00    -0.320 N 
HETATM   21  C   UNL     1     -41.459  57.904 -50.717  1.00  0.00     0.256 C 
HETATM   22  O   UNL     1     -40.240  58.025 -50.773  1.00  0.00    -0.267 OA
HETATM   23  H   UNL     1     -42.942  56.917 -49.785  1.00  0.00     0.169 HD
BRANCH  21  24
HETATM   24  C   UNL     1     -42.321  59.091 -50.945  1.00  0.00     0.032 A 
HETATM   25  C   UNL     1     -43.537  58.929 -51.612  1.00  0.00     0.020 A 
HETATM   26  C   UNL     1     -44.371  60.032 -51.807  1.00  0.00     0.038 A 
HETATM   27  C   UNL     1     -44.012  61.289 -51.313  1.00  0.00     0.068 A 
HETATM   28  C   UNL     1     -42.794  61.448 -50.648  1.00  0.00     0.038 A 
HETATM   29  C   UNL     1     -41.948  60.350 -50.460  1.00  0.00     0.020 A 
BRANCH  27  30
HETATM   30  O   UNL     1     -44.923  62.282 -51.550  1.00  0.00    -0.356 OA
HETATM   31  C   UNL     1     -44.940  62.811 -52.871  1.00  0.00     0.210 C 
ENDBRANCH  27  30
ENDBRANCH  21  24
ENDBRANCH   6  20
TORSDOF 5
ENDMDL
MODEL 5
REMARK VINA RESULT:      -7.5      1.739      5.312
REMARK  5 active torsions:
REMARK  status: ('A' for Active; 'I' for Inactive)
REMARK    1  A    between atoms: C_2  and  N_3 
REMARK       I    between atoms: N_3  and  C_4 
REMARK       I    between atoms: C_4  and  N_5 
REMARK    2  A    between atoms: C_7  and  C_8 
REMARK    3  A    between atoms: C_13  and  N_14 
REMARK       I    between atoms: N_14  and  C_15 
REMARK    4  A    between atoms: C_15  and  C_16 
REMARK    5  A    between atoms: C_19  and  O_20 
ROOT
HETATM    1  C   UNL     1     -43.218  56.983 -56.639  1.00  0.00     0.088 A 
HETATM    2  N   UNL     1     -43.981  57.376 -57.677  1.00  0.00    -0.177 NA
HETATM    3  N   UNL     1     -44.116  56.281 -58.434  1.00  0.00    -0.287 N 
HETATM    4  H   UNL     1     -44.652  56.357 -59.292  1.00  0.00     0.188 HD
HETATM    5  C   UNL     1     -43.524  55.175 -57.908  1.00  0.00     0.141 A 
HETATM    6  C   UNL     1     -42.855  55.608 -56.789  1.00  0.00     0.079 A 
ENDROOT
BRANCH   1   7
HETATM    7  C   UNL     1     -43.049  57.907 -55.444  1.00  0.00     0.060 C 
HETATM    8  C   UNL     1     -41.615  58.409 -55.224  1.00  0.00     0.138 C 
HETATM    9  N   UNL     1     -41.522  59.285 -54.050  1.00  0.00    -0.334 N 
HETATM   10  C   UNL     1     -41.110  58.718 -52.850  1.00  0.00     0.318 C 
HETATM   11  C   UNL     1     -42.357  60.479 -54.133  1.00  0.00     0.127 C 
HETATM   12  N   UNL     1     -40.915  59.628 -51.840  1.00  0.00    -0.339 N 
HETATM   13  O   UNL     1     -40.911  57.514 -52.702  1.00  0.00    -0.247 OA
HETATM   14  H   UNL     1     -40.615  60.532 -52.176  1.00  0.00     0.164 HD
HETATM   15  C   UNL     1     -43.818  60.066 -54.293  1.00  0.00     0.021 C 
HETATM   16  C   UNL     1     -44.002  59.132 -55.493  1.00  0.00     0.014 C 
BRANCH  12  17
HETATM   17  C   UNL     1     -40.375  59.219 -50.551  1.00  0.00     0.078 C 
HETATM   18  C   UNL     1     -41.346  59.605 -49.439  1.00  0.00     0.032 C 
HETATM   19  C   UNL     1     -39.004  59.850 -50.308  1.00  0.00     0.032 C 
ENDBRANCH  12  17
ENDBRANCH   1   7
BRANCH   6  20
HETATM   20  N   UNL     1     -42.083  54.775 -55.998  1.00  0.00    -0.320 N 
HETATM   21  C   UNL     1     -42.585  54.326 -54.785  1.00  0.00     0.256 C 
HETATM   22  O   UNL     1     -43.669  54.630 -54.299  1.00  0.00    -0.267 OA
HETATM   23  H   UNL     1     -41.096  55.000 -55.956  1.00  0.00     0.169 HD
BRANCH  21  24
HETATM   24  C   UNL     1     -41.658  53.459 -54.015  1.00  0.00     0.032 A 
HETATM   25  C   UNL     1     -41.121  52.327 -54.630  1.00  0.00     0.020 A 
HETATM   26  C   UNL     1     -40.225  51.518 -53.928  1.00  0.00     0.038 A 
HETATM   27  C   UNL     1     -39.839  51.851 -52.626  1.00  0.00     0.068 A 
HETATM   28  C   UNL     1     -40.379  52.984 -52.014  1.00  0.00     0.038 A 
HETATM   29  C   UNL     1     -41.286  53.792 -52.708  1.00  0.00     0.020 A 
BRANCH  27  30
HETATM   30  O   UNL     1     -38.940  50.992 -52.055  1.00  0.00    -0.356 OA
HETATM   31  C   UNL     1     -39.495  49.905 -51.323  1.00  0.00     0.210 C 
ENDBRANCH  27  30
ENDBRANCH  21  24
ENDBRANCH   6  20
TORSDOF 5
ENDMDL
MODEL 6
REMARK VINA RESULT:      -7.3      2.566      5.495
REMARK  5 active torsions:
REMARK  status: ('A' for Active; 'I' for Inactive)
REMARK    1  A    between atoms: C_2  and  N_3 
REMARK       I    between atoms: N_3  and  C_4 
REMARK       I    between atoms: C_4  and  N_5 
REMARK    2  A    between atoms: C_7  and  C_8 
REMARK    3  A    between atoms: C_13  and  N_14 
REMARK       I    between atoms: N_14  and  C_15 
REMARK    4  A    between atoms: C_15  and  C_16 
REMARK    5  A    between atoms: C_19  and  O_20 
ROOT
HETATM    1  C   UNL     1     -43.320  56.784 -55.234  1.00  0.00     0.088 A 
HETATM    2  N   UNL     1     -43.754  57.378 -56.363  1.00  0.00    -0.177 NA
HETATM    3  N   UNL     1     -43.597  56.452 -57.317  1.00  0.00    -0.287 N 
HETATM    4  H   UNL     1     -43.853  56.698 -58.267  1.00  0.00     0.188 HD
HETATM    5  C   UNL     1     -43.136  55.260 -56.851  1.00  0.00     0.141 A 
HETATM    6  C   UNL     1     -42.859  55.461 -55.521  1.00  0.00     0.079 A 
ENDROOT
BRANCH   1   7
HETATM    7  C   UNL     1     -43.568  57.457 -53.894  1.00  0.00     0.060 C 
HETATM    8  C   UNL     1     -44.821  58.342 -53.847  1.00  0.00     0.138 C 
HETATM    9  N   UNL     1     -44.993  58.969 -52.532  1.00  0.00    -0.334 N 
HETATM   10  C   UNL     1     -44.525  60.267 -52.367  1.00  0.00     0.318 C 
HETATM   11  C   UNL     1     -45.132  58.017 -51.435  1.00  0.00     0.127 C 
HETATM   12  N   UNL     1     -44.850  60.828 -51.155  1.00  0.00    -0.339 N 
HETATM   13  O   UNL     1     -43.899  60.876 -53.230  1.00  0.00    -0.247 OA
HETATM   14  H   UNL     1     -45.723  60.485 -50.783  1.00  0.00     0.164 HD
HETATM   15  C   UNL     1     -43.892  57.130 -51.371  1.00  0.00     0.021 C 
HETATM   16  C   UNL     1     -43.629  56.447 -52.717  1.00  0.00     0.014 C 
BRANCH  12  17
HETATM   17  C   UNL     1     -44.536  62.219 -50.861  1.00  0.00     0.078 C 
HETATM   18  C   UNL     1     -44.135  62.359 -49.396  1.00  0.00     0.032 C 
HETATM   19  C   UNL     1     -45.725  63.126 -51.181  1.00  0.00     0.032 C 
ENDBRANCH  12  17
ENDBRANCH   1   7
BRANCH   6  20
HETATM   20  N   UNL     1     -42.320  54.484 -54.703  1.00  0.00    -0.320 N 
HETATM   21  C   UNL     1     -40.961  54.496 -54.429  1.00  0.00     0.256 C 
HETATM   22  O   UNL     1     -40.143  55.290 -54.881  1.00  0.00    -0.267 OA
HETATM   23  H   UNL     1     -42.686  53.549 -54.837  1.00  0.00     0.169 HD
BRANCH  21  24
HETATM   24  C   UNL     1     -40.495  53.386 -53.560  1.00  0.00     0.032 A 
HETATM   25  C   UNL     1     -40.044  52.205 -54.152  1.00  0.00     0.020 A 
HETATM   26  C   UNL     1     -39.575  51.163 -53.349  1.00  0.00     0.038 A 
HETATM   27  C   UNL     1     -39.525  51.307 -51.959  1.00  0.00     0.068 A 
HETATM   28  C   UNL     1     -39.978  52.489 -51.370  1.00  0.00     0.038 A 
HETATM   29  C   UNL     1     -40.460  53.532 -52.169  1.00  0.00     0.020 A 
BRANCH  27  30
HETATM   30  O   UNL     1     -39.026  50.225 -51.286  1.00  0.00    -0.356 OA
HETATM   31  C   UNL     1     -39.984  49.399 -50.634  1.00  0.00     0.210 C 
ENDBRANCH  27  30
ENDBRANCH  21  24
ENDBRANCH   6  20
TORSDOF 5
ENDMDL
MODEL 7
REMARK VINA RESULT:      -7.2      1.929      6.468
REMARK  5 active torsions:
REMARK  status: ('A' for Active; 'I' for Inactive)
REMARK    1  A    between atoms: C_2  and  N_3 
REMARK       I    between atoms: N_3  and  C_4 
REMARK       I    between atoms: C_4  and  N_5 
REMARK    2  A    between atoms: C_7  and  C_8 
REMARK    3  A    between atoms: C_13  and  N_14 
REMARK       I    between atoms: N_14  and  C_15 
REMARK    4  A    between atoms: C_15  and  C_16 
REMARK    5  A    between atoms: C_19  and  O_20 
ROOT
HETATM    1  C   UNL     1     -42.729  58.168 -52.428  1.00  0.00     0.088 A 
HETATM    2  N   UNL     1     -42.793  59.010 -51.378  1.00  0.00    -0.177 NA
HETATM    3  N   UNL     1     -43.135  60.191 -51.908  1.00  0.00    -0.287 N 
HETATM    4  H   UNL     1     -43.227  60.985 -51.284  1.00  0.00     0.188 HD
HETATM    5  C   UNL     1     -43.355  60.145 -53.249  1.00  0.00     0.141 A 
HETATM    6  C   UNL     1     -43.015  58.872 -53.640  1.00  0.00     0.079 A 
ENDROOT
BRANCH   1   7
HETATM    7  C   UNL     1     -42.597  56.675 -52.180  1.00  0.00     0.060 C 
HETATM    8  C   UNL     1     -41.208  56.230 -51.700  1.00  0.00     0.138 C 
HETATM    9  N   UNL     1     -41.146  54.779 -51.492  1.00  0.00    -0.334 N 
HETATM   10  C   UNL     1     -40.630  53.999 -52.519  1.00  0.00     0.318 C 
HETATM   11  C   UNL     1     -42.094  54.280 -50.500  1.00  0.00     0.127 C 
HETATM   12  N   UNL     1     -40.477  52.673 -52.192  1.00  0.00    -0.339 N 
HETATM   13  O   UNL     1     -40.311  54.449 -53.617  1.00  0.00    -0.247 OA
HETATM   14  H   UNL     1     -40.280  52.529 -51.213  1.00  0.00     0.164 HD
HETATM   15  C   UNL     1     -43.515  54.630 -50.935  1.00  0.00     0.021 C 
HETATM   16  C   UNL     1     -43.662  56.133 -51.190  1.00  0.00     0.014 C 
BRANCH  12  17
HETATM   17  C   UNL     1     -39.844  51.738 -53.111  1.00  0.00     0.078 C 
HETATM   18  C   UNL     1     -40.776  51.458 -54.286  1.00  0.00     0.032 C 
HETATM   19  C   UNL     1     -39.473  50.438 -52.399  1.00  0.00     0.032 C 
ENDBRANCH  12  17
ENDBRANCH   1   7
BRANCH   6  20
HETATM   20  N   UNL     1     -43.057  58.446 -54.955  1.00  0.00    -0.320 N 
HETATM   21  C   UNL     1     -44.179  57.776 -55.421  1.00  0.00     0.256 C 
HETATM   22  O   UNL     1     -45.164  57.474 -54.755  1.00  0.00    -0.267 OA
HETATM   23  H   UNL     1     -42.192  58.067 -55.322  1.00  0.00     0.169 HD
BRANCH  21  24
HETATM   24  C   UNL     1     -44.099  57.348 -56.840  1.00  0.00     0.032 A 
HETATM   25  C   UNL     1     -43.256  56.290 -57.183  1.00  0.00     0.020 A 
HETATM   26  C   UNL     1     -43.193  55.858 -58.509  1.00  0.00     0.038 A 
HETATM   27  C   UNL     1     -43.991  56.455 -59.489  1.00  0.00     0.068 A 
HETATM   28  C   UNL     1     -44.834  57.514 -59.142  1.00  0.00     0.038 A 
HETATM   29  C   UNL     1     -44.892  57.960 -57.818  1.00  0.00     0.020 A 
BRANCH  27  30
HETATM   30  O   UNL     1     -43.855  55.927 -60.744  1.00  0.00    -0.356 OA
HETATM   31  C   UNL     1     -44.885  55.038 -61.161  1.00  0.00     0.210 C 
ENDBRANCH  27  30
ENDBRANCH  21  24
ENDBRANCH   6  20
TORSDOF 5
ENDMDL
MODEL 8
REMARK VINA RESULT:      -7.2      2.924      7.348
REMARK  5 active torsions:
REMARK  status: ('A' for Active; 'I' for Inactive)
REMARK    1  A    between atoms: C_2  and  N_3 
REMARK       I    between atoms: N_3  and  C_4 
REMARK       I    between atoms: C_4  and  N_5 
REMARK    2  A    between atoms: C_7  and  C_8 
REMARK    3  A    between atoms: C_13  and  N_14 
REMARK       I    between atoms: N_14  and  C_15 
REMARK    4  A    between atoms: C_15  and  C_16 
REMARK    5  A    between atoms: C_19  and  O_20 
ROOT
HETATM    1  C   UNL     1     -42.483  57.596 -56.400  1.00  0.00     0.088 A 
HETATM    2  N   UNL     1     -42.124  57.520 -57.696  1.00  0.00    -0.177 NA
HETATM    3  N   UNL     1     -41.995  58.793 -58.090  1.00  0.00    -0.287 N 
HETATM    4  H   UNL     1     -41.740  58.971 -59.055  1.00  0.00     0.188 HD
HETATM    5  C   UNL     1     -42.197  59.696 -57.093  1.00  0.00     0.141 A 
HETATM    6  C   UNL     1     -42.603  58.965 -56.003  1.00  0.00     0.079 A 
ENDROOT
BRANCH   1   7
HETATM    7  C   UNL     1     -42.490  56.336 -55.552  1.00  0.00     0.060 C 
HETATM    8  C   UNL     1     -41.387  56.278 -54.486  1.00  0.00     0.138 C 
HETATM    9  N   UNL     1     -41.444  55.033 -53.713  1.00  0.00    -0.334 N 
HETATM   10  C   UNL     1     -40.607  53.992 -54.098  1.00  0.00     0.318 C 
HETATM   11  C   UNL     1     -42.702  54.833 -53.001  1.00  0.00     0.127 C 
HETATM   12  N   UNL     1     -40.620  52.918 -53.242  1.00  0.00    -0.339 N 
HETATM   13  O   UNL     1     -39.896  54.031 -55.099  1.00  0.00    -0.247 OA
HETATM   14  H   UNL     1     -40.801  53.180 -52.284  1.00  0.00     0.164 HD
HETATM   15  C   UNL     1     -43.855  54.816 -54.002  1.00  0.00     0.021 C 
HETATM   16  C   UNL     1     -43.858  56.081 -54.865  1.00  0.00     0.014 C 
BRANCH  12  17
HETATM   17  C   UNL     1     -39.719  51.791 -53.434  1.00  0.00     0.078 C 
HETATM   18  C   UNL     1     -40.390  50.737 -54.311  1.00  0.00     0.032 C 
HETATM   19  C   UNL     1     -39.306  51.187 -52.092  1.00  0.00     0.032 C 
ENDBRANCH  12  17
ENDBRANCH   1   7
BRANCH   6  20
HETATM   20  N   UNL     1     -42.955  59.538 -54.794  1.00  0.00    -0.320 N 
HETATM   21  C   UNL     1     -41.968  59.833 -53.865  1.00  0.00     0.256 C 
HETATM   22  O   UNL     1     -40.771  59.597 -53.989  1.00  0.00    -0.267 OA
HETATM   23  H   UNL     1     -43.802  59.180 -54.368  1.00  0.00     0.169 HD
BRANCH  21  24
HETATM   24  C   UNL     1     -42.467  60.423 -52.598  1.00  0.00     0.032 A 
HETATM   25  C   UNL     1     -43.511  61.349 -52.646  1.00  0.00     0.020 A 
HETATM   26  C   UNL     1     -44.010  61.890 -51.460  1.00  0.00     0.038 A 
HETATM   27  C   UNL     1     -43.495  61.488 -50.224  1.00  0.00     0.068 A 
HETATM   28  C   UNL     1     -42.451  60.561 -50.180  1.00  0.00     0.038 A 
HETATM   29  C   UNL     1     -41.938  60.025 -51.365  1.00  0.00     0.020 A 
BRANCH  27  30
HETATM   30  O   UNL     1     -44.084  62.074 -49.137  1.00  0.00    -0.356 OA
HETATM   31  C   UNL     1     -45.198  61.382 -48.583  1.00  0.00     0.210 C 
ENDBRANCH  27  30
ENDBRANCH  21  24
ENDBRANCH   6  20
TORSDOF 5
ENDMDL
MODEL 9
REMARK VINA RESULT:      -6.8      2.505      6.768
REMARK  5 active torsions:
REMARK  status: ('A' for Active; 'I' for Inactive)
REMARK    1  A    between atoms: C_2  and  N_3 
REMARK       I    between atoms: N_3  and  C_4 
REMARK       I    between atoms: C_4  and  N_5 
REMARK    2  A    between atoms: C_7  and  C_8 
REMARK    3  A    between atoms: C_13  and  N_14 
REMARK       I    between atoms: N_14  and  C_15 
REMARK    4  A    between atoms: C_15  and  C_16 
REMARK    5  A    between atoms: C_19  and  O_20 
ROOT
HETATM    1  C   UNL     1     -42.822  61.204 -54.026  1.00  0.00     0.088 A 
HETATM    2  N   UNL     1     -42.796  62.434 -53.477  1.00  0.00    -0.177 NA
HETATM    3  N   UNL     1     -43.345  63.231 -54.402  1.00  0.00    -0.287 N 
HETATM    4  H   UNL     1     -43.413  64.222 -54.198  1.00  0.00     0.188 HD
HETATM    5  C   UNL     1     -43.781  62.568 -55.506  1.00  0.00     0.141 A 
HETATM    6  C   UNL     1     -43.380  61.264 -55.341  1.00  0.00     0.079 A 
ENDROOT
BRANCH   1   7
HETATM    7  C   UNL     1     -42.493  59.996 -53.165  1.00  0.00     0.060 C 
HETATM    8  C   UNL     1     -41.343  59.128 -53.697  1.00  0.00     0.138 C 
HETATM    9  N   UNL     1     -41.086  57.975 -52.827  1.00  0.00    -0.334 N 
HETATM   10  C   UNL     1     -41.666  56.761 -53.173  1.00  0.00     0.318 C 
HETATM   11  C   UNL     1     -40.721  58.333 -51.460  1.00  0.00     0.127 C 
HETATM   12  N   UNL     1     -41.264  55.707 -52.389  1.00  0.00    -0.339 N 
HETATM   13  O   UNL     1     -42.449  56.627 -54.110  1.00  0.00    -0.247 OA
HETATM   14  H   UNL     1     -40.322  55.810 -52.042  1.00  0.00     0.164 HD
HETATM   15  C   UNL     1     -41.845  59.153 -50.831  1.00  0.00     0.021 C 
HETATM   16  C   UNL     1     -42.189  60.373 -51.690  1.00  0.00     0.014 C 
BRANCH  12  17
HETATM   17  C   UNL     1     -41.686  54.345 -52.685  1.00  0.00     0.078 C 
HETATM   18  C   UNL     1     -42.856  53.960 -51.784  1.00  0.00     0.032 C 
HETATM   19  C   UNL     1     -40.528  53.363 -52.507  1.00  0.00     0.032 C 
ENDBRANCH  12  17
ENDBRANCH   1   7
BRANCH   6  20
HETATM   20  N   UNL     1     -43.598  60.279 -56.287  1.00  0.00    -0.320 N 
HETATM   21  C   UNL     1     -42.555  59.874 -57.106  1.00  0.00     0.256 C 
HETATM   22  O   UNL     1     -41.420  60.339 -57.108  1.00  0.00    -0.267 OA
HETATM   23  H   UNL     1     -44.485  60.328 -56.775  1.00  0.00     0.169 HD
BRANCH  21  24
HETATM   24  C   UNL     1     -42.915  58.828 -58.096  1.00  0.00     0.032 A 
HETATM   25  C   UNL     1     -41.962  58.424 -59.033  1.00  0.00     0.020 A 
HETATM   26  C   UNL     1     -42.277  57.421 -59.951  1.00  0.00     0.038 A 
HETATM   27  C   UNL     1     -43.528  56.797 -59.919  1.00  0.00     0.068 A 
HETATM   28  C   UNL     1     -44.479  57.204 -58.981  1.00  0.00     0.038 A 
HETATM   29  C   UNL     1     -44.174  58.217 -58.066  1.00  0.00     0.020 A 
BRANCH  27  30
HETATM   30  O   UNL     1     -43.705  55.815 -60.856  1.00  0.00    -0.356 OA
HETATM   31  C   UNL     1     -44.929  55.093 -60.778  1.00  0.00     0.210 C 
ENDBRANCH  27  30
ENDBRANCH  21  24
ENDBRANCH   6  20
TORSDOF 5
ENDMDL
MODEL 10
REMARK VINA RESULT:      -6.8     15.548     19.237
REMARK  5 active torsions:
REMARK  status: ('A' for Active; 'I' for Inactive)
REMARK    1  A    between atoms: C_2  and  N_3 
REMARK       I    between atoms: N_3  and  C_4 
REMARK       I    between atoms: C_4  and  N_5 
REMARK    2  A    between atoms: C_7  and  C_8 
REMARK    3  A    between atoms: C_13  and  N_14 
REMARK       I    between atoms: N_14  and  C_15 
REMARK    4  A    between atoms: C_15  and  C_16 
REMARK    5  A    between atoms: C_19  and  O_20 
ROOT
HETATM    1  C   UNL     1     -34.725  40.757 -53.688  1.00  0.00     0.088 A 
HETATM    2  N   UNL     1     -34.738  41.334 -52.470  1.00  0.00    -0.177 NA
HETATM    3  N   UNL     1     -35.882  42.029 -52.435  1.00  0.00    -0.287 N 
HETATM    4  H   UNL     1     -36.091  42.562 -51.597  1.00  0.00     0.188 HD
HETATM    5  C   UNL     1     -36.644  41.885 -53.552  1.00  0.00     0.141 A 
HETATM    6  C   UNL     1     -35.889  41.141 -54.426  1.00  0.00     0.079 A 
ENDROOT
BRANCH   1   7
HETATM    7  C   UNL     1     -33.684  39.696 -54.000  1.00  0.00     0.060 C 
HETATM    8  C   UNL     1     -32.234  40.134 -53.756  1.00  0.00     0.138 C 
HETATM    9  N   UNL     1     -31.281  39.068 -54.087  1.00  0.00    -0.334 N 
HETATM   10  C   UNL     1     -30.686  39.099 -55.342  1.00  0.00     0.318 C 
HETATM   11  C   UNL     1     -31.467  37.845 -53.313  1.00  0.00     0.127 C 
HETATM   12  N   UNL     1     -29.708  38.151 -55.519  1.00  0.00    -0.339 N 
HETATM   13  O   UNL     1     -30.983  39.913 -56.213  1.00  0.00    -0.247 OA
HETATM   14  H   UNL     1     -29.224  37.918 -54.665  1.00  0.00     0.164 HD
HETATM   15  C   UNL     1     -32.875  37.304 -53.547  1.00  0.00     0.021 C 
HETATM   16  C   UNL     1     -33.935  38.366 -53.239  1.00  0.00     0.014 C 
BRANCH  12  17
HETATM   17  C   UNL     1     -28.905  38.115 -56.734  1.00  0.00     0.078 C 
HETATM   18  C   UNL     1     -29.521  37.140 -57.732  1.00  0.00     0.032 C 
HETATM   19  C   UNL     1     -27.461  37.722 -56.422  1.00  0.00     0.032 C 
ENDBRANCH  12  17
ENDBRANCH   1   7
BRANCH   6  20
HETATM   20  N   UNL     1     -36.306  40.820 -55.705  1.00  0.00    -0.320 N 
HETATM   21  C   UNL     1     -35.698  41.425 -56.794  1.00  0.00     0.256 C 
HETATM   22  O   UNL     1     -34.817  42.277 -56.744  1.00  0.00    -0.267 OA
HETATM   23  H   UNL     1     -37.306  40.708 -55.825  1.00  0.00     0.169 HD
BRANCH  21  24
HETATM   24  C   UNL     1     -36.245  41.020 -58.113  1.00  0.00     0.032 A 
HETATM   25  C   UNL     1     -36.083  39.700 -58.538  1.00  0.00     0.020 A 
HETATM   26  C   UNL     1     -36.618  39.297 -59.763  1.00  0.00     0.038 A 
HETATM   27  C   UNL     1     -37.342  40.197 -60.552  1.00  0.00     0.068 A 
HETATM   28  C   UNL     1     -37.502  41.516 -60.123  1.00  0.00     0.038 A 
HETATM   29  C   UNL     1     -36.958  41.929 -58.903  1.00  0.00     0.020 A 
BRANCH  27  30
HETATM   30  O   UNL     1     -37.833  39.674 -61.717  1.00  0.00    -0.356 OA
HETATM   31  C   UNL     1     -37.031  38.679 -62.341  1.00  0.00     0.210 C 
ENDBRANCH  27  30
ENDBRANCH  21  24
ENDBRANCH   6  20
TORSDOF 5
ENDMDL
