MODEL 1
REMARK VINA RESULT:      -8.9      0.000      0.000
REMARK  9 active torsions:
REMARK  status: ('A' for Active; 'I' for Inactive)
REMARK    1  A    between atoms: N_2  and  C_4 
REMARK    2  A    between atoms: N_2  and  C_35 
REMARK    3  A    between atoms: C_4  and  C_5 
REMARK    4  A    between atoms: N_8  and  C_9 
REMARK    5  A    between atoms: C_12  and  N_13 
REMARK       I    between atoms: N_13  and  C_14 
REMARK       I    between atoms: C_14  and  N_15 
REMARK    6  A    between atoms: N_15  and  C_16 
REMARK    7  A    between atoms: C_19  and  O_20 
REMARK    8  A    between atoms: O_20  and  C_21 
REMARK    9  A    between atoms: C_35  and  C_36 
ROOT
HETATM    1  C   UNL     1     -47.241  57.156 -60.458  1.00  0.00     0.161 C 
HETATM    2  C   UNL     1     -46.474  58.363 -59.932  1.00  0.00     0.179 C 
HETATM    3  C   UNL     1     -45.295  57.732 -59.210  1.00  0.00     0.177 C 
HETATM    4  C   UNL     1     -45.667  57.777 -57.730  1.00  0.00     0.141 C 
HETATM    5  C   UNL     1     -46.975  58.560 -57.667  1.00  0.00     0.196 C 
HETATM    6  O   UNL     1     -47.209  59.129 -58.967  1.00  0.00    -0.379 OA
HETATM    7  O   UNL     1     -45.171  56.369 -59.653  1.00  0.00    -0.379 OA
HETATM    8  C   UNL     1     -46.125  56.157 -60.702  1.00  0.00     0.198 C 
ENDROOT
BRANCH   4   9
HETATM    9  N   UNL     1     -44.591  58.264 -56.877  1.00  0.00    -0.334 N 
HETATM   10  C   UNL     1     -43.763  57.665 -55.985  1.00  0.00     0.321 C 
HETATM   11  N   UNL     1     -43.703  56.299 -55.995  1.00  0.00    -0.309 N 
HETATM   12  O   UNL     1     -43.125  58.417 -55.254  1.00  0.00    -0.247 OA
HETATM   13  H   UNL     1     -44.083  55.825 -56.796  1.00  0.00     0.170 HD
HETATM   14  H   UNL     1     -44.568  59.267 -56.723  1.00  0.00     0.164 HD
BRANCH  11  15
HETATM   15  C   UNL     1     -42.870  55.512 -55.160  1.00  0.00     0.036 A 
HETATM   16  C   UNL     1     -43.334  54.833 -54.032  1.00  0.00     0.032 A 
HETATM   17  C   UNL     1     -42.449  54.128 -53.211  1.00  0.00     0.039 A 
HETATM   18  C   UNL     1     -41.086  54.082 -53.506  1.00  0.00     0.076 A 
HETATM   19  C   UNL     1     -40.616  54.738 -54.644  1.00  0.00     0.039 A 
HETATM   20  C   UNL     1     -41.507  55.433 -55.476  1.00  0.00     0.032 A 
BRANCH  18  21
HETATM   21  O   UNL     1     -40.317  53.427 -52.572  1.00  0.00    -0.311 OA
BRANCH  21  22
HETATM   22  C   UNL     1     -40.014  52.104 -52.762  1.00  0.00     0.076 A 
HETATM   23  C   UNL     1     -39.749  51.331 -51.632  1.00  0.00     0.037 A 
HETATM   24  C   UNL     1     -39.527  49.959 -51.767  1.00  0.00     0.003 A 
HETATM   25  C   UNL     1     -39.586  49.367 -53.029  1.00  0.00     0.000 A 
HETATM   26  C   UNL     1     -39.873  50.141 -54.155  1.00  0.00     0.003 A 
HETATM   27  C   UNL     1     -40.098  51.511 -54.022  1.00  0.00     0.037 A 
ENDBRANCH  21  22
ENDBRANCH  18  21
ENDBRANCH  11  15
ENDBRANCH   4   9
BRANCH   1  28
HETATM   28  N   UNL     1     -48.065  57.406 -61.615  1.00  0.00    -0.274 N 
HETATM   29  N   UNL     1     -48.292  56.453 -62.536  1.00  0.00     0.005 NA
HETATM   30  N   UNL     1     -49.147  56.936 -63.424  1.00  0.00    -0.161 NA
HETATM   31  C   UNL     1     -49.473  58.212 -63.050  1.00  0.00     0.095 A 
HETATM   32  C   UNL     1     -48.795  58.530 -61.894  1.00  0.00     0.139 A 
BRANCH  31  33
HETATM   33  C   UNL     1     -50.441  58.996 -63.859  1.00  0.00     0.296 C 
BRANCH  33  34
HETATM   34  N   UNL     1     -51.732  59.304 -63.126  1.00  0.00    -0.066 N 
HETATM   35  C   UNL     1     -52.881  59.481 -64.072  1.00  0.00     0.270 C 
HETATM   36  H   UNL     1     -51.924  58.467 -62.556  1.00  0.00     0.280 HD
BRANCH  34  37
HETATM   37  C   UNL     1     -51.575  60.445 -62.145  1.00  0.00     0.273 C 
BRANCH  37  38
HETATM   38  C   UNL     1     -52.116  60.150 -60.772  1.00  0.00    -0.033 A 
HETATM   39  C   UNL     1     -51.510  60.696 -59.630  1.00  0.00     0.009 A 
HETATM   40  C   UNL     1     -52.000  60.390 -58.358  1.00  0.00     0.001 A 
HETATM   41  C   UNL     1     -53.098  59.546 -58.215  1.00  0.00     0.000 A 
HETATM   42  C   UNL     1     -53.715  59.007 -59.341  1.00  0.00     0.001 A 
HETATM   43  C   UNL     1     -53.228  59.307 -60.614  1.00  0.00     0.009 A 
ENDBRANCH  37  38
ENDBRANCH  34  37
ENDBRANCH  33  34
ENDBRANCH  31  33
ENDBRANCH   1  28
TORSDOF 9
ENDMDL
MODEL 2
REMARK VINA RESULT:      -8.8      2.627     13.145
REMARK  9 active torsions:
REMARK  status: ('A' for Active; 'I' for Inactive)
REMARK    1  A    between atoms: N_2  and  C_4 
REMARK    2  A    between atoms: N_2  and  C_35 
REMARK    3  A    between atoms: C_4  and  C_5 
REMARK    4  A    between atoms: N_8  and  C_9 
REMARK    5  A    between atoms: C_12  and  N_13 
REMARK       I    between atoms: N_13  and  C_14 
REMARK       I    between atoms: C_14  and  N_15 
REMARK    6  A    between atoms: N_15  and  C_16 
REMARK    7  A    between atoms: C_19  and  O_20 
REMARK    8  A    between atoms: O_20  and  C_21 
REMARK    9  A    between atoms: C_35  and  C_36 
ROOT
HETATM    1  C   UNL     1     -42.900  56.895 -54.078  1.00  0.00     0.161 C 
HETATM    2  C   UNL     1     -42.004  56.717 -55.298  1.00  0.00     0.179 C 
HETATM    3  C   UNL     1     -42.704  57.547 -56.360  1.00  0.00     0.177 C 
HETATM    4  C   UNL     1     -43.461  56.536 -57.218  1.00  0.00     0.141 C 
HETATM    5  C   UNL     1     -43.042  55.167 -56.691  1.00  0.00     0.196 C 
HETATM    6  O   UNL     1     -41.952  55.365 -55.774  1.00  0.00    -0.379 OA
HETATM    7  O   UNL     1     -43.626  58.436 -55.705  1.00  0.00    -0.379 OA
HETATM    8  C   UNL     1     -43.445  58.295 -54.291  1.00  0.00     0.198 C 
ENDROOT
BRANCH   4   9
HETATM    9  N   UNL     1     -43.290  56.747 -58.649  1.00  0.00    -0.334 N 
HETATM   10  C   UNL     1     -44.158  56.913 -59.680  1.00  0.00     0.321 C 
HETATM   11  N   UNL     1     -45.463  57.176 -59.371  1.00  0.00    -0.309 N 
HETATM   12  O   UNL     1     -43.678  56.826 -60.806  1.00  0.00    -0.247 OA
HETATM   13  H   UNL     1     -45.668  57.461 -58.428  1.00  0.00     0.170 HD
HETATM   14  H   UNL     1     -42.376  56.513 -59.025  1.00  0.00     0.164 HD
BRANCH  11  15
HETATM   15  C   UNL     1     -46.494  57.410 -60.315  1.00  0.00     0.036 A 
HETATM   16  C   UNL     1     -47.203  56.388 -60.949  1.00  0.00     0.032 A 
HETATM   17  C   UNL     1     -48.162  56.683 -61.922  1.00  0.00     0.039 A 
HETATM   18  C   UNL     1     -48.437  58.005 -62.273  1.00  0.00     0.076 A 
HETATM   19  C   UNL     1     -47.752  59.035 -61.628  1.00  0.00     0.039 A 
HETATM   20  C   UNL     1     -46.799  58.739 -60.642  1.00  0.00     0.032 A 
BRANCH  18  21
HETATM   21  O   UNL     1     -49.340  58.151 -63.301  1.00  0.00    -0.311 OA
BRANCH  21  22
HETATM   22  C   UNL     1     -50.403  59.000 -63.145  1.00  0.00     0.076 A 
HETATM   23  C   UNL     1     -51.363  58.668 -62.189  1.00  0.00     0.037 A 
HETATM   24  C   UNL     1     -52.414  59.549 -61.927  1.00  0.00     0.003 A 
HETATM   25  C   UNL     1     -52.492  60.762 -62.611  1.00  0.00     0.000 A 
HETATM   26  C   UNL     1     -51.516  61.100 -63.552  1.00  0.00     0.003 A 
HETATM   27  C   UNL     1     -50.463  60.223 -63.813  1.00  0.00     0.037 A 
ENDBRANCH  21  22
ENDBRANCH  18  21
ENDBRANCH  11  15
ENDBRANCH   4   9
BRANCH   1  28
HETATM   28  N   UNL     1     -42.250  56.707 -52.804  1.00  0.00    -0.274 N 
HETATM   29  N   UNL     1     -41.539  57.692 -52.226  1.00  0.00     0.005 NA
HETATM   30  N   UNL     1     -41.142  57.267 -51.036  1.00  0.00    -0.161 NA
HETATM   31  C   UNL     1     -41.618  55.996 -50.858  1.00  0.00     0.095 A 
HETATM   32  C   UNL     1     -42.332  55.621 -51.975  1.00  0.00     0.139 A 
BRANCH  31  33
HETATM   33  C   UNL     1     -41.341  55.273 -49.591  1.00  0.00     0.296 C 
BRANCH  33  34
HETATM   34  N   UNL     1     -40.873  53.846 -49.798  1.00  0.00    -0.066 N 
HETATM   35  C   UNL     1     -40.662  53.135 -48.495  1.00  0.00     0.270 C 
HETATM   36  H   UNL     1     -41.648  53.376 -50.287  1.00  0.00     0.280 HD
BRANCH  34  37
HETATM   37  C   UNL     1     -39.685  53.763 -50.731  1.00  0.00     0.273 C 
BRANCH  37  38
HETATM   38  C   UNL     1     -39.850  52.764 -51.844  1.00  0.00    -0.033 A 
HETATM   39  C   UNL     1     -39.509  51.415 -51.654  1.00  0.00     0.009 A 
HETATM   40  C   UNL     1     -39.636  50.502 -52.702  1.00  0.00     0.001 A 
HETATM   41  C   UNL     1     -40.106  50.922 -53.944  1.00  0.00     0.000 A 
HETATM   42  C   UNL     1     -40.457  52.255 -54.142  1.00  0.00     0.001 A 
HETATM   43  C   UNL     1     -40.331  53.173 -53.099  1.00  0.00     0.009 A 
ENDBRANCH  37  38
ENDBRANCH  34  37
ENDBRANCH  33  34
ENDBRANCH  31  33
ENDBRANCH   1  28
TORSDOF 9
ENDMDL
MODEL 3
REMARK VINA RESULT:      -8.8      7.295     11.032
REMARK  9 active torsions:
REMARK  status: ('A' for Active; 'I' for Inactive)
REMARK    1  A    between atoms: N_2  and  C_4 
REMARK    2  A    between atoms: N_2  and  C_35 
REMARK    3  A    between atoms: C_4  and  C_5 
REMARK    4  A    between atoms: N_8  and  C_9 
REMARK    5  A    between atoms: C_12  and  N_13 
REMARK       I    between atoms: N_13  and  C_14 
REMARK       I    between atoms: C_14  and  N_15 
REMARK    6  A    between atoms: N_15  and  C_16 
REMARK    7  A    between atoms: C_19  and  O_20 
REMARK    8  A    between atoms: O_20  and  C_21 
REMARK    9  A    between atoms: C_35  and  C_36 
ROOT
HETATM    1  C   UNL     1     -44.490  60.734 -51.504  1.00  0.00     0.161 C 
HETATM    2  C   UNL     1     -45.392  59.947 -52.447  1.00  0.00     0.179 C 
HETATM    3  C   UNL     1     -44.455  58.896 -53.019  1.00  0.00     0.177 C 
HETATM    4  C   UNL     1     -44.071  59.417 -54.401  1.00  0.00     0.141 C 
HETATM    5  C   UNL     1     -44.917  60.670 -54.609  1.00  0.00     0.196 C 
HETATM    6  O   UNL     1     -45.884  60.727 -53.546  1.00  0.00    -0.379 OA
HETATM    7  O   UNL     1     -43.294  58.817 -52.174  1.00  0.00    -0.379 OA
HETATM    8  C   UNL     1     -43.514  59.667 -51.041  1.00  0.00     0.198 C 
ENDROOT
BRANCH   4   9
HETATM    9  N   UNL     1     -44.159  58.407 -55.447  1.00  0.00    -0.334 N 
HETATM   10  C   UNL     1     -43.513  57.235 -55.672  1.00  0.00     0.321 C 
HETATM   11  N   UNL     1     -42.780  56.710 -54.644  1.00  0.00    -0.309 N 
HETATM   12  O   UNL     1     -43.662  56.744 -56.787  1.00  0.00    -0.247 OA
HETATM   13  H   UNL     1     -42.942  57.081 -53.723  1.00  0.00     0.170 HD
HETATM   14  H   UNL     1     -44.618  58.698 -56.305  1.00  0.00     0.164 HD
BRANCH  11  15
HETATM   15  C   UNL     1     -42.072  55.483 -54.691  1.00  0.00     0.036 A 
HETATM   16  C   UNL     1     -42.641  54.253 -54.352  1.00  0.00     0.032 A 
HETATM   17  C   UNL     1     -41.871  53.088 -54.353  1.00  0.00     0.039 A 
HETATM   18  C   UNL     1     -40.521  53.126 -54.701  1.00  0.00     0.076 A 
HETATM   19  C   UNL     1     -39.948  54.345 -55.064  1.00  0.00     0.039 A 
HETATM   20  C   UNL     1     -40.725  55.513 -55.076  1.00  0.00     0.032 A 
BRANCH  18  21
HETATM   21  O   UNL     1     -39.861  51.924 -54.579  1.00  0.00    -0.311 OA
BRANCH  21  22
HETATM   22  C   UNL     1     -39.772  51.331 -53.347  1.00  0.00     0.076 A 
HETATM   23  C   UNL     1     -39.783  52.159 -52.225  1.00  0.00     0.037 A 
HETATM   24  C   UNL     1     -39.789  51.597 -50.948  1.00  0.00     0.003 A 
HETATM   25  C   UNL     1     -39.798  50.210 -50.800  1.00  0.00     0.000 A 
HETATM   26  C   UNL     1     -39.807  49.384 -51.926  1.00  0.00     0.003 A 
HETATM   27  C   UNL     1     -39.805  49.944 -53.203  1.00  0.00     0.037 A 
ENDBRANCH  21  22
ENDBRANCH  18  21
ENDBRANCH  11  15
ENDBRANCH   4   9
BRANCH   1  28
HETATM   28  N   UNL     1     -45.168  61.413 -50.427  1.00  0.00    -0.274 N 
HETATM   29  N   UNL     1     -46.239  62.195 -50.653  1.00  0.00     0.005 NA
HETATM   30  N   UNL     1     -46.702  62.605 -49.483  1.00  0.00    -0.161 NA
HETATM   31  C   UNL     1     -45.913  62.066 -48.501  1.00  0.00     0.095 A 
HETATM   32  C   UNL     1     -44.930  61.297 -49.084  1.00  0.00     0.139 A 
BRANCH  31  33
HETATM   33  C   UNL     1     -46.216  62.342 -47.074  1.00  0.00     0.296 C 
BRANCH  33  34
HETATM   34  N   UNL     1     -46.092  63.807 -46.702  1.00  0.00    -0.066 N 
HETATM   35  C   UNL     1     -44.788  64.389 -47.158  1.00  0.00     0.270 C 
HETATM   36  H   UNL     1     -46.844  64.282 -47.222  1.00  0.00     0.280 HD
BRANCH  34  37
HETATM   37  C   UNL     1     -46.384  64.052 -45.237  1.00  0.00     0.273 C 
BRANCH  37  38
HETATM   38  C   UNL     1     -45.232  63.732 -44.323  1.00  0.00    -0.033 A 
HETATM   39  C   UNL     1     -44.643  64.734 -43.535  1.00  0.00     0.009 A 
HETATM   40  C   UNL     1     -43.553  64.434 -42.714  1.00  0.00     0.001 A 
HETATM   41  C   UNL     1     -43.047  63.138 -42.667  1.00  0.00     0.000 A 
HETATM   42  C   UNL     1     -43.630  62.133 -43.436  1.00  0.00     0.001 A 
HETATM   43  C   UNL     1     -44.718  62.427 -44.260  1.00  0.00     0.009 A 
ENDBRANCH  37  38
ENDBRANCH  34  37
ENDBRANCH  33  34
ENDBRANCH  31  33
ENDBRANCH   1  28
TORSDOF 9
ENDMDL
MODEL 4
REMARK VINA RESULT:      -8.6      5.173      6.802
REMARK  9 active torsions:
REMARK  status: ('A' for Active; 'I' for Inactive)
REMARK    1  A    between atoms: N_2  and  C_4 
REMARK    2  A    between atoms: N_2  and  C_35 
REMARK    3  A    between atoms: C_4  and  C_5 
REMARK    4  A    between atoms: N_8  and  C_9 
REMARK    5  A    between atoms: C_12  and  N_13 
REMARK       I    between atoms: N_13  and  C_14 
REMARK       I    between atoms: C_14  and  N_15 
REMARK    6  A    between atoms: N_15  and  C_16 
REMARK    7  A    between atoms: C_19  and  O_20 
REMARK    8  A    between atoms: O_20  and  C_21 
REMARK    9  A    between atoms: C_35  and  C_36 
ROOT
HETATM    1  C   UNL     1     -47.275  61.511 -52.684  1.00  0.00     0.161 C 
HETATM    2  C   UNL     1     -46.215  61.555 -51.590  1.00  0.00     0.179 C 
HETATM    3  C   UNL     1     -44.953  61.123 -52.317  1.00  0.00     0.177 C 
HETATM    4  C   UNL     1     -44.763  59.655 -51.942  1.00  0.00     0.141 C 
HETATM    5  C   UNL     1     -45.844  59.360 -50.907  1.00  0.00     0.196 C 
HETATM    6  O   UNL     1     -46.448  60.612 -50.535  1.00  0.00    -0.379 OA
HETATM    7  O   UNL     1     -45.180  61.252 -53.732  1.00  0.00    -0.379 OA
HETATM    8  C   UNL     1     -46.464  61.860 -53.920  1.00  0.00     0.198 C 
ENDROOT
BRANCH   4   9
HETATM    9  N   UNL     1     -43.399  59.330 -51.548  1.00  0.00    -0.334 N 
HETATM   10  C   UNL     1     -42.585  58.269 -51.786  1.00  0.00     0.321 C 
HETATM   11  N   UNL     1     -42.958  57.394 -52.768  1.00  0.00    -0.309 N 
HETATM   12  O   UNL     1     -41.571  58.205 -51.098  1.00  0.00    -0.247 OA
HETATM   13  H   UNL     1     -43.671  57.695 -53.410  1.00  0.00     0.170 HD
HETATM   14  H   UNL     1     -43.024  59.862 -50.769  1.00  0.00     0.164 HD
BRANCH  11  15
HETATM   15  C   UNL     1     -42.214  56.257 -53.172  1.00  0.00     0.036 A 
HETATM   16  C   UNL     1     -41.083  56.328 -53.987  1.00  0.00     0.032 A 
HETATM   17  C   UNL     1     -40.433  55.164 -54.407  1.00  0.00     0.039 A 
HETATM   18  C   UNL     1     -40.896  53.908 -54.013  1.00  0.00     0.076 A 
HETATM   19  C   UNL     1     -42.011  53.827 -53.179  1.00  0.00     0.039 A 
HETATM   20  C   UNL     1     -42.655  54.996 -52.747  1.00  0.00     0.032 A 
BRANCH  18  21
HETATM   21  O   UNL     1     -40.216  52.846 -54.564  1.00  0.00    -0.311 OA
BRANCH  21  22
HETATM   22  C   UNL     1     -39.896  51.773 -53.775  1.00  0.00     0.076 A 
HETATM   23  C   UNL     1     -39.636  52.014 -52.426  1.00  0.00     0.037 A 
HETATM   24  C   UNL     1     -39.398  50.943 -51.564  1.00  0.00     0.003 A 
HETATM   25  C   UNL     1     -39.436  49.636 -52.052  1.00  0.00     0.000 A 
HETATM   26  C   UNL     1     -39.718  49.398 -53.399  1.00  0.00     0.003 A 
HETATM   27  C   UNL     1     -39.959  50.467 -54.261  1.00  0.00     0.037 A 
ENDBRANCH  21  22
ENDBRANCH  18  21
ENDBRANCH  11  15
ENDBRANCH   4   9
BRANCH   1  28
HETATM   28  N   UNL     1     -48.415  62.368 -52.472  1.00  0.00    -0.274 N 
HETATM   29  N   UNL     1     -48.305  63.535 -51.813  1.00  0.00     0.005 NA
HETATM   30  N   UNL     1     -49.481  64.142 -51.852  1.00  0.00    -0.161 NA
HETATM   31  C   UNL     1     -50.345  63.347 -52.557  1.00  0.00     0.095 A 
HETATM   32  C   UNL     1     -49.682  62.211 -52.965  1.00  0.00     0.139 A 
BRANCH  31  33
HETATM   33  C   UNL     1     -51.744  63.793 -52.781  1.00  0.00     0.296 C 
BRANCH  33  34
HETATM   34  N   UNL     1     -52.270  63.463 -54.165  1.00  0.00    -0.066 N 
HETATM   35  C   UNL     1     -53.036  64.608 -54.757  1.00  0.00     0.270 C 
HETATM   36  H   UNL     1     -51.430  63.318 -54.744  1.00  0.00     0.280 HD
BRANCH  34  37
HETATM   37  C   UNL     1     -53.024  62.152 -54.193  1.00  0.00     0.273 C 
BRANCH  37  38
HETATM   38  C   UNL     1     -52.873  61.388 -55.480  1.00  0.00    -0.033 A 
HETATM   39  C   UNL     1     -53.991  61.104 -56.282  1.00  0.00     0.009 A 
HETATM   40  C   UNL     1     -53.845  60.366 -57.458  1.00  0.00     0.001 A 
HETATM   41  C   UNL     1     -52.588  59.910 -57.848  1.00  0.00     0.000 A 
HETATM   42  C   UNL     1     -51.471  60.193 -57.066  1.00  0.00     0.001 A 
HETATM   43  C   UNL     1     -51.610  60.929 -55.889  1.00  0.00     0.009 A 
ENDBRANCH  37  38
ENDBRANCH  34  37
ENDBRANCH  33  34
ENDBRANCH  31  33
ENDBRANCH   1  28
TORSDOF 9
ENDMDL
MODEL 5
REMARK VINA RESULT:      -8.4      6.554     14.303
REMARK  9 active torsions:
REMARK  status: ('A' for Active; 'I' for Inactive)
REMARK    1  A    between atoms: N_2  and  C_4 
REMARK    2  A    between atoms: N_2  and  C_35 
REMARK    3  A    between atoms: C_4  and  C_5 
REMARK    4  A    between atoms: N_8  and  C_9 
REMARK    5  A    between atoms: C_12  and  N_13 
REMARK       I    between atoms: N_13  and  C_14 
REMARK       I    between atoms: C_14  and  N_15 
REMARK    6  A    between atoms: N_15  and  C_16 
REMARK    7  A    between atoms: C_19  and  O_20 
REMARK    8  A    between atoms: O_20  and  C_21 
REMARK    9  A    between atoms: C_35  and  C_36 
ROOT
HETATM    1  C   UNL     1     -44.148  60.480 -51.467  1.00  0.00     0.161 C 
HETATM    2  C   UNL     1     -44.826  60.901 -50.169  1.00  0.00     0.179 C 
HETATM    3  C   UNL     1     -46.213  61.320 -50.627  1.00  0.00     0.177 C 
HETATM    4  C   UNL     1     -46.169  62.845 -50.678  1.00  0.00     0.141 C 
HETATM    5  C   UNL     1     -44.806  63.229 -50.111  1.00  0.00     0.196 C 
HETATM    6  O   UNL     1     -44.214  62.043 -49.552  1.00  0.00    -0.379 OA
HETATM    7  O   UNL     1     -46.436  60.783 -51.942  1.00  0.00    -0.379 OA
HETATM    8  C   UNL     1     -45.320  59.948 -52.274  1.00  0.00     0.198 C 
ENDROOT
BRANCH   4   9
HETATM    9  N   UNL     1     -47.322  63.479 -50.051  1.00  0.00    -0.334 N 
HETATM   10  C   UNL     1     -48.555  63.828 -50.499  1.00  0.00     0.321 C 
HETATM   11  N   UNL     1     -48.961  63.312 -51.697  1.00  0.00    -0.309 N 
HETATM   12  O   UNL     1     -49.202  64.570 -49.766  1.00  0.00    -0.247 OA
HETATM   13  H   UNL     1     -48.442  62.535 -52.067  1.00  0.00     0.170 HD
HETATM   14  H   UNL     1     -47.138  63.970 -49.181  1.00  0.00     0.164 HD
BRANCH  11  15
HETATM   15  C   UNL     1     -50.225  63.541 -52.297  1.00  0.00     0.036 A 
HETATM   16  C   UNL     1     -51.424  63.049 -51.776  1.00  0.00     0.032 A 
HETATM   17  C   UNL     1     -52.630  63.251 -52.451  1.00  0.00     0.039 A 
HETATM   18  C   UNL     1     -52.664  63.956 -53.655  1.00  0.00     0.076 A 
HETATM   19  C   UNL     1     -51.476  64.472 -54.172  1.00  0.00     0.039 A 
HETATM   20  C   UNL     1     -50.267  64.281 -53.487  1.00  0.00     0.032 A 
BRANCH  18  21
HETATM   21  O   UNL     1     -53.901  64.009 -54.256  1.00  0.00    -0.311 OA
BRANCH  21  22
HETATM   22  C   UNL     1     -54.101  63.347 -55.438  1.00  0.00     0.076 A 
HETATM   23  C   UNL     1     -54.237  61.959 -55.390  1.00  0.00     0.037 A 
HETATM   24  C   UNL     1     -54.536  61.251 -56.554  1.00  0.00     0.003 A 
HETATM   25  C   UNL     1     -54.711  61.934 -57.758  1.00  0.00     0.000 A 
HETATM   26  C   UNL     1     -54.594  63.326 -57.798  1.00  0.00     0.003 A 
HETATM   27  C   UNL     1     -54.300  64.036 -56.635  1.00  0.00     0.037 A 
ENDBRANCH  21  22
ENDBRANCH  18  21
ENDBRANCH  11  15
ENDBRANCH   4   9
BRANCH   1  28
HETATM   28  N   UNL     1     -43.065  59.539 -51.319  1.00  0.00    -0.274 N 
HETATM   29  N   UNL     1     -41.873  59.913 -50.821  1.00  0.00     0.005 NA
HETATM   30  N   UNL     1     -41.115  58.832 -50.717  1.00  0.00    -0.161 NA
HETATM   31  C   UNL     1     -41.845  57.758 -51.149  1.00  0.00     0.095 A 
HETATM   32  C   UNL     1     -43.096  58.188 -51.534  1.00  0.00     0.139 A 
BRANCH  31  33
HETATM   33  C   UNL     1     -41.248  56.398 -51.122  1.00  0.00     0.296 C 
BRANCH  33  34
HETATM   34  N   UNL     1     -41.972  55.437 -50.199  1.00  0.00    -0.066 N 
HETATM   35  C   UNL     1     -41.109  55.012 -49.049  1.00  0.00     0.270 C 
HETATM   36  H   UNL     1     -42.761  55.976 -49.814  1.00  0.00     0.280 HD
BRANCH  34  37
HETATM   37  C   UNL     1     -42.591  54.279 -50.951  1.00  0.00     0.273 C 
BRANCH  37  38
HETATM   38  C   UNL     1     -41.629  53.553 -51.854  1.00  0.00    -0.033 A 
HETATM   39  C   UNL     1     -41.778  53.603 -53.249  1.00  0.00     0.009 A 
HETATM   40  C   UNL     1     -40.900  52.899 -54.076  1.00  0.00     0.001 A 
HETATM   41  C   UNL     1     -39.867  52.147 -53.523  1.00  0.00     0.000 A 
HETATM   42  C   UNL     1     -39.703  52.098 -52.141  1.00  0.00     0.001 A 
HETATM   43  C   UNL     1     -40.579  52.797 -51.308  1.00  0.00     0.009 A 
ENDBRANCH  37  38
ENDBRANCH  34  37
ENDBRANCH  33  34
ENDBRANCH  31  33
ENDBRANCH   1  28
TORSDOF 9
ENDMDL
MODEL 6
REMARK VINA RESULT:      -8.3      4.834     11.517
REMARK  9 active torsions:
REMARK  status: ('A' for Active; 'I' for Inactive)
REMARK    1  A    between atoms: N_2  and  C_4 
REMARK    2  A    between atoms: N_2  and  C_35 
REMARK    3  A    between atoms: C_4  and  C_5 
REMARK    4  A    between atoms: N_8  and  C_9 
REMARK    5  A    between atoms: C_12  and  N_13 
REMARK       I    between atoms: N_13  and  C_14 
REMARK       I    between atoms: C_14  and  N_15 
REMARK    6  A    between atoms: N_15  and  C_16 
REMARK    7  A    between atoms: C_19  and  O_20 
REMARK    8  A    between atoms: O_20  and  C_21 
REMARK    9  A    between atoms: C_35  and  C_36 
ROOT
HETATM    1  C   UNL     1     -41.732  56.429 -50.421  1.00  0.00     0.161 C 
HETATM    2  C   UNL     1     -42.446  56.882 -51.690  1.00  0.00     0.179 C 
HETATM    3  C   UNL     1     -42.377  58.397 -51.600  1.00  0.00     0.177 C 
HETATM    4  C   UNL     1     -43.754  58.827 -51.102  1.00  0.00     0.141 C 
HETATM    5  C   UNL     1     -44.588  57.550 -51.068  1.00  0.00     0.196 C 
HETATM    6  O   UNL     1     -43.832  56.516 -51.723  1.00  0.00    -0.379 OA
HETATM    7  O   UNL     1     -41.366  58.747 -50.637  1.00  0.00    -0.379 OA
HETATM    8  C   UNL     1     -40.716  57.540 -50.220  1.00  0.00     0.198 C 
ENDROOT
BRANCH   4   9
HETATM    9  N   UNL     1     -44.321  59.938 -51.855  1.00  0.00    -0.334 N 
HETATM   10  C   UNL     1     -44.484  60.184 -53.180  1.00  0.00     0.321 C 
HETATM   11  N   UNL     1     -44.321  59.135 -54.041  1.00  0.00    -0.309 N 
HETATM   12  O   UNL     1     -44.782  61.336 -53.480  1.00  0.00    -0.247 OA
HETATM   13  H   UNL     1     -44.322  58.209 -53.650  1.00  0.00     0.170 HD
HETATM   14  H   UNL     1     -44.424  60.811 -51.345  1.00  0.00     0.164 HD
BRANCH  11  15
HETATM   15  C   UNL     1     -44.486  59.202 -55.448  1.00  0.00     0.036 A 
HETATM   16  C   UNL     1     -45.730  59.319 -56.071  1.00  0.00     0.032 A 
HETATM   17  C   UNL     1     -45.832  59.311 -57.465  1.00  0.00     0.039 A 
HETATM   18  C   UNL     1     -44.693  59.195 -58.262  1.00  0.00     0.076 A 
HETATM   19  C   UNL     1     -43.443  59.102 -57.650  1.00  0.00     0.039 A 
HETATM   20  C   UNL     1     -43.340  59.124 -56.251  1.00  0.00     0.032 A 
BRANCH  18  21
HETATM   21  O   UNL     1     -44.943  59.116 -59.613  1.00  0.00    -0.311 OA
BRANCH  21  22
HETATM   22  C   UNL     1     -45.213  57.896 -60.174  1.00  0.00     0.076 A 
HETATM   23  C   UNL     1     -44.157  56.993 -60.304  1.00  0.00     0.037 A 
HETATM   24  C   UNL     1     -44.401  55.705 -60.783  1.00  0.00     0.003 A 
HETATM   25  C   UNL     1     -45.701  55.322 -61.115  1.00  0.00     0.000 A 
HETATM   26  C   UNL     1     -46.758  56.222 -60.964  1.00  0.00     0.003 A 
HETATM   27  C   UNL     1     -46.517  57.508 -60.483  1.00  0.00     0.037 A 
ENDBRANCH  21  22
ENDBRANCH  18  21
ENDBRANCH  11  15
ENDBRANCH   4   9
BRANCH   1  28
HETATM   28  N   UNL     1     -41.152  55.110 -50.478  1.00  0.00    -0.274 N 
HETATM   29  N   UNL     1     -41.514  54.145 -49.614  1.00  0.00     0.005 NA
HETATM   30  N   UNL     1     -40.893  53.029 -49.962  1.00  0.00    -0.161 NA
HETATM   31  C   UNL     1     -40.133  53.293 -51.070  1.00  0.00     0.095 A 
HETATM   32  C   UNL     1     -40.289  54.616 -51.418  1.00  0.00     0.139 A 
BRANCH  31  33
HETATM   33  C   UNL     1     -39.338  52.207 -51.697  1.00  0.00     0.296 C 
BRANCH  33  34
HETATM   34  N   UNL     1     -40.058  51.509 -52.835  1.00  0.00    -0.066 N 
HETATM   35  C   UNL     1     -39.833  50.027 -52.811  1.00  0.00     0.270 C 
HETATM   36  H   UNL     1     -41.060  51.675 -52.661  1.00  0.00     0.280 HD
BRANCH  34  37
HETATM   37  C   UNL     1     -39.760  52.145 -54.176  1.00  0.00     0.273 C 
BRANCH  37  38
HETATM   38  C   UNL     1     -40.697  53.264 -54.543  1.00  0.00    -0.033 A 
HETATM   39  C   UNL     1     -40.200  54.488 -55.019  1.00  0.00     0.009 A 
HETATM   40  C   UNL     1     -41.075  55.532 -55.325  1.00  0.00     0.001 A 
HETATM   41  C   UNL     1     -42.448  55.365 -55.167  1.00  0.00     0.000 A 
HETATM   42  C   UNL     1     -42.954  54.152 -54.705  1.00  0.00     0.001 A 
HETATM   43  C   UNL     1     -42.084  53.106 -54.395  1.00  0.00     0.009 A 
ENDBRANCH  37  38
ENDBRANCH  34  37
ENDBRANCH  33  34
ENDBRANCH  31  33
ENDBRANCH   1  28
TORSDOF 9
ENDMDL
MODEL 7
REMARK VINA RESULT:      -8.1      3.833     12.069
REMARK  9 active torsions:
REMARK  status: ('A' for Active; 'I' for Inactive)
REMARK    1  A    between atoms: N_2  and  C_4 
REMARK    2  A    between atoms: N_2  and  C_35 
REMARK    3  A    between atoms: C_4  and  C_5 
REMARK    4  A    between atoms: N_8  and  C_9 
REMARK    5  A    between atoms: C_12  and  N_13 
REMARK       I    between atoms: N_13  and  C_14 
REMARK       I    between atoms: C_14  and  N_15 
REMARK    6  A    between atoms: N_15  and  C_16 
REMARK    7  A    between atoms: C_19  and  O_20 
REMARK    8  A    between atoms: O_20  and  C_21 
REMARK    9  A    between atoms: C_35  and  C_36 
ROOT
HETATM    1  C   UNL     1     -42.115  57.449 -50.735  1.00  0.00     0.161 C 
HETATM    2  C   UNL     1     -42.768  57.463 -52.112  1.00  0.00     0.179 C 
HETATM    3  C   UNL     1     -42.843  58.945 -52.440  1.00  0.00     0.177 C 
HETATM    4  C   UNL     1     -44.288  59.342 -52.148  1.00  0.00     0.141 C 
HETATM    5  C   UNL     1     -45.002  58.039 -51.804  1.00  0.00     0.196 C 
HETATM    6  O   UNL     1     -44.109  56.955 -52.111  1.00  0.00    -0.379 OA
HETATM    7  O   UNL     1     -41.945  59.648 -51.563  1.00  0.00    -0.379 OA
HETATM    8  C   UNL     1     -41.222  58.675 -50.798  1.00  0.00     0.198 C 
ENDROOT
BRANCH   4   9
HETATM    9  N   UNL     1     -44.893  60.143 -53.204  1.00  0.00    -0.334 N 
HETATM   10  C   UNL     1     -45.104  59.937 -54.529  1.00  0.00     0.321 C 
HETATM   11  N   UNL     1     -44.956  58.663 -55.002  1.00  0.00    -0.309 N 
HETATM   12  O   UNL     1     -45.426  60.924 -55.182  1.00  0.00    -0.247 OA
HETATM   13  H   UNL     1     -44.933  57.917 -54.326  1.00  0.00     0.170 HD
HETATM   14  H   UNL     1     -44.990  61.134 -53.007  1.00  0.00     0.164 HD
BRANCH  11  15
HETATM   15  C   UNL     1     -45.170  58.261 -56.344  1.00  0.00     0.036 A 
HETATM   16  C   UNL     1     -44.139  58.096 -57.271  1.00  0.00     0.032 A 
HETATM   17  C   UNL     1     -44.421  57.764 -58.599  1.00  0.00     0.039 A 
HETATM   18  C   UNL     1     -45.737  57.580 -59.023  1.00  0.00     0.076 A 
HETATM   19  C   UNL     1     -46.773  57.718 -58.100  1.00  0.00     0.039 A 
HETATM   20  C   UNL     1     -46.489  58.039 -56.764  1.00  0.00     0.032 A 
BRANCH  18  21
HETATM   21  O   UNL     1     -45.878  57.340 -60.371  1.00  0.00    -0.311 OA
BRANCH  21  22
HETATM   22  C   UNL     1     -47.070  57.627 -60.982  1.00  0.00     0.076 A 
HETATM   23  C   UNL     1     -47.444  58.968 -61.077  1.00  0.00     0.037 A 
HETATM   24  C   UNL     1     -48.602  59.317 -61.773  1.00  0.00     0.003 A 
HETATM   25  C   UNL     1     -49.372  58.326 -62.382  1.00  0.00     0.000 A 
HETATM   26  C   UNL     1     -48.983  56.987 -62.303  1.00  0.00     0.003 A 
HETATM   27  C   UNL     1     -47.824  56.636 -61.611  1.00  0.00     0.037 A 
ENDBRANCH  21  22
ENDBRANCH  18  21
ENDBRANCH  11  15
ENDBRANCH   4   9
BRANCH   1  28
HETATM   28  N   UNL     1     -41.416  56.233 -50.398  1.00  0.00    -0.274 N 
HETATM   29  N   UNL     1     -41.622  55.605 -49.227  1.00  0.00     0.005 NA
HETATM   30  N   UNL     1     -40.921  54.482 -49.235  1.00  0.00    -0.161 NA
HETATM   31  C   UNL     1     -40.269  54.396 -50.436  1.00  0.00     0.095 A 
HETATM   32  C   UNL     1     -40.576  55.504 -51.195  1.00  0.00     0.139 A 
BRANCH  31  33
HETATM   33  C   UNL     1     -39.418  53.216 -50.733  1.00  0.00     0.296 C 
BRANCH  33  34
HETATM   34  N   UNL     1     -40.136  52.133 -51.514  1.00  0.00    -0.066 N 
HETATM   35  C   UNL     1     -39.985  50.788 -50.869  1.00  0.00     0.270 C 
HETATM   36  H   UNL     1     -41.134  52.388 -51.472  1.00  0.00     0.280 HD
BRANCH  34  37
HETATM   37  C   UNL     1     -39.767  52.145 -52.981  1.00  0.00     0.273 C 
BRANCH  37  38
HETATM   38  C   UNL     1     -40.599  53.084 -53.813  1.00  0.00    -0.033 A 
HETATM   39  C   UNL     1     -40.020  53.823 -54.856  1.00  0.00     0.009 A 
HETATM   40  C   UNL     1     -40.793  54.716 -55.601  1.00  0.00     0.001 A 
HETATM   41  C   UNL     1     -42.148  54.875 -55.318  1.00  0.00     0.000 A 
HETATM   42  C   UNL     1     -42.736  54.139 -54.292  1.00  0.00     0.001 A 
HETATM   43  C   UNL     1     -41.968  53.247 -53.543  1.00  0.00     0.009 A 
ENDBRANCH  37  38
ENDBRANCH  34  37
ENDBRANCH  33  34
ENDBRANCH  31  33
ENDBRANCH   1  28
TORSDOF 9
ENDMDL
MODEL 8
REMARK VINA RESULT:      -8.1      5.507      7.198
REMARK  9 active torsions:
REMARK  status: ('A' for Active; 'I' for Inactive)
REMARK    1  A    between atoms: N_2  and  C_4 
REMARK    2  A    between atoms: N_2  and  C_35 
REMARK    3  A    between atoms: C_4  and  C_5 
REMARK    4  A    between atoms: N_8  and  C_9 
REMARK    5  A    between atoms: C_12  and  N_13 
REMARK       I    between atoms: N_13  and  C_14 
REMARK       I    between atoms: C_14  and  N_15 
REMARK    6  A    between atoms: N_15  and  C_16 
REMARK    7  A    between atoms: C_19  and  O_20 
REMARK    8  A    between atoms: O_20  and  C_21 
REMARK    9  A    between atoms: C_35  and  C_36 
ROOT
HETATM    1  C   UNL     1     -45.695  61.540 -51.717  1.00  0.00     0.161 C 
HETATM    2  C   UNL     1     -44.262  61.761 -52.188  1.00  0.00     0.179 C 
HETATM    3  C   UNL     1     -43.612  60.408 -51.952  1.00  0.00     0.177 C 
HETATM    4  C   UNL     1     -42.827  60.568 -50.652  1.00  0.00     0.141 C 
HETATM    5  C   UNL     1     -42.951  62.043 -50.285  1.00  0.00     0.196 C 
HETATM    6  O   UNL     1     -43.547  62.724 -51.403  1.00  0.00    -0.379 OA
HETATM    7  O   UNL     1     -44.653  59.428 -51.790  1.00  0.00    -0.379 OA
HETATM    8  C   UNL     1     -45.908  60.072 -52.039  1.00  0.00     0.198 C 
ENDROOT
BRANCH   4   9
HETATM    9  N   UNL     1     -41.470  60.041 -50.726  1.00  0.00    -0.334 N 
HETATM   10  C   UNL     1     -40.947  58.792 -50.642  1.00  0.00     0.321 C 
HETATM   11  N   UNL     1     -41.811  57.737 -50.736  1.00  0.00    -0.309 N 
HETATM   12  O   UNL     1     -39.729  58.727 -50.504  1.00  0.00    -0.247 OA
HETATM   13  H   UNL     1     -42.734  57.923 -51.090  1.00  0.00     0.170 HD
HETATM   14  H   UNL     1     -40.725  60.718 -50.593  1.00  0.00     0.164 HD
BRANCH  11  15
HETATM   15  C   UNL     1     -41.436  56.370 -50.704  1.00  0.00     0.036 A 
HETATM   16  C   UNL     1     -41.152  55.678 -49.525  1.00  0.00     0.032 A 
HETATM   17  C   UNL     1     -40.722  54.349 -49.565  1.00  0.00     0.039 A 
HETATM   18  C   UNL     1     -40.576  53.683 -50.783  1.00  0.00     0.076 A 
HETATM   19  C   UNL     1     -40.881  54.358 -51.965  1.00  0.00     0.039 A 
HETATM   20  C   UNL     1     -41.326  55.688 -51.924  1.00  0.00     0.032 A 
BRANCH  18  21
HETATM   21  O   UNL     1     -40.066  52.409 -50.684  1.00  0.00    -0.311 OA
BRANCH  21  22
HETATM   22  C   UNL     1     -39.901  51.664 -51.822  1.00  0.00     0.076 A 
HETATM   23  C   UNL     1     -39.623  50.305 -51.672  1.00  0.00     0.037 A 
HETATM   24  C   UNL     1     -39.539  49.486 -52.799  1.00  0.00     0.003 A 
HETATM   25  C   UNL     1     -39.748  50.027 -54.068  1.00  0.00     0.000 A 
HETATM   26  C   UNL     1     -40.047  51.383 -54.212  1.00  0.00     0.003 A 
HETATM   27  C   UNL     1     -40.135  52.203 -53.087  1.00  0.00     0.037 A 
ENDBRANCH  21  22
ENDBRANCH  18  21
ENDBRANCH  11  15
ENDBRANCH   4   9
BRANCH   1  28
HETATM   28  N   UNL     1     -46.678  62.417 -52.304  1.00  0.00    -0.274 N 
HETATM   29  N   UNL     1     -46.466  63.018 -53.488  1.00  0.00     0.005 NA
HETATM   30  N   UNL     1     -47.565  63.680 -53.815  1.00  0.00    -0.161 NA
HETATM   31  C   UNL     1     -48.489  63.486 -52.823  1.00  0.00     0.095 A 
HETATM   32  C   UNL     1     -47.943  62.678 -51.851  1.00  0.00     0.139 A 
BRANCH  31  33
HETATM   33  C   UNL     1     -49.836  64.099 -52.937  1.00  0.00     0.296 C 
BRANCH  33  34
HETATM   34  N   UNL     1     -50.662  63.538 -54.078  1.00  0.00    -0.066 N 
HETATM   35  C   UNL     1     -51.787  64.455 -54.455  1.00  0.00     0.270 C 
HETATM   36  H   UNL     1     -50.017  63.490 -54.879  1.00  0.00     0.280 HD
BRANCH  34  37
HETATM   37  C   UNL     1     -51.105  62.114 -53.818  1.00  0.00     0.273 C 
BRANCH  37  38
HETATM   38  C   UNL     1     -51.527  61.370 -55.056  1.00  0.00    -0.033 A 
HETATM   39  C   UNL     1     -52.712  60.617 -55.071  1.00  0.00     0.009 A 
HETATM   40  C   UNL     1     -53.079  59.903 -56.213  1.00  0.00     0.001 A 
HETATM   41  C   UNL     1     -52.274  59.937 -57.349  1.00  0.00     0.000 A 
HETATM   42  C   UNL     1     -51.101  60.689 -57.350  1.00  0.00     0.001 A 
HETATM   43  C   UNL     1     -50.728  61.402 -56.210  1.00  0.00     0.009 A 
ENDBRANCH  37  38
ENDBRANCH  34  37
ENDBRANCH  33  34
ENDBRANCH  31  33
ENDBRANCH   1  28
TORSDOF 9
ENDMDL
MODEL 9
REMARK VINA RESULT:      -8.1     18.578     21.059
REMARK  9 active torsions:
REMARK  status: ('A' for Active; 'I' for Inactive)
REMARK    1  A    between atoms: N_2  and  C_4 
REMARK    2  A    between atoms: N_2  and  C_35 
REMARK    3  A    between atoms: C_4  and  C_5 
REMARK    4  A    between atoms: N_8  and  C_9 
REMARK    5  A    between atoms: C_12  and  N_13 
REMARK       I    between atoms: N_13  and  C_14 
REMARK       I    between atoms: C_14  and  N_15 
REMARK    6  A    between atoms: N_15  and  C_16 
REMARK    7  A    between atoms: C_19  and  O_20 
REMARK    8  A    between atoms: O_20  and  C_21 
REMARK    9  A    between atoms: C_35  and  C_36 
ROOT
HETATM    1  C   UNL     1     -35.948  41.186 -56.774  1.00  0.00     0.161 C 
HETATM    2  C   UNL     1     -36.935  41.137 -55.614  1.00  0.00     0.179 C 
HETATM    3  C   UNL     1     -36.203  41.880 -54.509  1.00  0.00     0.177 C 
HETATM    4  C   UNL     1     -35.639  40.788 -53.604  1.00  0.00     0.141 C 
HETATM    5  C   UNL     1     -36.196  39.479 -54.155  1.00  0.00     0.196 C 
HETATM    6  O   UNL     1     -37.191  39.807 -55.140  1.00  0.00    -0.379 OA
HETATM    7  O   UNL     1     -35.134  42.637 -55.105  1.00  0.00    -0.379 OA
HETATM    8  C   UNL     1     -35.241  42.507 -56.528  1.00  0.00     0.198 C 
ENDROOT
BRANCH   4   9
HETATM    9  N   UNL     1     -35.871  41.033 -52.187  1.00  0.00    -0.334 N 
HETATM   10  C   UNL     1     -35.320  40.536 -51.050  1.00  0.00     0.321 C 
HETATM   11  N   UNL     1     -34.155  39.832 -51.167  1.00  0.00    -0.309 N 
HETATM   12  O   UNL     1     -35.922  40.783 -50.009  1.00  0.00    -0.247 OA
HETATM   13  H   UNL     1     -33.648  39.915 -52.032  1.00  0.00     0.170 HD
HETATM   14  H   UNL     1     -36.749  41.486 -51.954  1.00  0.00     0.164 HD
BRANCH  11  15
HETATM   15  C   UNL     1     -33.426  39.275 -50.086  1.00  0.00     0.036 A 
HETATM   16  C   UNL     1     -33.701  38.020 -49.540  1.00  0.00     0.032 A 
HETATM   17  C   UNL     1     -32.990  37.555 -48.430  1.00  0.00     0.039 A 
HETATM   18  C   UNL     1     -31.984  38.330 -47.852  1.00  0.00     0.076 A 
HETATM   19  C   UNL     1     -31.685  39.575 -48.405  1.00  0.00     0.039 A 
HETATM   20  C   UNL     1     -32.390  40.036 -49.528  1.00  0.00     0.032 A 
BRANCH  18  21
HETATM   21  O   UNL     1     -31.423  37.791 -46.717  1.00  0.00    -0.311 OA
BRANCH  21  22
HETATM   22  C   UNL     1     -30.608  38.569 -45.938  1.00  0.00     0.076 A 
HETATM   23  C   UNL     1     -31.197  39.282 -44.894  1.00  0.00     0.037 A 
HETATM   24  C   UNL     1     -30.396  40.014 -44.016  1.00  0.00     0.003 A 
HETATM   25  C   UNL     1     -29.010  40.015 -44.177  1.00  0.00     0.000 A 
HETATM   26  C   UNL     1     -28.423  39.282 -45.210  1.00  0.00     0.003 A 
HETATM   27  C   UNL     1     -29.221  38.548 -46.087  1.00  0.00     0.037 A 
ENDBRANCH  21  22
ENDBRANCH  18  21
ENDBRANCH  11  15
ENDBRANCH   4   9
BRANCH   1  28
HETATM   28  N   UNL     1     -36.535  41.072 -58.086  1.00  0.00    -0.274 N 
HETATM   29  N   UNL     1     -36.928  42.156 -58.778  1.00  0.00     0.005 NA
HETATM   30  N   UNL     1     -37.337  41.756 -59.972  1.00  0.00    -0.161 NA
HETATM   31  C   UNL     1     -37.192  40.396 -60.037  1.00  0.00     0.095 A 
HETATM   32  C   UNL     1     -36.676  39.941 -58.844  1.00  0.00     0.139 A 
BRANCH  31  33
HETATM   33  C   UNL     1     -37.556  39.672 -61.281  1.00  0.00     0.296 C 
BRANCH  33  34
HETATM   34  N   UNL     1     -36.926  38.297 -61.388  1.00  0.00    -0.066 N 
HETATM   35  C   UNL     1     -36.182  38.124 -62.678  1.00  0.00     0.270 C 
HETATM   36  H   UNL     1     -36.237  38.257 -60.623  1.00  0.00     0.280 HD
BRANCH  34  37
HETATM   37  C   UNL     1     -37.918  37.190 -61.109  1.00  0.00     0.273 C 
BRANCH  37  38
HETATM   38  C   UNL     1     -39.320  37.497 -61.562  1.00  0.00    -0.033 A 
HETATM   39  C   UNL     1     -39.657  37.463 -62.925  1.00  0.00     0.009 A 
HETATM   40  C   UNL     1     -40.952  37.782 -63.338  1.00  0.00     0.001 A 
HETATM   41  C   UNL     1     -41.922  38.131 -62.401  1.00  0.00     0.000 A 
HETATM   42  C   UNL     1     -41.602  38.158 -61.045  1.00  0.00     0.001 A 
HETATM   43  C   UNL     1     -40.308  37.843 -60.626  1.00  0.00     0.009 A 
ENDBRANCH  37  38
ENDBRANCH  34  37
ENDBRANCH  33  34
ENDBRANCH  31  33
ENDBRANCH   1  28
TORSDOF 9
ENDMDL
MODEL 10
REMARK VINA RESULT:      -8.1      5.343     12.997
REMARK  9 active torsions:
REMARK  status: ('A' for Active; 'I' for Inactive)
REMARK    1  A    between atoms: N_2  and  C_4 
REMARK    2  A    between atoms: N_2  and  C_35 
REMARK    3  A    between atoms: C_4  and  C_5 
REMARK    4  A    between atoms: N_8  and  C_9 
REMARK    5  A    between atoms: C_12  and  N_13 
REMARK       I    between atoms: N_13  and  C_14 
REMARK       I    between atoms: C_14  and  N_15 
REMARK    6  A    between atoms: N_15  and  C_16 
REMARK    7  A    between atoms: C_19  and  O_20 
REMARK    8  A    between atoms: O_20  and  C_21 
REMARK    9  A    between atoms: C_35  and  C_36 
ROOT
HETATM    1  C   UNL     1     -44.024  60.165 -52.808  1.00  0.00     0.161 C 
HETATM    2  C   UNL     1     -45.527  60.408 -52.868  1.00  0.00     0.179 C 
HETATM    3  C   UNL     1     -45.629  61.924 -52.876  1.00  0.00     0.177 C 
HETATM    4  C   UNL     1     -45.988  62.305 -51.442  1.00  0.00     0.141 C 
HETATM    5  C   UNL     1     -46.214  60.981 -50.718  1.00  0.00     0.196 C 
HETATM    6  O   UNL     1     -46.226  59.937 -51.707  1.00  0.00    -0.379 OA
HETATM    7  O   UNL     1     -44.342  62.462 -53.228  1.00  0.00    -0.379 OA
HETATM    8  C   UNL     1     -43.482  61.365 -53.563  1.00  0.00     0.198 C 
ENDROOT
BRANCH   4   9
HETATM    9  N   UNL     1     -47.073  63.273 -51.353  1.00  0.00    -0.334 N 
HETATM   10  C   UNL     1     -48.265  63.402 -51.991  1.00  0.00     0.321 C 
HETATM   11  N   UNL     1     -48.718  62.330 -52.707  1.00  0.00    -0.309 N 
HETATM   12  O   UNL     1     -48.837  64.478 -51.847  1.00  0.00    -0.247 OA
HETATM   13  H   UNL     1     -48.278  61.441 -52.540  1.00  0.00     0.170 HD
HETATM   14  H   UNL     1     -46.844  64.155 -50.906  1.00  0.00     0.164 HD
BRANCH  11  15
HETATM   15  C   UNL     1     -49.952  62.276 -53.403  1.00  0.00     0.036 A 
HETATM   16  C   UNL     1     -51.131  61.782 -52.841  1.00  0.00     0.032 A 
HETATM   17  C   UNL     1     -52.300  61.693 -53.602  1.00  0.00     0.039 A 
HETATM   18  C   UNL     1     -52.315  62.104 -54.935  1.00  0.00     0.076 A 
HETATM   19  C   UNL     1     -51.149  62.622 -55.499  1.00  0.00     0.039 A 
HETATM   20  C   UNL     1     -49.980  62.724 -54.731  1.00  0.00     0.032 A 
BRANCH  18  21
HETATM   21  O   UNL     1     -53.505  61.884 -55.591  1.00  0.00    -0.311 OA
BRANCH  21  22
HETATM   22  C   UNL     1     -53.528  61.046 -56.674  1.00  0.00     0.076 A 
HETATM   23  C   UNL     1     -53.256  59.696 -56.456  1.00  0.00     0.037 A 
HETATM   24  C   UNL     1     -53.359  58.788 -57.511  1.00  0.00     0.003 A 
HETATM   25  C   UNL     1     -53.750  59.233 -58.775  1.00  0.00     0.000 A 
HETATM   26  C   UNL     1     -54.042  60.582 -58.984  1.00  0.00     0.003 A 
HETATM   27  C   UNL     1     -53.943  61.490 -57.930  1.00  0.00     0.037 A 
ENDBRANCH  21  22
ENDBRANCH  18  21
ENDBRANCH  11  15
ENDBRANCH   4   9
BRANCH   1  28
HETATM   28  N   UNL     1     -43.584  58.896 -53.333  1.00  0.00    -0.274 N 
HETATM   29  N   UNL     1     -42.357  58.740 -53.861  1.00  0.00     0.005 NA
HETATM   30  N   UNL     1     -42.203  57.463 -54.173  1.00  0.00    -0.161 NA
HETATM   31  C   UNL     1     -43.350  56.800 -53.828  1.00  0.00     0.095 A 
HETATM   32  C   UNL     1     -44.244  57.698 -53.286  1.00  0.00     0.139 A 
BRANCH  31  33
HETATM   33  C   UNL     1     -43.452  55.335 -54.046  1.00  0.00     0.296 C 
BRANCH  33  34
HETATM   34  N   UNL     1     -42.757  54.514 -52.977  1.00  0.00    -0.066 N 
HETATM   35  C   UNL     1     -43.200  54.906 -51.599  1.00  0.00     0.270 C 
HETATM   36  H   UNL     1     -43.066  53.545 -53.139  1.00  0.00     0.280 HD
BRANCH  34  37
HETATM   37  C   UNL     1     -41.254  54.505 -53.150  1.00  0.00     0.273 C 
BRANCH  37  38
HETATM   38  C   UNL     1     -40.651  53.126 -53.177  1.00  0.00    -0.033 A 
HETATM   39  C   UNL     1     -40.729  52.332 -54.332  1.00  0.00     0.009 A 
HETATM   40  C   UNL     1     -40.195  51.042 -54.337  1.00  0.00     0.001 A 
HETATM   41  C   UNL     1     -39.575  50.535 -53.198  1.00  0.00     0.000 A 
HETATM   42  C   UNL     1     -39.483  51.317 -52.049  1.00  0.00     0.001 A 
HETATM   43  C   UNL     1     -40.017  52.607 -52.037  1.00  0.00     0.009 A 
ENDBRANCH  37  38
ENDBRANCH  34  37
ENDBRANCH  33  34
ENDBRANCH  31  33
ENDBRANCH   1  28
TORSDOF 9
ENDMDL
