MODEL 1
REMARK VINA RESULT:      -8.4      0.000      0.000
REMARK  2 active torsions:
REMARK  status: ('A' for Active; 'I' for Inactive)
REMARK    1  A    between atoms: N_3  and  C_4 
REMARK    2  A    between atoms: C_12  and  C_13 
REMARK       I    between atoms: C_13  and  N_14 
ROOT
HETATM    1  C   UNL     1     -43.699  57.390 -53.161  1.00  0.00     0.262 C 
HETATM    2  N   UNL     1     -43.416  58.626 -52.550  1.00  0.00    -0.311 N 
HETATM    3  C   UNL     1     -42.234  58.963 -51.837  1.00  0.00     0.064 A 
HETATM    4  C   UNL     1     -42.238  59.792 -50.696  1.00  0.00     0.061 A 
HETATM    5  C   UNL     1     -41.012  60.071 -50.061  1.00  0.00     0.032 A 
HETATM    6  C   UNL     1     -39.804  59.571 -50.546  1.00  0.00     0.002 A 
HETATM    7  C   UNL     1     -39.797  58.785 -51.688  1.00  0.00     0.002 A 
HETATM    8  C   UNL     1     -40.999  58.490 -52.330  1.00  0.00     0.032 A 
HETATM    9  N   UNL     1     -43.357  60.375 -50.064  1.00  0.00    -0.325 N 
HETATM   10  C   UNL     1     -44.690  60.421 -50.324  1.00  0.00     0.227 C 
HETATM   11  O   UNL     1     -45.381  61.067 -49.529  1.00  0.00    -0.273 OA
HETATM   12  C   UNL     1     -45.320  59.668 -51.473  1.00  0.00     0.092 C 
HETATM   13  C   UNL     1     -46.678  60.281 -51.827  1.00  0.00     0.021 C 
HETATM   14  C   UNL     1     -44.409  59.686 -52.681  1.00  0.00     0.146 C 
HETATM   15  O   UNL     1     -44.574  57.294 -54.023  1.00  0.00    -0.267 OA
HETATM   16  H   UNL     1     -43.160  60.927 -49.235  1.00  0.00     0.169 HD
ENDROOT
BRANCH   1  17
HETATM   17  C   UNL     1     -43.023  56.177 -52.693  1.00  0.00     0.075 C 
HETATM   18  C   UNL     1     -42.089  55.429 -53.410  1.00  0.00     0.050 C 
HETATM   19  C   UNL     1     -41.465  55.757 -54.722  1.00  0.00     0.071 C 
HETATM   20  N   UNL     1     -41.787  54.314 -52.634  1.00  0.00    -0.238 N 
HETATM   21  N   UNL     1     -42.371  54.406 -51.409  1.00  0.00    -0.179 NA
HETATM   22  C   UNL     1     -43.176  55.460 -51.493  1.00  0.00     0.158 C 
BRANCH  20  23
HETATM   23  C   UNL     1     -41.005  53.157 -52.927  1.00  0.00     0.061 A 
HETATM   24  C   UNL     1     -40.136  52.662 -51.946  1.00  0.00     0.051 A 
HETATM   25  C   UNL     1     -39.380  51.540 -52.235  1.00  0.00     0.118 A 
HETATM   26  N   UNL     1     -39.442  50.878 -53.408  1.00  0.00    -0.273 NA
HETATM   27  C   UNL     1     -40.308  51.352 -54.326  1.00  0.00     0.118 A 
HETATM   28  C   UNL     1     -41.103  52.473 -54.139  1.00  0.00     0.051 A 
ENDBRANCH  20  23
ENDBRANCH   1  17
TORSDOF 2
ENDMDL
MODEL 2
REMARK VINA RESULT:      -8.3      3.274      5.153
REMARK  2 active torsions:
REMARK  status: ('A' for Active; 'I' for Inactive)
REMARK    1  A    between atoms: N_3  and  C_4 
REMARK    2  A    between atoms: C_12  and  C_13 
REMARK       I    between atoms: C_13  and  N_14 
ROOT
HETATM    1  C   UNL     1     -42.553  56.777 -54.170  1.00  0.00     0.262 C 
HETATM    2  N   UNL     1     -42.897  57.493 -55.333  1.00  0.00    -0.311 N 
HETATM    3  C   UNL     1     -42.865  57.000 -56.665  1.00  0.00     0.064 A 
HETATM    4  C   UNL     1     -42.489  57.796 -57.767  1.00  0.00     0.061 A 
HETATM    5  C   UNL     1     -42.495  57.216 -59.051  1.00  0.00     0.032 A 
HETATM    6  C   UNL     1     -42.885  55.894 -59.257  1.00  0.00     0.002 A 
HETATM    7  C   UNL     1     -43.289  55.123 -58.179  1.00  0.00     0.002 A 
HETATM    8  C   UNL     1     -43.285  55.673 -56.897  1.00  0.00     0.032 A 
HETATM    9  N   UNL     1     -42.060  59.140 -57.747  1.00  0.00    -0.325 N 
HETATM   10  C   UNL     1     -41.934  60.093 -56.786  1.00  0.00     0.227 C 
HETATM   11  O   UNL     1     -41.531  61.199 -57.160  1.00  0.00    -0.273 OA
HETATM   12  C   UNL     1     -42.194  59.811 -55.324  1.00  0.00     0.092 C 
HETATM   13  C   UNL     1     -42.470  61.118 -54.573  1.00  0.00     0.021 C 
HETATM   14  C   UNL     1     -43.365  58.864 -55.168  1.00  0.00     0.146 C 
HETATM   15  O   UNL     1     -42.922  57.159 -53.058  1.00  0.00    -0.267 OA
HETATM   16  H   UNL     1     -41.809  59.539 -58.646  1.00  0.00     0.169 HD
ENDROOT
BRANCH   1  17
HETATM   17  C   UNL     1     -41.656  55.623 -54.266  1.00  0.00     0.075 C 
HETATM   18  C   UNL     1     -41.849  54.380 -53.663  1.00  0.00     0.050 C 
HETATM   19  C   UNL     1     -43.047  53.898 -52.922  1.00  0.00     0.071 C 
HETATM   20  N   UNL     1     -40.711  53.623 -53.931  1.00  0.00    -0.238 N 
HETATM   21  N   UNL     1     -39.889  54.277 -54.793  1.00  0.00    -0.179 NA
HETATM   22  C   UNL     1     -40.409  55.495 -54.905  1.00  0.00     0.158 C 
BRANCH  20  23
HETATM   23  C   UNL     1     -40.311  52.340 -53.452  1.00  0.00     0.061 A 
HETATM   24  C   UNL     1     -40.301  51.260 -54.343  1.00  0.00     0.051 A 
HETATM   25  C   UNL     1     -39.912  50.017 -53.874  1.00  0.00     0.118 A 
HETATM   26  N   UNL     1     -39.521  49.786 -52.605  1.00  0.00    -0.273 NA
HETATM   27  C   UNL     1     -39.506  50.847 -51.772  1.00  0.00     0.118 A 
HETATM   28  C   UNL     1     -39.886  52.129 -52.141  1.00  0.00     0.051 A 
ENDBRANCH  20  23
ENDBRANCH   1  17
TORSDOF 2
ENDMDL
MODEL 3
REMARK VINA RESULT:      -8.2      4.195      6.349
REMARK  2 active torsions:
REMARK  status: ('A' for Active; 'I' for Inactive)
REMARK    1  A    between atoms: N_3  and  C_4 
REMARK    2  A    between atoms: C_12  and  C_13 
REMARK       I    between atoms: C_13  and  N_14 
ROOT
HETATM    1  C   UNL     1     -42.116  58.849 -55.072  1.00  0.00     0.262 C 
HETATM    2  N   UNL     1     -42.201  57.916 -54.020  1.00  0.00    -0.311 N 
HETATM    3  C   UNL     1     -42.229  56.502 -54.148  1.00  0.00     0.064 A 
HETATM    4  C   UNL     1     -43.002  55.672 -53.309  1.00  0.00     0.061 A 
HETATM    5  C   UNL     1     -42.959  54.279 -53.513  1.00  0.00     0.032 A 
HETATM    6  C   UNL     1     -42.157  53.707 -54.500  1.00  0.00     0.002 A 
HETATM    7  C   UNL     1     -41.371  54.520 -55.301  1.00  0.00     0.002 A 
HETATM    8  C   UNL     1     -41.402  55.903 -55.121  1.00  0.00     0.032 A 
HETATM    9  N   UNL     1     -43.871  56.073 -52.272  1.00  0.00    -0.325 N 
HETATM   10  C   UNL     1     -44.200  57.262 -51.701  1.00  0.00     0.227 C 
HETATM   11  O   UNL     1     -45.012  57.217 -50.771  1.00  0.00    -0.273 OA
HETATM   12  C   UNL     1     -43.669  58.582 -52.211  1.00  0.00     0.092 C 
HETATM   13  C   UNL     1     -43.778  59.653 -51.121  1.00  0.00     0.021 C 
HETATM   14  C   UNL     1     -42.230  58.437 -52.658  1.00  0.00     0.146 C 
HETATM   15  O   UNL     1     -41.765  60.011 -54.862  1.00  0.00    -0.267 OA
HETATM   16  H   UNL     1     -44.362  55.326 -51.791  1.00  0.00     0.169 HD
ENDROOT
BRANCH   1  17
HETATM   17  C   UNL     1     -42.553  58.467 -56.417  1.00  0.00     0.075 C 
HETATM   18  C   UNL     1     -43.836  58.054 -56.778  1.00  0.00     0.050 C 
HETATM   19  C   UNL     1     -45.065  58.045 -55.937  1.00  0.00     0.071 C 
HETATM   20  N   UNL     1     -43.778  57.695 -58.121  1.00  0.00    -0.238 N 
HETATM   21  N   UNL     1     -42.565  58.004 -58.652  1.00  0.00    -0.179 NA
HETATM   22  C   UNL     1     -41.820  58.366 -57.613  1.00  0.00     0.158 C 
BRANCH  20  23
HETATM   23  C   UNL     1     -44.751  57.080 -58.965  1.00  0.00     0.061 A 
HETATM   24  C   UNL     1     -44.453  55.843 -59.549  1.00  0.00     0.051 A 
HETATM   25  C   UNL     1     -45.399  55.250 -60.366  1.00  0.00     0.118 A 
HETATM   26  N   UNL     1     -46.609  55.788 -60.622  1.00  0.00    -0.273 NA
HETATM   27  C   UNL     1     -46.888  56.964 -60.023  1.00  0.00     0.118 A 
HETATM   28  C   UNL     1     -46.006  57.643 -59.196  1.00  0.00     0.051 A 
ENDBRANCH  20  23
ENDBRANCH   1  17
TORSDOF 2
ENDMDL
MODEL 4
REMARK VINA RESULT:      -7.8      1.641      2.289
REMARK  2 active torsions:
REMARK  status: ('A' for Active; 'I' for Inactive)
REMARK    1  A    between atoms: N_3  and  C_4 
REMARK    2  A    between atoms: C_12  and  C_13 
REMARK       I    between atoms: C_13  and  N_14 
ROOT
HETATM    1  C   UNL     1     -42.410  56.756 -54.950  1.00  0.00     0.262 C 
HETATM    2  N   UNL     1     -42.585  58.012 -54.337  1.00  0.00    -0.311 N 
HETATM    3  C   UNL     1     -42.144  58.384 -53.039  1.00  0.00     0.064 A 
HETATM    4  C   UNL     1     -42.883  59.241 -52.197  1.00  0.00     0.061 A 
HETATM    5  C   UNL     1     -42.358  59.555 -50.928  1.00  0.00     0.032 A 
HETATM    6  C   UNL     1     -41.125  59.063 -50.502  1.00  0.00     0.002 A 
HETATM    7  C   UNL     1     -40.383  58.250 -51.343  1.00  0.00     0.002 A 
HETATM    8  C   UNL     1     -40.886  57.920 -52.602  1.00  0.00     0.032 A 
HETATM    9  N   UNL     1     -44.142  59.822 -52.456  1.00  0.00    -0.325 N 
HETATM   10  C   UNL     1     -44.990  59.840 -53.518  1.00  0.00     0.227 C 
HETATM   11  O   UNL     1     -46.029  60.495 -53.379  1.00  0.00    -0.273 OA
HETATM   12  C   UNL     1     -44.729  59.049 -54.779  1.00  0.00     0.092 C 
HETATM   13  C   UNL     1     -45.533  59.631 -55.946  1.00  0.00     0.021 C 
HETATM   14  C   UNL     1     -43.253  59.052 -55.111  1.00  0.00     0.146 C 
HETATM   15  O   UNL     1     -42.520  56.625 -56.170  1.00  0.00    -0.267 OA
HETATM   16  H   UNL     1     -44.526  60.397 -51.713  1.00  0.00     0.169 HD
ENDROOT
BRANCH   1  17
HETATM   17  C   UNL     1     -42.202  55.566 -54.121  1.00  0.00     0.075 C 
HETATM   18  C   UNL     1     -41.141  54.666 -54.227  1.00  0.00     0.050 C 
HETATM   19  C   UNL     1     -39.927  54.778 -55.081  1.00  0.00     0.071 C 
HETATM   20  N   UNL     1     -41.394  53.639 -53.321  1.00  0.00    -0.238 N 
HETATM   21  N   UNL     1     -42.479  53.929 -52.554  1.00  0.00    -0.179 NA
HETATM   22  C   UNL     1     -43.004  55.020 -53.102  1.00  0.00     0.158 C 
BRANCH  20  23
HETATM   23  C   UNL     1     -40.721  52.401 -53.104  1.00  0.00     0.061 A 
HETATM   24  C   UNL     1     -40.641  51.482 -54.159  1.00  0.00     0.051 A 
HETATM   25  C   UNL     1     -39.987  50.281 -53.944  1.00  0.00     0.118 A 
HETATM   26  N   UNL     1     -39.402  49.947 -52.777  1.00  0.00    -0.273 NA
HETATM   27  C   UNL     1     -39.462  50.859 -51.785  1.00  0.00     0.118 A 
HETATM   28  C   UNL     1     -40.100  52.085 -51.896  1.00  0.00     0.051 A 
ENDBRANCH  20  23
ENDBRANCH   1  17
TORSDOF 2
ENDMDL
MODEL 5
REMARK VINA RESULT:      -7.7      3.423      5.178
REMARK  2 active torsions:
REMARK  status: ('A' for Active; 'I' for Inactive)
REMARK    1  A    between atoms: N_3  and  C_4 
REMARK    2  A    between atoms: C_12  and  C_13 
REMARK       I    between atoms: C_13  and  N_14 
ROOT
HETATM    1  C   UNL     1     -44.171  57.371 -55.008  1.00  0.00     0.262 C 
HETATM    2  N   UNL     1     -44.336  57.975 -56.269  1.00  0.00    -0.311 N 
HETATM    3  C   UNL     1     -43.656  57.626 -57.466  1.00  0.00     0.064 A 
HETATM    4  C   UNL     1     -43.259  58.579 -58.427  1.00  0.00     0.061 A 
HETATM    5  C   UNL     1     -42.594  58.131 -59.585  1.00  0.00     0.032 A 
HETATM    6  C   UNL     1     -42.346  56.778 -59.813  1.00  0.00     0.002 A 
HETATM    7  C   UNL     1     -42.768  55.839 -58.885  1.00  0.00     0.002 A 
HETATM    8  C   UNL     1     -43.423  56.259 -57.728  1.00  0.00     0.032 A 
HETATM    9  N   UNL     1     -43.417  59.979 -58.362  1.00  0.00    -0.325 N 
HETATM   10  C   UNL     1     -44.011  60.838 -57.492  1.00  0.00     0.227 C 
HETATM   11  O   UNL     1     -43.963  62.037 -57.787  1.00  0.00    -0.273 OA
HETATM   12  C   UNL     1     -44.633  60.378 -56.194  1.00  0.00     0.092 C 
HETATM   13  C   UNL     1     -45.633  61.422 -55.686  1.00  0.00     0.021 C 
HETATM   14  C   UNL     1     -45.322  59.044 -56.380  1.00  0.00     0.146 C 
HETATM   15  O   UNL     1     -45.019  57.504 -54.125  1.00  0.00    -0.267 OA
HETATM   16  H   UNL     1     -43.044  60.505 -59.146  1.00  0.00     0.169 HD
ENDROOT
BRANCH   1  17
HETATM   17  C   UNL     1     -42.925  56.663 -54.700  1.00  0.00     0.075 C 
HETATM   18  C   UNL     1     -42.802  55.303 -54.416  1.00  0.00     0.050 C 
HETATM   19  C   UNL     1     -43.852  54.251 -54.503  1.00  0.00     0.071 C 
HETATM   20  N   UNL     1     -41.468  55.081 -54.084  1.00  0.00    -0.238 N 
HETATM   21  N   UNL     1     -40.727  56.203 -54.290  1.00  0.00    -0.179 NA
HETATM   22  C   UNL     1     -41.615  57.155 -54.558  1.00  0.00     0.158 C 
BRANCH  20  23
HETATM   23  C   UNL     1     -40.813  53.918 -53.582  1.00  0.00     0.061 A 
HETATM   24  C   UNL     1     -40.625  53.793 -52.199  1.00  0.00     0.051 A 
HETATM   25  C   UNL     1     -39.989  52.663 -51.716  1.00  0.00     0.118 A 
HETATM   26  N   UNL     1     -39.551  51.658 -52.502  1.00  0.00    -0.273 NA
HETATM   27  C   UNL     1     -39.771  51.784 -53.826  1.00  0.00     0.118 A 
HETATM   28  C   UNL     1     -40.390  52.879 -54.410  1.00  0.00     0.051 A 
ENDBRANCH  20  23
ENDBRANCH   1  17
TORSDOF 2
ENDMDL
MODEL 6
REMARK VINA RESULT:      -7.6      2.873      7.210
REMARK  2 active torsions:
REMARK  status: ('A' for Active; 'I' for Inactive)
REMARK    1  A    between atoms: N_3  and  C_4 
REMARK    2  A    between atoms: C_12  and  C_13 
REMARK       I    between atoms: C_13  and  N_14 
ROOT
HETATM    1  C   UNL     1     -41.389  56.806 -51.085  1.00  0.00     0.262 C 
HETATM    2  N   UNL     1     -40.680  55.617 -51.345  1.00  0.00    -0.311 N 
HETATM    3  C   UNL     1     -40.653  54.905 -52.574  1.00  0.00     0.064 A 
HETATM    4  C   UNL     1     -40.611  53.497 -52.642  1.00  0.00     0.061 A 
HETATM    5  C   UNL     1     -40.580  52.883 -53.910  1.00  0.00     0.032 A 
HETATM    6  C   UNL     1     -40.565  53.631 -55.086  1.00  0.00     0.002 A 
HETATM    7  C   UNL     1     -40.570  55.016 -55.018  1.00  0.00     0.002 A 
HETATM    8  C   UNL     1     -40.607  55.645 -53.774  1.00  0.00     0.032 A 
HETATM    9  N   UNL     1     -40.628  52.585 -51.564  1.00  0.00    -0.325 N 
HETATM   10  C   UNL     1     -40.615  52.700 -50.210  1.00  0.00     0.227 C 
HETATM   11  O   UNL     1     -40.618  51.643 -49.570  1.00  0.00    -0.273 OA
HETATM   12  C   UNL     1     -40.672  54.037 -49.508  1.00  0.00     0.092 C 
HETATM   13  C   UNL     1     -40.144  53.906 -48.076  1.00  0.00     0.021 C 
HETATM   14  C   UNL     1     -39.865  55.069 -50.268  1.00  0.00     0.146 C 
HETATM   15  O   UNL     1     -41.098  57.521 -50.124  1.00  0.00    -0.267 OA
HETATM   16  H   UNL     1     -40.614  51.602 -51.815  1.00  0.00     0.169 HD
ENDROOT
BRANCH   1  17
HETATM   17  C   UNL     1     -42.558  57.147 -51.899  1.00  0.00     0.075 C 
HETATM   18  C   UNL     1     -42.654  58.217 -52.791  1.00  0.00     0.050 C 
HETATM   19  C   UNL     1     -41.576  59.148 -53.223  1.00  0.00     0.071 C 
HETATM   20  N   UNL     1     -43.963  58.227 -53.266  1.00  0.00    -0.238 N 
HETATM   21  N   UNL     1     -44.642  57.132 -52.830  1.00  0.00    -0.179 NA
HETATM   22  C   UNL     1     -43.834  56.557 -51.946  1.00  0.00     0.158 C 
BRANCH  20  23
HETATM   23  C   UNL     1     -44.649  59.169 -54.087  1.00  0.00     0.061 A 
HETATM   24  C   UNL     1     -44.816  58.883 -55.449  1.00  0.00     0.051 A 
HETATM   25  C   UNL     1     -45.482  59.800 -56.242  1.00  0.00     0.118 A 
HETATM   26  N   UNL     1     -46.001  60.954 -55.777  1.00  0.00    -0.273 NA
HETATM   27  C   UNL     1     -45.859  61.194 -54.457  1.00  0.00     0.118 A 
HETATM   28  C   UNL     1     -45.200  60.345 -53.580  1.00  0.00     0.051 A 
ENDBRANCH  20  23
ENDBRANCH   1  17
TORSDOF 2
ENDMDL
MODEL 7
REMARK VINA RESULT:      -7.6      4.008      6.705
REMARK  2 active torsions:
REMARK  status: ('A' for Active; 'I' for Inactive)
REMARK    1  A    between atoms: N_3  and  C_4 
REMARK    2  A    between atoms: C_12  and  C_13 
REMARK       I    between atoms: C_13  and  N_14 
ROOT
HETATM    1  C   UNL     1     -41.875  58.666 -54.610  1.00  0.00     0.262 C 
HETATM    2  N   UNL     1     -41.232  57.698 -53.815  1.00  0.00    -0.311 N 
HETATM    3  C   UNL     1     -41.371  56.289 -53.928  1.00  0.00     0.064 A 
HETATM    4  C   UNL     1     -41.371  55.427 -52.811  1.00  0.00     0.061 A 
HETATM    5  C   UNL     1     -41.509  54.042 -53.028  1.00  0.00     0.032 A 
HETATM    6  C   UNL     1     -41.619  53.508 -54.311  1.00  0.00     0.002 A 
HETATM    7  C   UNL     1     -41.583  54.351 -55.410  1.00  0.00     0.002 A 
HETATM    8  C   UNL     1     -41.453  55.727 -55.220  1.00  0.00     0.032 A 
HETATM    9  N   UNL     1     -41.280  55.789 -51.450  1.00  0.00    -0.325 N 
HETATM   10  C   UNL     1     -41.100  56.955 -50.777  1.00  0.00     0.227 C 
HETATM   11  O   UNL     1     -41.050  56.875 -49.545  1.00  0.00    -0.273 OA
HETATM   12  C   UNL     1     -41.038  58.294 -51.475  1.00  0.00     0.092 C 
HETATM   13  C   UNL     1     -40.345  59.327 -50.581  1.00  0.00     0.021 C 
HETATM   14  C   UNL     1     -40.305  58.171 -52.794  1.00  0.00     0.146 C 
HETATM   15  O   UNL     1     -41.452  59.823 -54.667  1.00  0.00    -0.267 OA
HETATM   16  H   UNL     1     -41.319  55.023 -50.785  1.00  0.00     0.169 HD
ENDROOT
BRANCH   1  17
HETATM   17  C   UNL     1     -43.126  58.330 -55.295  1.00  0.00     0.075 C 
HETATM   18  C   UNL     1     -43.316  58.273 -56.676  1.00  0.00     0.050 C 
HETATM   19  C   UNL     1     -42.289  58.392 -57.748  1.00  0.00     0.071 C 
HETATM   20  N   UNL     1     -44.669  58.020 -56.884  1.00  0.00    -0.238 N 
HETATM   21  N   UNL     1     -45.299  57.769 -55.706  1.00  0.00    -0.179 NA
HETATM   22  C   UNL     1     -44.400  58.052 -54.770  1.00  0.00     0.158 C 
BRANCH  20  23
HETATM   23  C   UNL     1     -45.439  57.995 -58.085  1.00  0.00     0.061 A 
HETATM   24  C   UNL     1     -46.440  58.959 -58.265  1.00  0.00     0.051 A 
HETATM   25  C   UNL     1     -47.185  58.932 -59.431  1.00  0.00     0.118 A 
HETATM   26  N   UNL     1     -46.992  58.036 -60.420  1.00  0.00    -0.273 NA
HETATM   27  C   UNL     1     -46.001  57.138 -60.241  1.00  0.00     0.118 A 
HETATM   28  C   UNL     1     -45.206  57.075 -59.107  1.00  0.00     0.051 A 
ENDBRANCH  20  23
ENDBRANCH   1  17
TORSDOF 2
ENDMDL
MODEL 8
REMARK VINA RESULT:      -7.6      2.954      3.945
REMARK  2 active torsions:
REMARK  status: ('A' for Active; 'I' for Inactive)
REMARK    1  A    between atoms: N_3  and  C_4 
REMARK    2  A    between atoms: C_12  and  C_13 
REMARK       I    between atoms: C_13  and  N_14 
ROOT
HETATM    1  C   UNL     1     -42.750  56.034 -56.275  1.00  0.00     0.262 C 
HETATM    2  N   UNL     1     -42.986  57.423 -56.277  1.00  0.00    -0.311 N 
HETATM    3  C   UNL     1     -42.690  58.329 -55.224  1.00  0.00     0.064 A 
HETATM    4  C   UNL     1     -43.513  59.429 -54.907  1.00  0.00     0.061 A 
HETATM    5  C   UNL     1     -43.131  60.274 -53.847  1.00  0.00     0.032 A 
HETATM    6  C   UNL     1     -41.954  60.064 -53.130  1.00  0.00     0.002 A 
HETATM    7  C   UNL     1     -41.127  59.003 -53.464  1.00  0.00     0.002 A 
HETATM    8  C   UNL     1     -41.489  58.149 -54.506  1.00  0.00     0.032 A 
HETATM    9  N   UNL     1     -44.735  59.790 -55.515  1.00  0.00    -0.325 N 
HETATM   10  C   UNL     1     -45.460  59.319 -56.564  1.00  0.00     0.227 C 
HETATM   11  O   UNL     1     -46.506  59.925 -56.823  1.00  0.00    -0.273 OA
HETATM   12  C   UNL     1     -45.065  58.080 -57.333  1.00  0.00     0.092 C 
HETATM   13  C   UNL     1     -45.734  58.077 -58.712  1.00  0.00     0.021 C 
HETATM   14  C   UNL     1     -43.561  58.007 -57.484  1.00  0.00     0.146 C 
HETATM   15  O   UNL     1     -42.725  55.394 -57.327  1.00  0.00    -0.267 OA
HETATM   16  H   UNL     1     -45.196  60.608 -55.132  1.00  0.00     0.169 HD
ENDROOT
BRANCH   1  17
HETATM   17  C   UNL     1     -42.639  55.319 -55.001  1.00  0.00     0.075 C 
HETATM   18  C   UNL     1     -41.489  54.706 -54.501  1.00  0.00     0.050 C 
HETATM   19  C   UNL     1     -40.109  54.759 -55.055  1.00  0.00     0.071 C 
HETATM   20  N   UNL     1     -41.858  54.062 -53.323  1.00  0.00    -0.238 N 
HETATM   21  N   UNL     1     -43.141  54.367 -52.988  1.00  0.00    -0.179 NA
HETATM   22  C   UNL     1     -43.620  55.028 -54.037  1.00  0.00     0.158 C 
BRANCH  20  23
HETATM   23  C   UNL     1     -41.128  53.178 -52.475  1.00  0.00     0.061 A 
HETATM   24  C   UNL     1     -40.337  52.181 -53.061  1.00  0.00     0.051 A 
HETATM   25  C   UNL     1     -39.630  51.324 -52.235  1.00  0.00     0.118 A 
HETATM   26  N   UNL     1     -39.642  51.404 -50.890  1.00  0.00    -0.273 NA
HETATM   27  C   UNL     1     -40.384  52.392 -50.347  1.00  0.00     0.118 A 
HETATM   28  C   UNL     1     -41.135  53.294 -51.086  1.00  0.00     0.051 A 
ENDBRANCH  20  23
ENDBRANCH   1  17
TORSDOF 2
ENDMDL
MODEL 9
REMARK VINA RESULT:      -7.2      2.457      7.702
REMARK  2 active torsions:
REMARK  status: ('A' for Active; 'I' for Inactive)
REMARK    1  A    between atoms: N_3  and  C_4 
REMARK    2  A    between atoms: C_12  and  C_13 
REMARK       I    between atoms: C_13  and  N_14 
ROOT
HETATM    1  C   UNL     1     -41.898  57.042 -51.636  1.00  0.00     0.262 C 
HETATM    2  N   UNL     1     -41.646  56.453 -52.890  1.00  0.00    -0.311 N 
HETATM    3  C   UNL     1     -42.268  56.794 -54.121  1.00  0.00     0.064 A 
HETATM    4  C   UNL     1     -42.585  55.839 -55.109  1.00  0.00     0.061 A 
HETATM    5  C   UNL     1     -43.197  56.278 -56.300  1.00  0.00     0.032 A 
HETATM    6  C   UNL     1     -43.470  57.625 -56.530  1.00  0.00     0.002 A 
HETATM    7  C   UNL     1     -43.127  58.568 -55.574  1.00  0.00     0.002 A 
HETATM    8  C   UNL     1     -42.526  58.156 -54.385  1.00  0.00     0.032 A 
HETATM    9  N   UNL     1     -42.391  54.443 -55.046  1.00  0.00    -0.325 N 
HETATM   10  C   UNL     1     -41.822  53.593 -54.150  1.00  0.00     0.227 C 
HETATM   11  O   UNL     1     -41.820  52.396 -54.456  1.00  0.00    -0.273 OA
HETATM   12  C   UNL     1     -41.286  54.059 -52.816  1.00  0.00     0.092 C 
HETATM   13  C   UNL     1     -40.287  53.039 -52.262  1.00  0.00     0.021 C 
HETATM   14  C   UNL     1     -40.626  55.413 -52.954  1.00  0.00     0.146 C 
HETATM   15  O   UNL     1     -41.096  56.925 -50.708  1.00  0.00    -0.267 OA
HETATM   16  H   UNL     1     -42.705  53.914 -55.853  1.00  0.00     0.169 HD
ENDROOT
BRANCH   1  17
HETATM   17  C   UNL     1     -43.179  57.711 -51.392  1.00  0.00     0.075 C 
HETATM   18  C   UNL     1     -43.364  59.079 -51.188  1.00  0.00     0.050 C 
HETATM   19  C   UNL     1     -42.357  60.168 -51.312  1.00  0.00     0.071 C 
HETATM   20  N   UNL     1     -44.713  59.261 -50.895  1.00  0.00    -0.238 N 
HETATM   21  N   UNL     1     -45.402  58.100 -51.052  1.00  0.00    -0.179 NA
HETATM   22  C   UNL     1     -44.470  57.173 -51.249  1.00  0.00     0.158 C 
BRANCH  20  23
HETATM   23  C   UNL     1     -45.427  60.421 -50.471  1.00  0.00     0.061 A 
HETATM   24  C   UNL     1     -45.399  60.774 -49.116  1.00  0.00     0.051 A 
HETATM   25  C   UNL     1     -46.093  61.900 -48.709  1.00  0.00     0.118 A 
HETATM   26  N   UNL     1     -46.785  62.695 -49.549  1.00  0.00    -0.273 NA
HETATM   27  C   UNL     1     -46.771  62.357 -50.855  1.00  0.00     0.118 A 
HETATM   28  C   UNL     1     -46.116  61.244 -51.361  1.00  0.00     0.051 A 
ENDBRANCH  20  23
ENDBRANCH   1  17
TORSDOF 2
ENDMDL
MODEL 10
REMARK VINA RESULT:      -7.2      2.444      3.410
REMARK  2 active torsions:
REMARK  status: ('A' for Active; 'I' for Inactive)
REMARK    1  A    between atoms: N_3  and  C_4 
REMARK    2  A    between atoms: C_12  and  C_13 
REMARK       I    between atoms: C_13  and  N_14 
ROOT
HETATM    1  C   UNL     1     -43.902  57.748 -53.151  1.00  0.00     0.262 C 
HETATM    2  N   UNL     1     -43.968  58.834 -54.045  1.00  0.00    -0.311 N 
HETATM    3  C   UNL     1     -43.241  58.971 -55.258  1.00  0.00     0.064 A 
HETATM    4  C   UNL     1     -42.745  60.209 -55.717  1.00  0.00     0.061 A 
HETATM    5  C   UNL     1     -42.040  60.242 -56.936  1.00  0.00     0.032 A 
HETATM    6  C   UNL     1     -41.848  59.094 -57.704  1.00  0.00     0.002 A 
HETATM    7  C   UNL     1     -42.366  57.884 -57.270  1.00  0.00     0.002 A 
HETATM    8  C   UNL     1     -43.062  57.826 -56.062  1.00  0.00     0.032 A 
HETATM    9  N   UNL     1     -42.838  61.461 -55.074  1.00  0.00    -0.325 N 
HETATM   10  C   UNL     1     -43.435  61.917 -53.942  1.00  0.00     0.227 C 
HETATM   11  O   UNL     1     -43.312  63.123 -53.704  1.00  0.00    -0.273 OA
HETATM   12  C   UNL     1     -44.149  61.000 -52.975  1.00  0.00     0.092 C 
HETATM   13  C   UNL     1     -45.124  61.801 -52.106  1.00  0.00     0.021 C 
HETATM   14  C   UNL     1     -44.893  59.915 -53.726  1.00  0.00     0.146 C 
HETATM   15  O   UNL     1     -44.790  57.557 -52.318  1.00  0.00    -0.267 OA
HETATM   16  H   UNL     1     -42.397  62.240 -55.554  1.00  0.00     0.169 HD
ENDROOT
BRANCH   1  17
HETATM   17  C   UNL     1     -42.711  56.894 -53.132  1.00  0.00     0.075 C 
HETATM   18  C   UNL     1     -42.669  55.538 -53.456  1.00  0.00     0.050 C 
HETATM   19  C   UNL     1     -43.759  54.697 -54.022  1.00  0.00     0.071 C 
HETATM   20  N   UNL     1     -41.370  55.106 -53.203  1.00  0.00    -0.238 N 
HETATM   21  N   UNL     1     -40.567  56.155 -52.882  1.00  0.00    -0.179 NA
HETATM   22  C   UNL     1     -41.391  57.188 -52.746  1.00  0.00     0.158 C 
BRANCH  20  23
HETATM   23  C   UNL     1     -40.801  53.798 -53.226  1.00  0.00     0.061 A 
HETATM   24  C   UNL     1     -40.350  53.237 -52.025  1.00  0.00     0.051 A 
HETATM   25  C   UNL     1     -39.798  51.968 -52.052  1.00  0.00     0.118 A 
HETATM   26  N   UNL     1     -39.684  51.226 -53.171  1.00  0.00    -0.273 NA
HETATM   27  C   UNL     1     -40.155  51.772 -54.311  1.00  0.00     0.118 A 
HETATM   28  C   UNL     1     -40.715  53.038 -54.392  1.00  0.00     0.051 A 
ENDBRANCH  20  23
ENDBRANCH   1  17
TORSDOF 2
ENDMDL
