MODEL 1
REMARK VINA RESULT:      -7.8      0.000      0.000
REMARK  6 active torsions:
REMARK  status: ('A' for Active; 'I' for Inactive)
REMARK    1  A    between atoms: C_3  and  N_4 
REMARK       I    between atoms: N_4  and  C_5 
REMARK    2  A    between atoms: C_5  and  C_6 
REMARK    3  A    between atoms: C_6  and  O_7 
REMARK    4  A    between atoms: O_7  and  C_8 
REMARK    5  A    between atoms: C_10  and  N_11 
REMARK       I    between atoms: N_11  and  C_12 
REMARK    6  A    between atoms: C_12  and  C_13 
ROOT
HETATM    1  C   UNL     1     -43.040  56.794 -51.244  1.00  0.00     0.278 C 
ENDROOT
BRANCH   1   2
HETATM    2  C   UNL     1     -42.749  55.295 -51.381  1.00  0.00     0.246 C 
HETATM    3  N   UNL     1     -41.711  55.034 -52.258  1.00  0.00    -0.323 N 
HETATM    4  H   UNL     1     -41.151  55.863 -52.442  1.00  0.00     0.169 HD
HETATM    5  O   UNL     1     -43.393  54.478 -50.732  1.00  0.00    -0.271 OA
BRANCH   3   6
HETATM    6  C   UNL     1     -41.138  53.790 -52.623  1.00  0.00     0.065 A 
HETATM    7  C   UNL     1     -40.285  53.018 -51.815  1.00  0.00    -0.031 A 
HETATM    8  C   UNL     1     -39.946  53.309 -50.379  1.00  0.00     0.050 C 
HETATM    9  C   UNL     1     -39.723  51.847 -52.356  1.00  0.00     0.035 A 
HETATM   10  C   UNL     1     -40.072  51.428 -53.631  1.00  0.00     0.031 A 
HETATM   11  N   UNL     1     -40.957  52.104 -54.388  1.00  0.00    -0.256 NA
HETATM   12  C   UNL     1     -39.470  50.187 -54.214  1.00  0.00     0.070 C 
HETATM   13  C   UNL     1     -41.477  53.256 -53.887  1.00  0.00     0.058 A 
HETATM   14  C   UNL     1     -42.441  53.946 -54.815  1.00  0.00     0.073 C 
ENDBRANCH   3   6
ENDBRANCH   1   2
BRANCH   1  15
HETATM   15  O   UNL     1     -44.383  57.129 -51.592  1.00  0.00    -0.342 OA
BRANCH  15  16
HETATM   16  C   UNL     1     -44.556  57.790 -52.777  1.00  0.00     0.071 A 
HETATM   17  C   UNL     1     -44.394  57.013 -53.930  1.00  0.00     0.066 A 
HETATM   18  C   UNL     1     -44.587  57.568 -55.196  1.00  0.00     0.037 A 
HETATM   19  C   UNL     1     -44.967  58.913 -55.291  1.00  0.00     0.029 A 
HETATM   20  C   UNL     1     -45.154  59.684 -54.141  1.00  0.00     0.005 A 
HETATM   21  C   UNL     1     -44.956  59.122 -52.880  1.00  0.00     0.037 A 
BRANCH  18  22
HETATM   22  N   UNL     1     -44.427  56.858 -56.404  1.00  0.00    -0.327 N 
HETATM   23  C   UNL     1     -43.291  56.769 -57.182  1.00  0.00     0.226 C 
HETATM   24  O   UNL     1     -42.205  57.282 -56.954  1.00  0.00    -0.273 OA
HETATM   25  H   UNL     1     -45.236  56.350 -56.724  1.00  0.00     0.169 HD
BRANCH  23  26
HETATM   26  C   UNL     1     -43.414  55.948 -58.427  1.00  0.00     0.078 A 
HETATM   27  C   UNL     1     -44.013  56.567 -59.670  1.00  0.00     0.015 A 
HETATM   28  C   UNL     1     -42.590  56.092 -59.684  1.00  0.00     0.015 A 
ENDBRANCH  23  26
ENDBRANCH  18  22
ENDBRANCH  15  16
ENDBRANCH   1  15
TORSDOF 6
ENDMDL
MODEL 2
REMARK VINA RESULT:      -7.8      1.846      6.212
REMARK  6 active torsions:
REMARK  status: ('A' for Active; 'I' for Inactive)
REMARK    1  A    between atoms: C_3  and  N_4 
REMARK       I    between atoms: N_4  and  C_5 
REMARK    2  A    between atoms: C_5  and  C_6 
REMARK    3  A    between atoms: C_6  and  O_7 
REMARK    4  A    between atoms: O_7  and  C_8 
REMARK    5  A    between atoms: C_10  and  N_11 
REMARK       I    between atoms: N_11  and  C_12 
REMARK    6  A    between atoms: C_12  and  C_13 
ROOT
HETATM    1  C   UNL     1     -42.807  57.373 -51.659  1.00  0.00     0.278 C 
ENDROOT
BRANCH   1   2
HETATM    2  C   UNL     1     -43.410  57.225 -53.060  1.00  0.00     0.246 C 
HETATM    3  N   UNL     1     -42.452  56.972 -54.026  1.00  0.00    -0.323 N 
HETATM    4  H   UNL     1     -41.575  56.659 -53.619  1.00  0.00     0.169 HD
HETATM    5  O   UNL     1     -44.623  57.310 -53.224  1.00  0.00    -0.271 OA
BRANCH   3   6
HETATM    6  C   UNL     1     -42.619  56.751 -55.417  1.00  0.00     0.065 A 
HETATM    7  C   UNL     1     -42.909  55.513 -56.015  1.00  0.00    -0.031 A 
HETATM    8  C   UNL     1     -43.229  54.242 -55.277  1.00  0.00     0.050 C 
HETATM    9  C   UNL     1     -42.954  55.438 -57.419  1.00  0.00     0.035 A 
HETATM   10  C   UNL     1     -42.793  56.583 -58.186  1.00  0.00     0.031 A 
HETATM   11  N   UNL     1     -42.604  57.794 -57.630  1.00  0.00    -0.256 NA
HETATM   12  C   UNL     1     -42.831  56.506 -59.681  1.00  0.00     0.070 C 
HETATM   13  C   UNL     1     -42.524  57.870 -56.275  1.00  0.00     0.058 A 
HETATM   14  C   UNL     1     -42.293  59.263 -55.753  1.00  0.00     0.073 C 
ENDBRANCH   3   6
ENDBRANCH   1   2
BRANCH   1  15
HETATM   15  O   UNL     1     -43.052  56.237 -50.830  1.00  0.00    -0.342 OA
BRANCH  15  16
HETATM   16  C   UNL     1     -42.007  55.371 -50.663  1.00  0.00     0.071 A 
HETATM   17  C   UNL     1     -41.889  54.374 -51.638  1.00  0.00     0.066 A 
HETATM   18  C   UNL     1     -40.837  53.457 -51.597  1.00  0.00     0.037 A 
HETATM   19  C   UNL     1     -39.889  53.567 -50.571  1.00  0.00     0.029 A 
HETATM   20  C   UNL     1     -39.990  54.577 -49.611  1.00  0.00     0.005 A 
HETATM   21  C   UNL     1     -41.046  55.486 -49.659  1.00  0.00     0.037 A 
BRANCH  18  22
HETATM   22  N   UNL     1     -40.657  52.415 -52.530  1.00  0.00    -0.327 N 
HETATM   23  C   UNL     1     -40.217  52.521 -53.833  1.00  0.00     0.226 C 
HETATM   24  O   UNL     1     -39.885  53.546 -54.412  1.00  0.00    -0.273 OA
HETATM   25  H   UNL     1     -40.866  51.488 -52.196  1.00  0.00     0.169 HD
BRANCH  23  26
HETATM   26  C   UNL     1     -40.131  51.240 -54.600  1.00  0.00     0.078 A 
HETATM   27  C   UNL     1     -39.183  50.157 -54.135  1.00  0.00     0.015 A 
HETATM   28  C   UNL     1     -40.660  49.895 -54.165  1.00  0.00     0.015 A 
ENDBRANCH  23  26
ENDBRANCH  18  22
ENDBRANCH  15  16
ENDBRANCH   1  15
TORSDOF 6
ENDMDL
MODEL 3
REMARK VINA RESULT:      -7.6      1.430      2.138
REMARK  6 active torsions:
REMARK  status: ('A' for Active; 'I' for Inactive)
REMARK    1  A    between atoms: C_3  and  N_4 
REMARK       I    between atoms: N_4  and  C_5 
REMARK    2  A    between atoms: C_5  and  C_6 
REMARK    3  A    between atoms: C_6  and  O_7 
REMARK    4  A    between atoms: O_7  and  C_8 
REMARK    5  A    between atoms: C_10  and  N_11 
REMARK       I    between atoms: N_11  and  C_12 
REMARK    6  A    between atoms: C_12  and  C_13 
ROOT
HETATM    1  C   UNL     1     -42.284  56.903 -51.887  1.00  0.00     0.278 C 
ENDROOT
BRANCH   1   2
HETATM    2  C   UNL     1     -42.239  55.439 -52.341  1.00  0.00     0.246 C 
HETATM    3  N   UNL     1     -40.952  54.932 -52.365  1.00  0.00    -0.323 N 
HETATM    4  H   UNL     1     -40.305  55.506 -51.830  1.00  0.00     0.169 HD
HETATM    5  O   UNL     1     -43.275  54.843 -52.611  1.00  0.00    -0.271 OA
BRANCH   3   6
HETATM    6  C   UNL     1     -40.510  53.627 -52.701  1.00  0.00     0.065 A 
HETATM    7  C   UNL     1     -40.321  53.142 -54.006  1.00  0.00    -0.031 A 
HETATM    8  C   UNL     1     -40.420  53.962 -55.263  1.00  0.00     0.050 C 
HETATM    9  C   UNL     1     -39.966  51.791 -54.177  1.00  0.00     0.035 A 
HETATM   10  C   UNL     1     -39.731  50.984 -53.074  1.00  0.00     0.031 A 
HETATM   11  N   UNL     1     -39.818  51.453 -51.815  1.00  0.00    -0.256 NA
HETATM   12  C   UNL     1     -39.362  49.544 -53.252  1.00  0.00     0.070 C 
HETATM   13  C   UNL     1     -40.196  52.747 -51.639  1.00  0.00     0.058 A 
HETATM   14  C   UNL     1     -40.282  53.169 -50.197  1.00  0.00     0.073 C 
ENDBRANCH   3   6
ENDBRANCH   1   2
BRANCH   1  15
HETATM   15  O   UNL     1     -41.973  57.816 -52.938  1.00  0.00    -0.342 OA
BRANCH  15  16
HETATM   16  C   UNL     1     -42.971  58.067 -53.839  1.00  0.00     0.071 A 
HETATM   17  C   UNL     1     -42.756  57.573 -55.130  1.00  0.00     0.066 A 
HETATM   18  C   UNL     1     -43.723  57.731 -56.125  1.00  0.00     0.037 A 
HETATM   19  C   UNL     1     -44.923  58.376 -55.800  1.00  0.00     0.029 A 
HETATM   20  C   UNL     1     -45.151  58.848 -54.504  1.00  0.00     0.005 A 
HETATM   21  C   UNL     1     -44.178  58.688 -53.519  1.00  0.00     0.037 A 
BRANCH  18  22
HETATM   22  N   UNL     1     -43.575  57.277 -57.452  1.00  0.00    -0.327 N 
HETATM   23  C   UNL     1     -43.276  55.999 -57.874  1.00  0.00     0.226 C 
HETATM   24  O   UNL     1     -43.098  55.017 -57.167  1.00  0.00    -0.273 OA
HETATM   25  H   UNL     1     -43.717  57.970 -58.170  1.00  0.00     0.169 HD
BRANCH  23  26
HETATM   26  C   UNL     1     -43.171  55.806 -59.354  1.00  0.00     0.078 A 
HETATM   27  C   UNL     1     -44.297  55.121 -60.096  1.00  0.00     0.015 A 
HETATM   28  C   UNL     1     -43.951  56.546 -60.414  1.00  0.00     0.015 A 
ENDBRANCH  23  26
ENDBRANCH  18  22
ENDBRANCH  15  16
ENDBRANCH   1  15
TORSDOF 6
ENDMDL
MODEL 4
REMARK VINA RESULT:      -7.4      1.861      6.559
REMARK  6 active torsions:
REMARK  status: ('A' for Active; 'I' for Inactive)
REMARK    1  A    between atoms: C_3  and  N_4 
REMARK       I    between atoms: N_4  and  C_5 
REMARK    2  A    between atoms: C_5  and  C_6 
REMARK    3  A    between atoms: C_6  and  O_7 
REMARK    4  A    between atoms: O_7  and  C_8 
REMARK    5  A    between atoms: C_10  and  N_11 
REMARK       I    between atoms: N_11  and  C_12 
REMARK    6  A    between atoms: C_12  and  C_13 
ROOT
HETATM    1  C   UNL     1     -42.864  57.215 -52.209  1.00  0.00     0.278 C 
ENDROOT
BRANCH   1   2
HETATM    2  C   UNL     1     -43.469  57.202 -53.618  1.00  0.00     0.246 C 
HETATM    3  N   UNL     1     -42.507  57.096 -54.607  1.00  0.00    -0.323 N 
HETATM    4  H   UNL     1     -41.616  56.773 -54.239  1.00  0.00     0.169 HD
HETATM    5  O   UNL     1     -44.684  57.257 -53.770  1.00  0.00    -0.271 OA
BRANCH   3   6
HETATM    6  C   UNL     1     -42.672  57.026 -56.014  1.00  0.00     0.065 A 
HETATM    7  C   UNL     1     -42.592  58.115 -56.897  1.00  0.00    -0.031 A 
HETATM    8  C   UNL     1     -42.180  59.512 -56.523  1.00  0.00     0.050 C 
HETATM    9  C   UNL     1     -42.871  57.899 -58.259  1.00  0.00     0.035 A 
HETATM   10  C   UNL     1     -43.140  56.620 -58.723  1.00  0.00     0.031 A 
HETATM   11  N   UNL     1     -43.133  55.548 -57.909  1.00  0.00    -0.256 NA
HETATM   12  C   UNL     1     -43.447  56.387 -60.171  1.00  0.00     0.070 C 
HETATM   13  C   UNL     1     -42.900  55.753 -56.585  1.00  0.00     0.058 A 
HETATM   14  C   UNL     1     -42.932  54.497 -55.757  1.00  0.00     0.073 C 
ENDBRANCH   3   6
ENDBRANCH   1   2
BRANCH   1  15
HETATM   15  O   UNL     1     -43.187  56.044 -51.460  1.00  0.00    -0.342 OA
BRANCH  15  16
HETATM   16  C   UNL     1     -42.131  55.342 -50.946  1.00  0.00     0.071 A 
HETATM   17  C   UNL     1     -41.689  54.264 -51.722  1.00  0.00     0.066 A 
HETATM   18  C   UNL     1     -40.592  53.500 -51.321  1.00  0.00     0.037 A 
HETATM   19  C   UNL     1     -39.928  53.845 -50.136  1.00  0.00     0.029 A 
HETATM   20  C   UNL     1     -40.352  54.936 -49.373  1.00  0.00     0.005 A 
HETATM   21  C   UNL     1     -41.451  55.692 -49.781  1.00  0.00     0.037 A 
BRANCH  18  22
HETATM   22  N   UNL     1     -40.096  52.390 -52.036  1.00  0.00    -0.327 N 
HETATM   23  C   UNL     1     -39.902  52.287 -53.398  1.00  0.00     0.226 C 
HETATM   24  O   UNL     1     -40.113  53.153 -54.235  1.00  0.00    -0.273 OA
HETATM   25  H   UNL     1     -39.846  51.587 -51.481  1.00  0.00     0.169 HD
BRANCH  23  26
HETATM   26  C   UNL     1     -39.368  50.977 -53.885  1.00  0.00     0.078 A 
HETATM   27  C   UNL     1     -39.736  49.706 -53.152  1.00  0.00     0.015 A 
HETATM   28  C   UNL     1     -40.151  49.891 -54.582  1.00  0.00     0.015 A 
ENDBRANCH  23  26
ENDBRANCH  18  22
ENDBRANCH  15  16
ENDBRANCH   1  15
TORSDOF 6
ENDMDL
MODEL 5
REMARK VINA RESULT:      -7.3      1.938      4.661
REMARK  6 active torsions:
REMARK  status: ('A' for Active; 'I' for Inactive)
REMARK    1  A    between atoms: C_3  and  N_4 
REMARK       I    between atoms: N_4  and  C_5 
REMARK    2  A    between atoms: C_5  and  C_6 
REMARK    3  A    between atoms: C_6  and  O_7 
REMARK    4  A    between atoms: O_7  and  C_8 
REMARK    5  A    between atoms: C_10  and  N_11 
REMARK       I    between atoms: N_11  and  C_12 
REMARK    6  A    between atoms: C_12  and  C_13 
ROOT
HETATM    1  C   UNL     1     -44.222  58.756 -53.652  1.00  0.00     0.278 C 
ENDROOT
BRANCH   1   2
HETATM    2  C   UNL     1     -44.066  57.825 -52.443  1.00  0.00     0.246 C 
HETATM    3  N   UNL     1     -42.804  57.264 -52.365  1.00  0.00    -0.323 N 
HETATM    4  H   UNL     1     -42.130  57.761 -52.941  1.00  0.00     0.169 HD
HETATM    5  O   UNL     1     -44.997  57.667 -51.661  1.00  0.00    -0.271 OA
BRANCH   3   6
HETATM    6  C   UNL     1     -42.274  56.383 -51.388  1.00  0.00     0.065 A 
HETATM    7  C   UNL     1     -42.551  55.009 -51.296  1.00  0.00    -0.031 A 
HETATM    8  C   UNL     1     -43.342  54.210 -52.294  1.00  0.00     0.050 C 
HETATM    9  C   UNL     1     -42.019  54.287 -50.211  1.00  0.00     0.035 A 
HETATM   10  C   UNL     1     -41.175  54.909 -49.304  1.00  0.00     0.031 A 
HETATM   11  N   UNL     1     -40.824  56.203 -49.425  1.00  0.00    -0.256 NA
HETATM   12  C   UNL     1     -40.614  54.146 -48.143  1.00  0.00     0.070 C 
HETATM   13  C   UNL     1     -41.362  56.918 -50.449  1.00  0.00     0.058 A 
HETATM   14  C   UNL     1     -40.924  58.357 -50.487  1.00  0.00     0.073 C 
ENDBRANCH   3   6
ENDBRANCH   1   2
BRANCH   1  15
HETATM   15  O   UNL     1     -45.006  58.178 -54.695  1.00  0.00    -0.342 OA
BRANCH  15  16
HETATM   16  C   UNL     1     -44.322  57.492 -55.660  1.00  0.00     0.071 A 
HETATM   17  C   UNL     1     -43.546  56.421 -55.203  1.00  0.00     0.066 A 
HETATM   18  C   UNL     1     -42.836  55.621 -56.100  1.00  0.00     0.037 A 
HETATM   19  C   UNL     1     -42.932  55.899 -57.470  1.00  0.00     0.029 A 
HETATM   20  C   UNL     1     -43.725  56.952 -57.931  1.00  0.00     0.005 A 
HETATM   21  C   UNL     1     -44.428  57.748 -57.027  1.00  0.00     0.037 A 
BRANCH  18  22
HETATM   22  N   UNL     1     -42.021  54.535 -55.719  1.00  0.00    -0.327 N 
HETATM   23  C   UNL     1     -40.869  54.576 -54.961  1.00  0.00     0.226 C 
HETATM   24  O   UNL     1     -40.352  55.567 -54.467  1.00  0.00    -0.273 OA
HETATM   25  H   UNL     1     -42.327  53.627 -56.030  1.00  0.00     0.169 HD
BRANCH  23  26
HETATM   26  C   UNL     1     -40.199  53.260 -54.719  1.00  0.00     0.078 A 
HETATM   27  C   UNL     1     -40.131  52.709 -53.312  1.00  0.00     0.015 A 
HETATM   28  C   UNL     1     -40.877  51.956 -54.374  1.00  0.00     0.015 A 
ENDBRANCH  23  26
ENDBRANCH  18  22
ENDBRANCH  15  16
ENDBRANCH   1  15
TORSDOF 6
ENDMDL
MODEL 6
REMARK VINA RESULT:      -7.1      1.911      2.728
REMARK  6 active torsions:
REMARK  status: ('A' for Active; 'I' for Inactive)
REMARK    1  A    between atoms: C_3  and  N_4 
REMARK       I    between atoms: N_4  and  C_5 
REMARK    2  A    between atoms: C_5  and  C_6 
REMARK    3  A    between atoms: C_6  and  O_7 
REMARK    4  A    between atoms: O_7  and  C_8 
REMARK    5  A    between atoms: C_10  and  N_11 
REMARK       I    between atoms: N_11  and  C_12 
REMARK    6  A    between atoms: C_12  and  C_13 
ROOT
HETATM    1  C   UNL     1     -42.699  56.408 -51.056  1.00  0.00     0.278 C 
ENDROOT
BRANCH   1   2
HETATM    2  C   UNL     1     -42.550  55.024 -51.700  1.00  0.00     0.246 C 
HETATM    3  N   UNL     1     -41.257  54.773 -52.122  1.00  0.00    -0.323 N 
HETATM    4  H   UNL     1     -40.587  55.409 -51.698  1.00  0.00     0.169 HD
HETATM    5  O   UNL     1     -43.513  54.269 -51.773  1.00  0.00    -0.271 OA
BRANCH   3   6
HETATM    6  C   UNL     1     -40.724  53.609 -52.733  1.00  0.00     0.065 A 
HETATM    7  C   UNL     1     -40.629  53.387 -54.117  1.00  0.00    -0.031 A 
HETATM    8  C   UNL     1     -40.945  54.398 -55.184  1.00  0.00     0.050 C 
HETATM    9  C   UNL     1     -40.160  52.140 -54.568  1.00  0.00     0.035 A 
HETATM   10  C   UNL     1     -39.728  51.185 -53.660  1.00  0.00     0.031 A 
HETATM   11  N   UNL     1     -39.726  51.411 -52.332  1.00  0.00    -0.256 NA
HETATM   12  C   UNL     1     -39.237  49.852 -54.136  1.00  0.00     0.070 C 
HETATM   13  C   UNL     1     -40.211  52.599 -51.886  1.00  0.00     0.058 A 
HETATM   14  C   UNL     1     -40.184  52.748 -50.388  1.00  0.00     0.073 C 
ENDBRANCH   3   6
ENDBRANCH   1   2
BRANCH   1  15
HETATM   15  O   UNL     1     -44.062  56.796 -50.892  1.00  0.00    -0.342 OA
BRANCH  15  16
HETATM   16  C   UNL     1     -44.443  57.953 -51.514  1.00  0.00     0.071 A 
HETATM   17  C   UNL     1     -43.916  58.150 -52.796  1.00  0.00     0.066 A 
HETATM   18  C   UNL     1     -44.266  59.274 -53.546  1.00  0.00     0.037 A 
HETATM   19  C   UNL     1     -45.172  60.192 -52.999  1.00  0.00     0.029 A 
HETATM   20  C   UNL     1     -45.719  59.985 -51.730  1.00  0.00     0.005 A 
HETATM   21  C   UNL     1     -45.360  58.861 -50.987  1.00  0.00     0.037 A 
BRANCH  18  22
HETATM   22  N   UNL     1     -43.767  59.552 -54.835  1.00  0.00    -0.327 N 
HETATM   23  C   UNL     1     -42.451  59.737 -55.204  1.00  0.00     0.226 C 
HETATM   24  O   UNL     1     -41.470  59.677 -54.476  1.00  0.00    -0.273 OA
HETATM   25  H   UNL     1     -44.455  59.610 -55.568  1.00  0.00     0.169 HD
BRANCH  23  26
HETATM   26  C   UNL     1     -42.213  60.031 -56.652  1.00  0.00     0.078 A 
HETATM   27  C   UNL     1     -42.057  58.885 -57.627  1.00  0.00     0.015 A 
HETATM   28  C   UNL     1     -43.199  59.846 -57.780  1.00  0.00     0.015 A 
ENDBRANCH  23  26
ENDBRANCH  18  22
ENDBRANCH  15  16
ENDBRANCH   1  15
TORSDOF 6
ENDMDL
MODEL 7
REMARK VINA RESULT:      -7.0      2.102      2.975
REMARK  6 active torsions:
REMARK  status: ('A' for Active; 'I' for Inactive)
REMARK    1  A    between atoms: C_3  and  N_4 
REMARK       I    between atoms: N_4  and  C_5 
REMARK    2  A    between atoms: C_5  and  C_6 
REMARK    3  A    between atoms: C_6  and  O_7 
REMARK    4  A    between atoms: O_7  and  C_8 
REMARK    5  A    between atoms: C_10  and  N_11 
REMARK       I    between atoms: N_11  and  C_12 
REMARK    6  A    between atoms: C_12  and  C_13 
ROOT
HETATM    1  C   UNL     1     -42.702  58.289 -52.465  1.00  0.00     0.278 C 
ENDROOT
BRANCH   1   2
HETATM    2  C   UNL     1     -41.596  57.230 -52.553  1.00  0.00     0.246 C 
HETATM    3  N   UNL     1     -42.040  55.969 -52.198  1.00  0.00    -0.323 N 
HETATM    4  H   UNL     1     -43.055  55.905 -52.209  1.00  0.00     0.169 HD
HETATM    5  O   UNL     1     -40.471  57.541 -52.930  1.00  0.00    -0.271 OA
BRANCH   3   6
HETATM    6  C   UNL     1     -41.330  54.742 -52.179  1.00  0.00     0.065 A 
HETATM    7  C   UNL     1     -41.035  53.954 -53.304  1.00  0.00    -0.031 A 
HETATM    8  C   UNL     1     -41.298  54.343 -54.732  1.00  0.00     0.050 C 
HETATM    9  C   UNL     1     -40.400  52.714 -53.109  1.00  0.00     0.035 A 
HETATM   10  C   UNL     1     -40.005  52.322 -51.839  1.00  0.00     0.031 A 
HETATM   11  N   UNL     1     -40.197  53.102 -50.759  1.00  0.00    -0.256 NA
HETATM   12  C   UNL     1     -39.338  50.998 -51.626  1.00  0.00     0.070 C 
HETATM   13  C   UNL     1     -40.842  54.286 -50.932  1.00  0.00     0.058 A 
HETATM   14  C   UNL     1     -41.024  55.075 -49.663  1.00  0.00     0.073 C 
ENDBRANCH   3   6
ENDBRANCH   1   2
BRANCH   1  15
HETATM   15  O   UNL     1     -43.610  58.230 -53.564  1.00  0.00    -0.342 OA
BRANCH  15  16
HETATM   16  C   UNL     1     -43.090  58.512 -54.797  1.00  0.00     0.071 A 
HETATM   17  C   UNL     1     -43.295  57.533 -55.776  1.00  0.00     0.066 A 
HETATM   18  C   UNL     1     -42.847  57.727 -57.084  1.00  0.00     0.037 A 
HETATM   19  C   UNL     1     -42.206  58.931 -57.403  1.00  0.00     0.029 A 
HETATM   20  C   UNL     1     -42.022  59.921 -56.434  1.00  0.00     0.005 A 
HETATM   21  C   UNL     1     -42.471  59.716 -55.130  1.00  0.00     0.037 A 
BRANCH  18  22
HETATM   22  N   UNL     1     -43.000  56.785 -58.122  1.00  0.00    -0.327 N 
HETATM   23  C   UNL     1     -44.032  56.699 -59.033  1.00  0.00     0.226 C 
HETATM   24  O   UNL     1     -45.000  57.441 -59.115  1.00  0.00    -0.273 OA
HETATM   25  H   UNL     1     -42.260  56.106 -58.209  1.00  0.00     0.169 HD
BRANCH  23  26
HETATM   26  C   UNL     1     -43.937  55.582 -60.025  1.00  0.00     0.078 A 
HETATM   27  C   UNL     1     -44.564  54.245 -59.700  1.00  0.00     0.015 A 
HETATM   28  C   UNL     1     -45.059  55.037 -60.874  1.00  0.00     0.015 A 
ENDBRANCH  23  26
ENDBRANCH  18  22
ENDBRANCH  15  16
ENDBRANCH   1  15
TORSDOF 6
ENDMDL
MODEL 8
REMARK VINA RESULT:      -6.9      3.603      6.470
REMARK  6 active torsions:
REMARK  status: ('A' for Active; 'I' for Inactive)
REMARK    1  A    between atoms: C_3  and  N_4 
REMARK       I    between atoms: N_4  and  C_5 
REMARK    2  A    between atoms: C_5  and  C_6 
REMARK    3  A    between atoms: C_6  and  O_7 
REMARK    4  A    between atoms: O_7  and  C_8 
REMARK    5  A    between atoms: C_10  and  N_11 
REMARK       I    between atoms: N_11  and  C_12 
REMARK    6  A    between atoms: C_12  and  C_13 
ROOT
HETATM    1  C   UNL     1     -42.193  57.417 -51.973  1.00  0.00     0.278 C 
ENDROOT
BRANCH   1   2
HETATM    2  C   UNL     1     -41.379  56.372 -52.745  1.00  0.00     0.246 C 
HETATM    3  N   UNL     1     -41.652  55.079 -52.334  1.00  0.00    -0.323 N 
HETATM    4  H   UNL     1     -42.518  55.022 -51.805  1.00  0.00     0.169 HD
HETATM    5  O   UNL     1     -40.609  56.720 -53.633  1.00  0.00    -0.271 OA
BRANCH   3   6
HETATM    6  C   UNL     1     -41.127  53.855 -52.821  1.00  0.00     0.065 A 
HETATM    7  C   UNL     1     -41.387  53.303 -54.087  1.00  0.00    -0.031 A 
HETATM    8  C   UNL     1     -42.152  53.979 -55.191  1.00  0.00     0.050 C 
HETATM    9  C   UNL     1     -40.863  52.033 -54.388  1.00  0.00     0.035 A 
HETATM   10  C   UNL     1     -40.042  51.382 -53.480  1.00  0.00     0.031 A 
HETATM   11  N   UNL     1     -39.706  51.933 -52.298  1.00  0.00    -0.256 NA
HETATM   12  C   UNL     1     -39.489  50.025 -53.793  1.00  0.00     0.070 C 
HETATM   13  C   UNL     1     -40.237  53.144 -51.983  1.00  0.00     0.058 A 
HETATM   14  C   UNL     1     -39.816  53.665 -50.635  1.00  0.00     0.073 C 
ENDBRANCH   3   6
ENDBRANCH   1   2
BRANCH   1  15
HETATM   15  O   UNL     1     -42.868  58.335 -52.832  1.00  0.00    -0.342 OA
BRANCH  15  16
HETATM   16  C   UNL     1     -43.076  59.592 -52.334  1.00  0.00     0.071 A 
HETATM   17  C   UNL     1     -43.393  59.656 -50.973  1.00  0.00     0.066 A 
HETATM   18  C   UNL     1     -43.587  60.886 -50.343  1.00  0.00     0.037 A 
HETATM   19  C   UNL     1     -43.436  62.058 -51.096  1.00  0.00     0.029 A 
HETATM   20  C   UNL     1     -43.095  61.998 -52.449  1.00  0.00     0.005 A 
HETATM   21  C   UNL     1     -42.907  60.764 -53.070  1.00  0.00     0.037 A 
BRANCH  18  22
HETATM   22  N   UNL     1     -43.924  61.035 -48.982  1.00  0.00    -0.327 N 
HETATM   23  C   UNL     1     -45.187  61.053 -48.427  1.00  0.00     0.226 C 
HETATM   24  O   UNL     1     -46.249  60.927 -49.019  1.00  0.00    -0.273 OA
HETATM   25  H   UNL     1     -43.148  61.126 -48.346  1.00  0.00     0.169 HD
BRANCH  23  26
HETATM   26  C   UNL     1     -45.246  61.236 -46.943  1.00  0.00     0.078 A 
HETATM   27  C   UNL     1     -45.307  62.635 -46.370  1.00  0.00     0.015 A 
HETATM   28  C   UNL     1     -46.444  61.682 -46.140  1.00  0.00     0.015 A 
ENDBRANCH  23  26
ENDBRANCH  18  22
ENDBRANCH  15  16
ENDBRANCH   1  15
TORSDOF 6
ENDMDL
MODEL 9
REMARK VINA RESULT:      -6.9      2.735      8.470
REMARK  6 active torsions:
REMARK  status: ('A' for Active; 'I' for Inactive)
REMARK    1  A    between atoms: C_3  and  N_4 
REMARK       I    between atoms: N_4  and  C_5 
REMARK    2  A    between atoms: C_5  and  C_6 
REMARK    3  A    between atoms: C_6  and  O_7 
REMARK    4  A    between atoms: O_7  and  C_8 
REMARK    5  A    between atoms: C_10  and  N_11 
REMARK       I    between atoms: N_11  and  C_12 
REMARK    6  A    between atoms: C_12  and  C_13 
ROOT
HETATM    1  C   UNL     1     -42.856  56.948 -56.958  1.00  0.00     0.278 C 
ENDROOT
BRANCH   1   2
HETATM    2  C   UNL     1     -43.545  57.313 -58.279  1.00  0.00     0.246 C 
HETATM    3  N   UNL     1     -44.818  56.781 -58.377  1.00  0.00    -0.323 N 
HETATM    4  H   UNL     1     -45.177  56.482 -57.474  1.00  0.00     0.169 HD
HETATM    5  O   UNL     1     -42.974  58.026 -59.098  1.00  0.00    -0.271 OA
BRANCH   3   6
HETATM    6  C   UNL     1     -45.767  56.916 -59.422  1.00  0.00     0.065 A 
HETATM    7  C   UNL     1     -46.594  58.033 -59.631  1.00  0.00    -0.031 A 
HETATM    8  C   UNL     1     -46.517  59.327 -58.870  1.00  0.00     0.050 C 
HETATM    9  C   UNL     1     -47.551  57.978 -60.661  1.00  0.00     0.035 A 
HETATM   10  C   UNL     1     -47.617  56.874 -61.497  1.00  0.00     0.031 A 
HETATM   11  N   UNL     1     -46.774  55.832 -61.371  1.00  0.00    -0.256 NA
HETATM   12  C   UNL     1     -48.641  56.808 -62.588  1.00  0.00     0.070 C 
HETATM   13  C   UNL     1     -45.869  55.860 -60.357  1.00  0.00     0.058 A 
HETATM   14  C   UNL     1     -44.987  54.643 -60.290  1.00  0.00     0.073 C 
ENDBRANCH   3   6
ENDBRANCH   1   2
BRANCH   1  15
HETATM   15  O   UNL     1     -42.944  55.556 -56.657  1.00  0.00    -0.342 OA
BRANCH  15  16
HETATM   16  C   UNL     1     -42.853  55.214 -55.336  1.00  0.00     0.071 A 
HETATM   17  C   UNL     1     -41.852  54.289 -55.021  1.00  0.00     0.066 A 
HETATM   18  C   UNL     1     -41.636  53.895 -53.700  1.00  0.00     0.037 A 
HETATM   19  C   UNL     1     -42.427  54.460 -52.691  1.00  0.00     0.029 A 
HETATM   20  C   UNL     1     -43.411  55.403 -53.000  1.00  0.00     0.005 A 
HETATM   21  C   UNL     1     -43.621  55.787 -54.324  1.00  0.00     0.037 A 
BRANCH  18  22
HETATM   22  N   UNL     1     -40.660  52.957 -53.302  1.00  0.00    -0.327 N 
HETATM   23  C   UNL     1     -40.519  51.656 -53.738  1.00  0.00     0.226 C 
HETATM   24  O   UNL     1     -41.212  51.082 -54.566  1.00  0.00    -0.273 OA
HETATM   25  H   UNL     1     -39.984  53.285 -52.631  1.00  0.00     0.169 HD
BRANCH  23  26
HETATM   26  C   UNL     1     -39.390  50.882 -53.133  1.00  0.00     0.078 A 
HETATM   27  C   UNL     1     -39.656  49.992 -51.939  1.00  0.00     0.015 A 
HETATM   28  C   UNL     1     -39.171  49.391 -53.226  1.00  0.00     0.015 A 
ENDBRANCH  23  26
ENDBRANCH  18  22
ENDBRANCH  15  16
ENDBRANCH   1  15
TORSDOF 6
ENDMDL
MODEL 10
REMARK VINA RESULT:      -6.8     15.997     17.961
REMARK  6 active torsions:
REMARK  status: ('A' for Active; 'I' for Inactive)
REMARK    1  A    between atoms: C_3  and  N_4 
REMARK       I    between atoms: N_4  and  C_5 
REMARK    2  A    between atoms: C_5  and  C_6 
REMARK    3  A    between atoms: C_6  and  O_7 
REMARK    4  A    between atoms: O_7  and  C_8 
REMARK    5  A    between atoms: C_10  and  N_11 
REMARK       I    between atoms: N_11  and  C_12 
REMARK    6  A    between atoms: C_12  and  C_13 
ROOT
HETATM    1  C   UNL     1     -33.903  40.875 -55.886  1.00  0.00     0.278 C 
ENDROOT
BRANCH   1   2
HETATM    2  C   UNL     1     -34.120  40.307 -54.479  1.00  0.00     0.246 C 
HETATM    3  N   UNL     1     -33.048  40.551 -53.638  1.00  0.00    -0.323 N 
HETATM    4  H   UNL     1     -32.440  41.281 -53.998  1.00  0.00     0.169 HD
HETATM    5  O   UNL     1     -35.167  39.734 -54.198  1.00  0.00    -0.271 OA
BRANCH   3   6
HETATM    6  C   UNL     1     -32.887  40.210 -52.271  1.00  0.00     0.065 A 
HETATM    7  C   UNL     1     -33.441  40.911 -51.187  1.00  0.00    -0.031 A 
HETATM    8  C   UNL     1     -34.409  42.057 -51.293  1.00  0.00     0.050 C 
HETATM    9  C   UNL     1     -33.113  40.500 -49.881  1.00  0.00     0.035 A 
HETATM   10  C   UNL     1     -32.325  39.377 -49.679  1.00  0.00     0.031 A 
HETATM   11  N   UNL     1     -31.859  38.638 -50.703  1.00  0.00    -0.256 NA
HETATM   12  C   UNL     1     -31.967  38.942 -48.291  1.00  0.00     0.070 C 
HETATM   13  C   UNL     1     -32.140  39.048 -51.968  1.00  0.00     0.058 A 
HETATM   14  C   UNL     1     -31.560  38.166 -53.040  1.00  0.00     0.073 C 
ENDBRANCH   3   6
ENDBRANCH   1   2
BRANCH   1  15
HETATM   15  O   UNL     1     -34.390  40.010 -56.911  1.00  0.00    -0.342 OA
BRANCH  15  16
HETATM   16  C   UNL     1     -35.447  40.473 -57.644  1.00  0.00     0.071 A 
HETATM   17  C   UNL     1     -36.196  39.494 -58.308  1.00  0.00     0.066 A 
HETATM   18  C   UNL     1     -37.323  39.842 -59.053  1.00  0.00     0.037 A 
HETATM   19  C   UNL     1     -37.704  41.189 -59.108  1.00  0.00     0.029 A 
HETATM   20  C   UNL     1     -36.974  42.165 -58.426  1.00  0.00     0.005 A 
HETATM   21  C   UNL     1     -35.847  41.808 -57.686  1.00  0.00     0.037 A 
BRANCH  18  22
HETATM   22  N   UNL     1     -38.119  38.919 -59.763  1.00  0.00    -0.327 N 
HETATM   23  C   UNL     1     -38.156  38.716 -61.126  1.00  0.00     0.226 C 
HETATM   24  O   UNL     1     -37.488  39.294 -61.971  1.00  0.00    -0.273 OA
HETATM   25  H   UNL     1     -38.719  38.336 -59.201  1.00  0.00     0.169 HD
BRANCH  23  26
HETATM   26  C   UNL     1     -39.110  37.668 -61.606  1.00  0.00     0.078 A 
HETATM   27  C   UNL     1     -40.598  37.934 -61.543  1.00  0.00     0.015 A 
HETATM   28  C   UNL     1     -39.934  37.713 -62.870  1.00  0.00     0.015 A 
ENDBRANCH  23  26
ENDBRANCH  18  22
ENDBRANCH  15  16
ENDBRANCH   1  15
TORSDOF 6
ENDMDL
