MODEL 1
REMARK VINA RESULT:      -8.0      0.000      0.000
REMARK  5 active torsions:
REMARK  status: ('A' for Active; 'I' for Inactive)
REMARK    1  A    between atoms: O_2  and  C_3 
REMARK    2  A    between atoms: C_7  and  C_8 
REMARK       I    between atoms: C_8  and  N_9 
REMARK    3  A    between atoms: N_9  and  C_10 
REMARK    4  A    between atoms: C_10  and  C_11 
REMARK    5  A    between atoms: C_11  and  C_12 
ROOT
HETATM    1  C   UNL     1     -42.240  54.546 -54.539  1.00  0.00     0.251 C 
HETATM    2  N   UNL     1     -42.048  55.883 -54.281  1.00  0.00    -0.356 N 
HETATM    3  O   UNL     1     -43.067  54.125 -55.342  1.00  0.00    -0.268 OA
HETATM    4  H   UNL     1     -41.452  56.193 -53.523  1.00  0.00     0.162 HD
ENDROOT
BRANCH   2   5
HETATM    5  C   UNL     1     -42.915  56.902 -54.844  1.00  0.00     0.130 C 
BRANCH   5   6
HETATM    6  C   UNL     1     -42.384  57.438 -56.173  1.00  0.00     0.098 C 
BRANCH   6   7
HETATM    7  C   UNL     1     -43.216  56.981 -57.329  1.00  0.00     0.106 A 
HETATM    8  N   UNL     1     -44.289  57.571 -57.822  1.00  0.00    -0.233 NA
HETATM    9  C   UNL     1     -44.691  56.784 -58.876  1.00  0.00     0.085 A 
HETATM   10  C   UNL     1     -43.846  55.690 -59.030  1.00  0.00     0.062 A 
HETATM   11  C   UNL     1     -45.771  56.942 -59.755  1.00  0.00     0.034 A 
HETATM   12  N   UNL     1     -42.924  55.833 -58.027  1.00  0.00    -0.343 N 
HETATM   13  C   UNL     1     -44.010  54.727 -60.027  1.00  0.00     0.032 A 
HETATM   14  H   UNL     1     -42.156  55.205 -57.840  1.00  0.00     0.167 HD
HETATM   15  C   UNL     1     -45.092  54.903 -60.897  1.00  0.00     0.002 A 
HETATM   16  C   UNL     1     -45.961  55.989 -60.766  1.00  0.00     0.002 A 
ENDBRANCH   6   7
ENDBRANCH   5   6
ENDBRANCH   2   5
BRANCH   1  17
HETATM   17  C   UNL     1     -41.368  53.583 -53.815  1.00  0.00     0.035 A 
HETATM   18  C   UNL     1     -40.907  52.398 -54.398  1.00  0.00     0.044 A 
HETATM   19  C   UNL     1     -40.099  51.531 -53.657  1.00  0.00     0.070 A 
HETATM   20  C   UNL     1     -39.724  51.848 -52.344  1.00  0.00     0.111 A 
HETATM   21 CL   UNL     1     -39.578  50.064 -54.410  1.00  0.00    -0.081 Cl
HETATM   22  C   UNL     1     -40.196  53.031 -51.763  1.00  0.00     0.070 A 
HETATM   23  C   UNL     1     -41.000  53.901 -52.500  1.00  0.00     0.044 A 
HETATM   24 CL   UNL     1     -39.831  53.450 -50.129  1.00  0.00    -0.081 Cl
BRANCH  20  25
HETATM   25  O   UNL     1     -38.977  50.959 -51.613  1.00  0.00    -0.352 OA
HETATM   26  C   UNL     1     -39.820  50.061 -50.888  1.00  0.00     0.210 C 
ENDBRANCH  20  25
ENDBRANCH   1  17
TORSDOF 5
ENDMDL
MODEL 2
REMARK VINA RESULT:      -7.9      2.431      5.429
REMARK  5 active torsions:
REMARK  status: ('A' for Active; 'I' for Inactive)
REMARK    1  A    between atoms: O_2  and  C_3 
REMARK    2  A    between atoms: C_7  and  C_8 
REMARK       I    between atoms: C_8  and  N_9 
REMARK    3  A    between atoms: N_9  and  C_10 
REMARK    4  A    between atoms: C_10  and  C_11 
REMARK    5  A    between atoms: C_11  and  C_12 
ROOT
HETATM    1  C   UNL     1     -42.259  54.237 -55.223  1.00  0.00     0.251 C 
HETATM    2  N   UNL     1     -41.720  55.386 -55.752  1.00  0.00    -0.356 N 
HETATM    3  O   UNL     1     -43.365  53.806 -55.530  1.00  0.00    -0.268 OA
HETATM    4  H   UNL     1     -40.864  55.785 -55.385  1.00  0.00     0.162 HD
ENDROOT
BRANCH   2   5
HETATM    5  C   UNL     1     -42.487  56.259 -56.622  1.00  0.00     0.130 C 
BRANCH   5   6
HETATM    6  C   UNL     1     -43.186  57.375 -55.845  1.00  0.00     0.098 C 
BRANCH   6   7
HETATM    7  C   UNL     1     -42.558  57.595 -54.505  1.00  0.00     0.106 A 
HETATM    8  N   UNL     1     -42.925  57.064 -53.355  1.00  0.00    -0.233 NA
HETATM    9  C   UNL     1     -42.042  57.556 -52.422  1.00  0.00     0.085 A 
HETATM   10  C   UNL     1     -41.116  58.406 -53.016  1.00  0.00     0.062 A 
HETATM   11  C   UNL     1     -41.965  57.318 -51.043  1.00  0.00     0.034 A 
HETATM   12  N   UNL     1     -41.472  58.423 -54.338  1.00  0.00    -0.343 N 
HETATM   13  C   UNL     1     -40.095  59.043 -52.309  1.00  0.00     0.032 A 
HETATM   14  H   UNL     1     -41.010  58.948 -55.066  1.00  0.00     0.167 HD
HETATM   15  C   UNL     1     -40.032  58.792 -50.933  1.00  0.00     0.002 A 
HETATM   16  C   UNL     1     -40.950  57.946 -50.307  1.00  0.00     0.002 A 
ENDBRANCH   6   7
ENDBRANCH   5   6
ENDBRANCH   2   5
BRANCH   1  17
HETATM   17  C   UNL     1     -41.424  53.482 -54.250  1.00  0.00     0.035 A 
HETATM   18  C   UNL     1     -41.138  53.966 -52.969  1.00  0.00     0.044 A 
HETATM   19  C   UNL     1     -40.336  53.211 -52.108  1.00  0.00     0.070 A 
HETATM   20  C   UNL     1     -39.837  51.962 -52.505  1.00  0.00     0.111 A 
HETATM   21 CL   UNL     1     -39.985  53.862 -50.545  1.00  0.00    -0.081 Cl
HETATM   22  C   UNL     1     -40.119  51.489 -53.791  1.00  0.00     0.070 A 
HETATM   23  C   UNL     1     -40.921  52.238 -54.653  1.00  0.00     0.044 A 
HETATM   24 CL   UNL     1     -39.480  49.993 -54.370  1.00  0.00    -0.081 Cl
BRANCH  20  25
HETATM   25  O   UNL     1     -39.006  51.261 -51.667  1.00  0.00    -0.352 OA
HETATM   26  C   UNL     1     -39.745  50.309 -50.898  1.00  0.00     0.210 C 
ENDBRANCH  20  25
ENDBRANCH   1  17
TORSDOF 5
ENDMDL
MODEL 3
REMARK VINA RESULT:      -7.9      0.163      1.867
REMARK  5 active torsions:
REMARK  status: ('A' for Active; 'I' for Inactive)
REMARK    1  A    between atoms: O_2  and  C_3 
REMARK    2  A    between atoms: C_7  and  C_8 
REMARK       I    between atoms: C_8  and  N_9 
REMARK    3  A    between atoms: N_9  and  C_10 
REMARK    4  A    between atoms: C_10  and  C_11 
REMARK    5  A    between atoms: C_11  and  C_12 
ROOT
HETATM    1  C   UNL     1     -42.287  54.735 -54.514  1.00  0.00     0.251 C 
HETATM    2  N   UNL     1     -42.136  56.080 -54.273  1.00  0.00    -0.356 N 
HETATM    3  O   UNL     1     -43.063  54.281 -55.348  1.00  0.00    -0.268 OA
HETATM    4  H   UNL     1     -41.585  56.417 -53.492  1.00  0.00     0.162 HD
ENDROOT
BRANCH   2   5
HETATM    5  C   UNL     1     -42.994  57.069 -54.899  1.00  0.00     0.130 C 
BRANCH   5   6
HETATM    6  C   UNL     1     -42.439  57.546 -56.241  1.00  0.00     0.098 C 
BRANCH   6   7
HETATM    7  C   UNL     1     -43.264  57.055 -57.388  1.00  0.00     0.106 A 
HETATM    8  N   UNL     1     -44.354  57.611 -57.881  1.00  0.00    -0.233 NA
HETATM    9  C   UNL     1     -44.739  56.804 -58.927  1.00  0.00     0.085 A 
HETATM   10  C   UNL     1     -43.866  55.732 -59.075  1.00  0.00     0.062 A 
HETATM   11  C   UNL     1     -45.828  56.924 -59.802  1.00  0.00     0.034 A 
HETATM   12  N   UNL     1     -42.943  55.909 -58.078  1.00  0.00    -0.343 N 
HETATM   13  C   UNL     1     -44.007  54.756 -60.062  1.00  0.00     0.032 A 
HETATM   14  H   UNL     1     -42.157  55.305 -57.889  1.00  0.00     0.167 HD
HETATM   15  C   UNL     1     -45.098  54.894 -60.928  1.00  0.00     0.002 A 
HETATM   16  C   UNL     1     -45.995  55.956 -60.803  1.00  0.00     0.002 A 
ENDBRANCH   6   7
ENDBRANCH   5   6
ENDBRANCH   2   5
BRANCH   1  17
HETATM   17  C   UNL     1     -41.433  53.805 -53.728  1.00  0.00     0.035 A 
HETATM   18  C   UNL     1     -41.014  54.088 -52.424  1.00  0.00     0.044 A 
HETATM   19  C   UNL     1     -40.201  53.175 -51.744  1.00  0.00     0.070 A 
HETATM   20  C   UNL     1     -39.822  51.968 -52.347  1.00  0.00     0.111 A 
HETATM   21 CL   UNL     1     -39.685  53.581 -50.145  1.00  0.00    -0.081 Cl
HETATM   22  C   UNL     1     -40.236  51.695 -53.656  1.00  0.00     0.070 A 
HETATM   23  C   UNL     1     -41.050  52.602 -54.336  1.00  0.00     0.044 A 
HETATM   24 CL   UNL     1     -39.749  50.261 -54.484  1.00  0.00    -0.081 Cl
BRANCH  20  25
HETATM   25  O   UNL     1     -38.978  51.110 -51.687  1.00  0.00    -0.352 OA
HETATM   26  C   UNL     1     -39.719  50.138 -50.946  1.00  0.00     0.210 C 
ENDBRANCH  20  25
ENDBRANCH   1  17
TORSDOF 5
ENDMDL
MODEL 4
REMARK VINA RESULT:      -7.7      3.344      5.645
REMARK  5 active torsions:
REMARK  status: ('A' for Active; 'I' for Inactive)
REMARK    1  A    between atoms: O_2  and  C_3 
REMARK    2  A    between atoms: C_7  and  C_8 
REMARK       I    between atoms: C_8  and  N_9 
REMARK    3  A    between atoms: N_9  and  C_10 
REMARK    4  A    between atoms: C_10  and  C_11 
REMARK    5  A    between atoms: C_11  and  C_12 
ROOT
HETATM    1  C   UNL     1     -42.574  54.635 -54.517  1.00  0.00     0.251 C 
HETATM    2  N   UNL     1     -43.310  55.478 -53.717  1.00  0.00    -0.356 N 
HETATM    3  O   UNL     1     -42.649  54.627 -55.741  1.00  0.00    -0.268 OA
HETATM    4  H   UNL     1     -43.322  55.372 -52.710  1.00  0.00     0.162 HD
ENDROOT
BRANCH   2   5
HETATM    5  C   UNL     1     -44.345  56.336 -54.264  1.00  0.00     0.130 C 
BRANCH   5   6
HETATM    6  C   UNL     1     -44.483  57.641 -53.479  1.00  0.00     0.098 C 
BRANCH   6   7
HETATM    7  C   UNL     1     -43.180  58.070 -52.883  1.00  0.00     0.106 A 
HETATM    8  N   UNL     1     -42.003  58.101 -53.479  1.00  0.00    -0.233 NA
HETATM    9  C   UNL     1     -41.124  58.575 -52.534  1.00  0.00     0.085 A 
HETATM   10  C   UNL     1     -41.777  58.839 -51.335  1.00  0.00     0.062 A 
HETATM   11  C   UNL     1     -39.745  58.811 -52.626  1.00  0.00     0.034 A 
HETATM   12  N   UNL     1     -43.082  58.500 -51.581  1.00  0.00    -0.343 N 
HETATM   13  C   UNL     1     -41.133  59.339 -50.202  1.00  0.00     0.032 A 
HETATM   14  H   UNL     1     -43.841  58.563 -50.919  1.00  0.00     0.167 HD
HETATM   15  C   UNL     1     -39.757  59.570 -50.314  1.00  0.00     0.002 A 
HETATM   16  C   UNL     1     -39.071  59.311 -51.502  1.00  0.00     0.002 A 
ENDBRANCH   6   7
ENDBRANCH   5   6
ENDBRANCH   2   5
BRANCH   1  17
HETATM   17  C   UNL     1     -41.624  53.714 -53.836  1.00  0.00     0.035 A 
HETATM   18  C   UNL     1     -41.194  52.515 -54.413  1.00  0.00     0.044 A 
HETATM   19  C   UNL     1     -40.308  51.689 -53.715  1.00  0.00     0.070 A 
HETATM   20  C   UNL     1     -39.827  52.062 -52.452  1.00  0.00     0.111 A 
HETATM   21 CL   UNL     1     -39.827  50.203 -54.455  1.00  0.00    -0.081 Cl
HETATM   22  C   UNL     1     -40.269  53.258 -51.875  1.00  0.00     0.070 A 
HETATM   23  C   UNL     1     -41.150  54.087 -52.571  1.00  0.00     0.044 A 
HETATM   24 CL   UNL     1     -39.771  53.745 -50.296  1.00  0.00    -0.081 Cl
BRANCH  20  25
HETATM   25  O   UNL     1     -39.002  51.213 -51.757  1.00  0.00    -0.352 OA
HETATM   26  C   UNL     1     -39.764  50.299 -50.964  1.00  0.00     0.210 C 
ENDBRANCH  20  25
ENDBRANCH   1  17
TORSDOF 5
ENDMDL
MODEL 5
REMARK VINA RESULT:      -7.6      3.556      8.283
REMARK  5 active torsions:
REMARK  status: ('A' for Active; 'I' for Inactive)
REMARK    1  A    between atoms: O_2  and  C_3 
REMARK    2  A    between atoms: C_7  and  C_8 
REMARK       I    between atoms: C_8  and  N_9 
REMARK    3  A    between atoms: N_9  and  C_10 
REMARK    4  A    between atoms: C_10  and  C_11 
REMARK    5  A    between atoms: C_11  and  C_12 
ROOT
HETATM    1  C   UNL     1     -42.832  55.442 -55.231  1.00  0.00     0.251 C 
HETATM    2  N   UNL     1     -42.590  56.212 -54.118  1.00  0.00    -0.356 N 
HETATM    3  O   UNL     1     -43.091  54.245 -55.182  1.00  0.00    -0.268 OA
HETATM    4  H   UNL     1     -42.253  57.164 -54.198  1.00  0.00     0.162 HD
ENDROOT
BRANCH   2   5
HETATM    5  C   UNL     1     -42.486  55.627 -52.793  1.00  0.00     0.130 C 
BRANCH   5   6
HETATM    6  C   UNL     1     -41.032  55.406 -52.375  1.00  0.00     0.098 C 
BRANCH   6   7
HETATM    7  C   UNL     1     -40.633  53.969 -52.493  1.00  0.00     0.106 A 
HETATM    8  N   UNL     1     -40.249  53.166 -51.520  1.00  0.00    -0.233 NA
HETATM    9  C   UNL     1     -40.002  51.952 -52.119  1.00  0.00     0.085 A 
HETATM   10  C   UNL     1     -40.241  52.017 -53.487  1.00  0.00     0.062 A 
HETATM   11  C   UNL     1     -39.573  50.742 -51.556  1.00  0.00     0.034 A 
HETATM   12  N   UNL     1     -40.630  53.312 -53.701  1.00  0.00    -0.343 N 
HETATM   13  C   UNL     1     -40.080  50.929 -54.347  1.00  0.00     0.032 A 
HETATM   14  H   UNL     1     -40.880  53.712 -54.594  1.00  0.00     0.167 HD
HETATM   15  C   UNL     1     -39.653  49.728 -53.767  1.00  0.00     0.002 A 
HETATM   16  C   UNL     1     -39.402  49.633 -52.397  1.00  0.00     0.002 A 
ENDBRANCH   6   7
ENDBRANCH   5   6
ENDBRANCH   2   5
BRANCH   1  17
HETATM   17  C   UNL     1     -42.799  56.129 -56.550  1.00  0.00     0.035 A 
HETATM   18  C   UNL     1     -42.289  57.421 -56.713  1.00  0.00     0.044 A 
HETATM   19  C   UNL     1     -42.299  58.014 -57.979  1.00  0.00     0.070 A 
HETATM   20  C   UNL     1     -42.791  57.318 -59.092  1.00  0.00     0.111 A 
HETATM   21 CL   UNL     1     -41.685  59.624 -58.128  1.00  0.00    -0.081 Cl
HETATM   22  C   UNL     1     -43.309  56.029 -58.920  1.00  0.00     0.070 A 
HETATM   23  C   UNL     1     -43.298  55.433 -57.659  1.00  0.00     0.044 A 
HETATM   24 CL   UNL     1     -43.994  55.141 -60.233  1.00  0.00    -0.081 Cl
BRANCH  20  25
HETATM   25  O   UNL     1     -42.844  57.936 -60.317  1.00  0.00    -0.352 OA
HETATM   26  C   UNL     1     -44.074  58.648 -60.474  1.00  0.00     0.210 C 
ENDBRANCH  20  25
ENDBRANCH   1  17
TORSDOF 5
ENDMDL
MODEL 6
REMARK VINA RESULT:      -7.4      2.004      2.314
REMARK  5 active torsions:
REMARK  status: ('A' for Active; 'I' for Inactive)
REMARK    1  A    between atoms: O_2  and  C_3 
REMARK    2  A    between atoms: C_7  and  C_8 
REMARK       I    between atoms: C_8  and  N_9 
REMARK    3  A    between atoms: N_9  and  C_10 
REMARK    4  A    between atoms: C_10  and  C_11 
REMARK    5  A    between atoms: C_11  and  C_12 
ROOT
HETATM    1  C   UNL     1     -42.279  54.446 -54.584  1.00  0.00     0.251 C 
HETATM    2  N   UNL     1     -41.726  55.150 -55.628  1.00  0.00    -0.356 N 
HETATM    3  O   UNL     1     -43.456  54.543 -54.252  1.00  0.00    -0.268 OA
HETATM    4  H   UNL     1     -40.727  55.147 -55.795  1.00  0.00     0.162 HD
ENDROOT
BRANCH   2   5
HETATM    5  C   UNL     1     -42.470  56.176 -56.336  1.00  0.00     0.130 C 
BRANCH   5   6
HETATM    6  C   UNL     1     -42.941  55.698 -57.710  1.00  0.00     0.098 C 
BRANCH   6   7
HETATM    7  C   UNL     1     -43.104  56.837 -58.667  1.00  0.00     0.106 A 
HETATM    8  N   UNL     1     -44.234  57.392 -59.061  1.00  0.00    -0.233 NA
HETATM    9  C   UNL     1     -43.870  58.398 -59.925  1.00  0.00     0.085 A 
HETATM   10  C   UNL     1     -42.488  58.458 -60.063  1.00  0.00     0.062 A 
HETATM   11  C   UNL     1     -44.667  59.308 -60.633  1.00  0.00     0.034 A 
HETATM   12  N   UNL     1     -42.025  57.448 -59.261  1.00  0.00    -0.343 N 
HETATM   13  C   UNL     1     -41.835  59.389 -60.872  1.00  0.00     0.032 A 
HETATM   14  H   UNL     1     -41.055  57.202 -59.125  1.00  0.00     0.167 HD
HETATM   15  C   UNL     1     -42.647  60.292 -61.569  1.00  0.00     0.002 A 
HETATM   16  C   UNL     1     -44.039  60.255 -61.455  1.00  0.00     0.002 A 
ENDBRANCH   6   7
ENDBRANCH   5   6
ENDBRANCH   2   5
BRANCH   1  17
HETATM   17  C   UNL     1     -41.389  53.505 -53.854  1.00  0.00     0.035 A 
HETATM   18  C   UNL     1     -40.921  52.317 -54.423  1.00  0.00     0.044 A 
HETATM   19  C   UNL     1     -40.096  51.470 -53.677  1.00  0.00     0.070 A 
HETATM   20  C   UNL     1     -39.711  51.812 -52.372  1.00  0.00     0.111 A 
HETATM   21 CL   UNL     1     -39.565  49.998 -54.411  1.00  0.00    -0.081 Cl
HETATM   22  C   UNL     1     -40.192  52.998 -51.805  1.00  0.00     0.070 A 
HETATM   23  C   UNL     1     -41.013  53.847 -52.547  1.00  0.00     0.044 A 
HETATM   24 CL   UNL     1     -39.815  53.447 -50.181  1.00  0.00    -0.081 Cl
BRANCH  20  25
HETATM   25  O   UNL     1     -38.947  50.942 -51.635  1.00  0.00    -0.352 OA
HETATM   26  C   UNL     1     -39.772  50.029 -50.909  1.00  0.00     0.210 C 
ENDBRANCH  20  25
ENDBRANCH   1  17
TORSDOF 5
ENDMDL
MODEL 7
REMARK VINA RESULT:      -7.2      2.707      3.477
REMARK  5 active torsions:
REMARK  status: ('A' for Active; 'I' for Inactive)
REMARK    1  A    between atoms: O_2  and  C_3 
REMARK    2  A    between atoms: C_7  and  C_8 
REMARK       I    between atoms: C_8  and  N_9 
REMARK    3  A    between atoms: N_9  and  C_10 
REMARK    4  A    between atoms: C_10  and  C_11 
REMARK    5  A    between atoms: C_11  and  C_12 
ROOT
HETATM    1  C   UNL     1     -42.277  54.378 -55.250  1.00  0.00     0.251 C 
HETATM    2  N   UNL     1     -41.743  55.545 -55.745  1.00  0.00    -0.356 N 
HETATM    3  O   UNL     1     -43.380  53.950 -55.571  1.00  0.00    -0.268 OA
HETATM    4  H   UNL     1     -40.890  55.937 -55.366  1.00  0.00     0.162 HD
ENDROOT
BRANCH   2   5
HETATM    5  C   UNL     1     -42.515  56.439 -56.589  1.00  0.00     0.130 C 
BRANCH   5   6
HETATM    6  C   UNL     1     -42.609  57.847 -56.000  1.00  0.00     0.098 C 
BRANCH   6   7
HETATM    7  C   UNL     1     -42.234  58.893 -57.001  1.00  0.00     0.106 A 
HETATM    8  N   UNL     1     -41.669  60.061 -56.760  1.00  0.00    -0.233 NA
HETATM    9  C   UNL     1     -41.512  60.656 -57.990  1.00  0.00     0.085 A 
HETATM   10  C   UNL     1     -41.993  59.835 -59.003  1.00  0.00     0.062 A 
HETATM   11  C   UNL     1     -40.963  61.902 -58.323  1.00  0.00     0.034 A 
HETATM   12  N   UNL     1     -42.455  58.725 -58.347  1.00  0.00    -0.343 N 
HETATM   13  C   UNL     1     -41.955  60.180 -60.355  1.00  0.00     0.032 A 
HETATM   14  H   UNL     1     -42.880  57.918 -58.781  1.00  0.00     0.167 HD
HETATM   15  C   UNL     1     -41.401  61.426 -60.669  1.00  0.00     0.002 A 
HETATM   16  C   UNL     1     -40.914  62.276 -59.674  1.00  0.00     0.002 A 
ENDBRANCH   6   7
ENDBRANCH   5   6
ENDBRANCH   2   5
BRANCH   1  17
HETATM   17  C   UNL     1     -41.438  53.599 -54.300  1.00  0.00     0.035 A 
HETATM   18  C   UNL     1     -40.900  52.349 -54.621  1.00  0.00     0.044 A 
HETATM   19  C   UNL     1     -40.129  51.664 -53.677  1.00  0.00     0.070 A 
HETATM   20  C   UNL     1     -39.869  52.228 -52.420  1.00  0.00     0.111 A 
HETATM   21 CL   UNL     1     -39.509  50.109 -54.109  1.00  0.00    -0.081 Cl
HETATM   22  C   UNL     1     -40.419  53.475 -52.102  1.00  0.00     0.070 A 
HETATM   23  C   UNL     1     -41.186  54.163 -53.042  1.00  0.00     0.044 A 
HETATM   24 CL   UNL     1     -40.197  54.197 -50.549  1.00  0.00    -0.081 Cl
BRANCH  20  25
HETATM   25  O   UNL     1     -39.158  51.517 -51.486  1.00  0.00    -0.352 OA
HETATM   26  C   UNL     1     -40.020  50.660 -50.734  1.00  0.00     0.210 C 
ENDBRANCH  20  25
ENDBRANCH   1  17
TORSDOF 5
ENDMDL
MODEL 8
REMARK VINA RESULT:      -7.1      2.005      2.597
REMARK  5 active torsions:
REMARK  status: ('A' for Active; 'I' for Inactive)
REMARK    1  A    between atoms: O_2  and  C_3 
REMARK    2  A    between atoms: C_7  and  C_8 
REMARK       I    between atoms: C_8  and  N_9 
REMARK    3  A    between atoms: N_9  and  C_10 
REMARK    4  A    between atoms: C_10  and  C_11 
REMARK    5  A    between atoms: C_11  and  C_12 
ROOT
HETATM    1  C   UNL     1     -43.319  55.998 -52.281  1.00  0.00     0.251 C 
HETATM    2  N   UNL     1     -43.848  56.224 -53.530  1.00  0.00    -0.356 N 
HETATM    3  O   UNL     1     -43.700  56.580 -51.271  1.00  0.00    -0.268 OA
HETATM    4  H   UNL     1     -43.427  55.825 -54.361  1.00  0.00     0.162 HD
ENDROOT
BRANCH   2   5
HETATM    5  C   UNL     1     -44.814  57.281 -53.771  1.00  0.00     0.130 C 
BRANCH   5   6
HETATM    6  C   UNL     1     -44.222  58.423 -54.597  1.00  0.00     0.098 C 
BRANCH   6   7
HETATM    7  C   UNL     1     -43.727  57.947 -55.926  1.00  0.00     0.106 A 
HETATM    8  N   UNL     1     -43.950  56.773 -56.486  1.00  0.00    -0.233 NA
HETATM    9  C   UNL     1     -43.302  56.814 -57.698  1.00  0.00     0.085 A 
HETATM   10  C   UNL     1     -42.669  58.038 -57.882  1.00  0.00     0.062 A 
HETATM   11  C   UNL     1     -43.210  55.840 -58.703  1.00  0.00     0.034 A 
HETATM   12  N   UNL     1     -42.945  58.736 -56.737  1.00  0.00    -0.343 N 
HETATM   13  C   UNL     1     -41.940  58.363 -59.028  1.00  0.00     0.032 A 
HETATM   14  H   UNL     1     -42.634  59.674 -56.529  1.00  0.00     0.167 HD
HETATM   15  C   UNL     1     -41.862  57.379 -60.021  1.00  0.00     0.002 A 
HETATM   16  C   UNL     1     -42.484  56.138 -59.865  1.00  0.00     0.002 A 
ENDBRANCH   6   7
ENDBRANCH   5   6
ENDBRANCH   2   5
BRANCH   1  17
HETATM   17  C   UNL     1     -42.251  54.969 -52.174  1.00  0.00     0.035 A 
HETATM   18  C   UNL     1     -42.016  54.020 -53.173  1.00  0.00     0.044 A 
HETATM   19  C   UNL     1     -41.002  53.072 -53.004  1.00  0.00     0.070 A 
HETATM   20  C   UNL     1     -40.201  53.079 -51.853  1.00  0.00     0.111 A 
HETATM   21 CL   UNL     1     -40.768  51.900 -54.253  1.00  0.00    -0.081 Cl
HETATM   22  C   UNL     1     -40.447  54.026 -50.852  1.00  0.00     0.070 A 
HETATM   23  C   UNL     1     -41.456  54.976 -51.019  1.00  0.00     0.044 A 
HETATM   24 CL   UNL     1     -39.545  54.049 -49.380  1.00  0.00    -0.081 Cl
BRANCH  20  25
HETATM   25  O   UNL     1     -39.247  52.108 -51.679  1.00  0.00    -0.352 OA
HETATM   26  C   UNL     1     -39.801  50.963 -51.025  1.00  0.00     0.210 C 
ENDBRANCH  20  25
ENDBRANCH   1  17
TORSDOF 5
ENDMDL
MODEL 9
REMARK VINA RESULT:      -7.0     14.176     17.319
REMARK  5 active torsions:
REMARK  status: ('A' for Active; 'I' for Inactive)
REMARK    1  A    between atoms: O_2  and  C_3 
REMARK    2  A    between atoms: C_7  and  C_8 
REMARK       I    between atoms: C_8  and  N_9 
REMARK    3  A    between atoms: N_9  and  C_10 
REMARK    4  A    between atoms: C_10  and  C_11 
REMARK    5  A    between atoms: C_11  and  C_12 
ROOT
HETATM    1  C   UNL     1     -37.063  41.645 -55.151  1.00  0.00     0.251 C 
HETATM    2  N   UNL     1     -37.859  41.076 -54.184  1.00  0.00    -0.356 N 
HETATM    3  O   UNL     1     -36.203  42.485 -54.910  1.00  0.00    -0.268 OA
HETATM    4  H   UNL     1     -38.644  40.484 -54.428  1.00  0.00     0.162 HD
ENDROOT
BRANCH   2   5
HETATM    5  C   UNL     1     -37.834  41.536 -52.807  1.00  0.00     0.130 C 
BRANCH   5   6
HETATM    6  C   UNL     1     -37.549  40.398 -51.826  1.00  0.00     0.098 C 
BRANCH   6   7
HETATM    7  C   UNL     1     -36.089  40.276 -51.528  1.00  0.00     0.106 A 
HETATM    8  N   UNL     1     -35.083  40.616 -52.313  1.00  0.00    -0.233 NA
HETATM    9  C   UNL     1     -33.944  40.327 -51.598  1.00  0.00     0.085 A 
HETATM   10  C   UNL     1     -34.260  39.799 -50.352  1.00  0.00     0.062 A 
HETATM   11  C   UNL     1     -32.597  40.492 -51.949  1.00  0.00     0.034 A 
HETATM   12  N   UNL     1     -35.629  39.767 -50.336  1.00  0.00    -0.343 N 
HETATM   13  C   UNL     1     -33.300  39.422 -49.411  1.00  0.00     0.032 A 
HETATM   14  H   UNL     1     -36.202  39.433 -49.575  1.00  0.00     0.167 HD
HETATM   15  C   UNL     1     -31.961  39.596 -49.777  1.00  0.00     0.002 A 
HETATM   16  C   UNL     1     -31.611  40.120 -51.024  1.00  0.00     0.002 A 
ENDBRANCH   6   7
ENDBRANCH   5   6
ENDBRANCH   2   5
BRANCH   1  17
HETATM   17  C   UNL     1     -37.258  41.178 -56.549  1.00  0.00     0.035 A 
HETATM   18  C   UNL     1     -37.179  42.038 -57.648  1.00  0.00     0.044 A 
HETATM   19  C   UNL     1     -37.383  41.536 -58.937  1.00  0.00     0.070 A 
HETATM   20  C   UNL     1     -37.642  40.174 -59.142  1.00  0.00     0.111 A 
HETATM   21 CL   UNL     1     -37.304  42.643 -60.263  1.00  0.00    -0.081 Cl
HETATM   22  C   UNL     1     -37.730  39.319 -58.036  1.00  0.00     0.070 A 
HETATM   23  C   UNL     1     -37.523  39.816 -56.749  1.00  0.00     0.044 A 
HETATM   24 CL   UNL     1     -38.115  37.645 -58.209  1.00  0.00    -0.081 Cl
BRANCH  20  25
HETATM   25  O   UNL     1     -37.896  39.709 -60.408  1.00  0.00    -0.352 OA
HETATM   26  C   UNL     1     -36.703  39.205 -61.013  1.00  0.00     0.210 C 
ENDBRANCH  20  25
ENDBRANCH   1  17
TORSDOF 5
ENDMDL
MODEL 10
REMARK VINA RESULT:      -7.0      3.909      7.954
REMARK  5 active torsions:
REMARK  status: ('A' for Active; 'I' for Inactive)
REMARK    1  A    between atoms: O_2  and  C_3 
REMARK    2  A    between atoms: C_7  and  C_8 
REMARK       I    between atoms: C_8  and  N_9 
REMARK    3  A    between atoms: N_9  and  C_10 
REMARK    4  A    between atoms: C_10  and  C_11 
REMARK    5  A    between atoms: C_11  and  C_12 
ROOT
HETATM    1  C   UNL     1     -41.822  58.407 -54.349  1.00  0.00     0.251 C 
HETATM    2  N   UNL     1     -42.503  57.591 -53.477  1.00  0.00    -0.356 N 
HETATM    3  O   UNL     1     -40.946  59.190 -53.997  1.00  0.00    -0.268 OA
HETATM    4  H   UNL     1     -43.306  57.051 -53.777  1.00  0.00     0.162 HD
ENDROOT
BRANCH   2   5
HETATM    5  C   UNL     1     -42.331  57.697 -52.039  1.00  0.00     0.130 C 
BRANCH   5   6
HETATM    6  C   UNL     1     -42.733  56.411 -51.315  1.00  0.00     0.098 C 
BRANCH   6   7
HETATM    7  C   UNL     1     -42.078  55.209 -51.917  1.00  0.00     0.106 A 
HETATM    8  N   UNL     1     -42.276  54.712 -53.123  1.00  0.00    -0.233 NA
HETATM    9  C   UNL     1     -41.443  53.621 -53.215  1.00  0.00     0.085 A 
HETATM   10  C   UNL     1     -40.721  53.448 -52.039  1.00  0.00     0.062 A 
HETATM   11  C   UNL     1     -41.245  52.727 -54.276  1.00  0.00     0.034 A 
HETATM   12  N   UNL     1     -41.150  54.464 -51.227  1.00  0.00    -0.343 N 
HETATM   13  C   UNL     1     -39.792  52.423 -51.852  1.00  0.00     0.032 A 
HETATM   14  H   UNL     1     -40.833  54.638 -50.285  1.00  0.00     0.167 HD
HETATM   15  C   UNL     1     -39.606  51.542 -52.924  1.00  0.00     0.002 A 
HETATM   16  C   UNL     1     -40.319  51.687 -54.116  1.00  0.00     0.002 A 
ENDBRANCH   6   7
ENDBRANCH   5   6
ENDBRANCH   2   5
BRANCH   1  17
HETATM   17  C   UNL     1     -42.165  58.293 -55.791  1.00  0.00     0.035 A 
HETATM   18  C   UNL     1     -42.587  57.093 -56.373  1.00  0.00     0.044 A 
HETATM   19  C   UNL     1     -42.883  57.052 -57.738  1.00  0.00     0.070 A 
HETATM   20  C   UNL     1     -42.784  58.207 -58.527  1.00  0.00     0.111 A 
HETATM   21 CL   UNL     1     -43.373  55.540 -58.418  1.00  0.00    -0.081 Cl
HETATM   22  C   UNL     1     -42.351  59.402 -57.942  1.00  0.00     0.070 A 
HETATM   23  C   UNL     1     -42.058  59.448 -56.578  1.00  0.00     0.044 A 
HETATM   24 CL   UNL     1     -42.141  60.844 -58.867  1.00  0.00    -0.081 Cl
BRANCH  20  25
HETATM   25  O   UNL     1     -43.024  58.135 -59.877  1.00  0.00    -0.352 OA
HETATM   26  C   UNL     1     -44.391  58.438 -60.167  1.00  0.00     0.210 C 
ENDBRANCH  20  25
ENDBRANCH   1  17
TORSDOF 5
ENDMDL
