MODEL 1
REMARK VINA RESULT:      -8.0      0.000      0.000
REMARK  6 active torsions:
REMARK  status: ('A' for Active; 'I' for Inactive)
REMARK    1  A    between atoms: C_2  and  O_3 
REMARK    2  A    between atoms: O_3  and  C_4 
REMARK    3  A    between atoms: C_7  and  N_8 
REMARK    4  A    between atoms: C_9  and  C_11 
REMARK    5  A    between atoms: C_9  and  O_10 
REMARK       I    between atoms: C_11  and  N_12 
REMARK    6  A    between atoms: N_12  and  C_13 
ROOT
HETATM    1  N   UNL     1     -43.651  56.615 -53.214  1.00  0.00    -0.254 N 
HETATM    2  C   UNL     1     -43.369  55.836 -54.432  1.00  0.00     0.256 C 
HETATM    3  C   UNL     1     -43.632  56.566 -55.734  1.00  0.00     0.035 A 
HETATM    4  C   UNL     1     -44.289  57.788 -55.703  1.00  0.00     0.048 A 
HETATM    5  N   UNL     1     -44.651  58.326 -54.480  1.00  0.00    -0.308 N 
HETATM    6  C   UNL     1     -44.331  57.820 -53.260  1.00  0.00     0.330 C 
HETATM    7  O   UNL     1     -44.698  58.461 -52.274  1.00  0.00    -0.246 OA
HETATM    8  C   UNL     1     -43.268  56.035 -56.986  1.00  0.00     0.034 A 
HETATM    9  C   UNL     1     -43.541  56.741 -58.158  1.00  0.00     0.011 A 
HETATM   10 BR   UNL     1     -43.009  56.032 -59.827  1.00  0.00    -0.051 Br
HETATM   11  C   UNL     1     -44.202  57.965 -58.109  1.00  0.00     0.021 A 
HETATM   12  C   UNL     1     -44.585  58.487 -56.875  1.00  0.00     0.031 A 
HETATM   13  H   UNL     1     -45.135  59.215 -54.441  1.00  0.00     0.170 HD
ENDROOT
BRANCH   1  14
HETATM   14  C   UNL     1     -43.098  56.169 -51.960  1.00  0.00     0.043 A 
HETATM   15  C   UNL     1     -43.472  54.956 -51.368  1.00  0.00     0.032 A 
HETATM   16  C   UNL     1     -42.856  54.515 -50.191  1.00  0.00     0.039 A 
HETATM   17  C   UNL     1     -41.829  55.252 -49.604  1.00  0.00     0.068 A 
HETATM   18  C   UNL     1     -41.461  56.469 -50.169  1.00  0.00     0.039 A 
HETATM   19  C   UNL     1     -42.098  56.925 -51.331  1.00  0.00     0.032 A 
BRANCH  17  20
HETATM   20  O   UNL     1     -41.281  54.694 -48.484  1.00  0.00    -0.352 OA
BRANCH  20  21
HETATM   21  C   UNL     1     -40.384  53.603 -48.700  1.00  0.00     0.171 C 
HETATM   22  C   UNL     1     -39.281  54.080 -49.627  1.00  0.00     0.034 C 
ENDBRANCH  20  21
ENDBRANCH  17  20
ENDBRANCH   1  14
BRANCH   2  23
HETATM   23  C   UNL     1     -41.846  55.378 -54.419  1.00  0.00     0.279 C 
HETATM   24  N   UNL     1     -41.702  54.000 -54.296  1.00  0.00    -0.352 N 
HETATM   25  H   UNL     1     -42.558  53.453 -54.250  1.00  0.00     0.163 HD
HETATM   26  O   UNL     1     -40.898  56.156 -54.494  1.00  0.00    -0.268 OA
BRANCH  24  27
HETATM   27  C   UNL     1     -40.441  53.358 -54.137  1.00  0.00     0.084 A 
HETATM   28  C   UNL     1     -40.138  52.517 -52.926  1.00  0.00     0.027 A 
HETATM   29  C   UNL     1     -40.337  51.861 -54.259  1.00  0.00     0.027 A 
ENDBRANCH  24  27
ENDBRANCH   2  23
BRANCH   2  30
HETATM   30  O   UNL     1     -44.279  54.733 -54.437  1.00  0.00    -0.359 OA
HETATM   31  H   UNL     1     -45.049  55.085 -54.918  1.00  0.00     0.213 HD
ENDBRANCH   2  30
TORSDOF 6
ENDMDL
MODEL 2
REMARK VINA RESULT:      -7.9      2.606      6.505
REMARK  6 active torsions:
REMARK  status: ('A' for Active; 'I' for Inactive)
REMARK    1  A    between atoms: C_2  and  O_3 
REMARK    2  A    between atoms: O_3  and  C_4 
REMARK    3  A    between atoms: C_7  and  N_8 
REMARK    4  A    between atoms: C_9  and  C_11 
REMARK    5  A    between atoms: C_9  and  O_10 
REMARK       I    between atoms: C_11  and  N_12 
REMARK    6  A    between atoms: N_12  and  C_13 
ROOT
HETATM    1  N   UNL     1     -41.670  56.330 -53.481  1.00  0.00    -0.254 N 
HETATM    2  C   UNL     1     -41.196  55.247 -54.361  1.00  0.00     0.256 C 
HETATM    3  C   UNL     1     -40.768  53.982 -53.644  1.00  0.00     0.035 A 
HETATM    4  C   UNL     1     -40.655  53.994 -52.260  1.00  0.00     0.048 A 
HETATM    5  N   UNL     1     -40.975  55.150 -51.569  1.00  0.00    -0.308 N 
HETATM    6  C   UNL     1     -41.503  56.281 -52.108  1.00  0.00     0.330 C 
HETATM    7  O   UNL     1     -41.772  57.198 -51.332  1.00  0.00    -0.246 OA
HETATM    8  C   UNL     1     -40.443  52.796 -54.330  1.00  0.00     0.034 A 
HETATM    9  C   UNL     1     -40.044  51.660 -53.625  1.00  0.00     0.011 A 
HETATM   10 BR   UNL     1     -39.650  50.065 -54.561  1.00  0.00    -0.051 Br
HETATM   11  C   UNL     1     -39.935  51.690 -52.238  1.00  0.00     0.021 A 
HETATM   12  C   UNL     1     -40.235  52.866 -51.553  1.00  0.00     0.031 A 
HETATM   13  H   UNL     1     -40.893  55.176 -50.561  1.00  0.00     0.170 HD
ENDROOT
BRANCH   1  14
HETATM   14  C   UNL     1     -42.434  57.409 -54.057  1.00  0.00     0.043 A 
HETATM   15  C   UNL     1     -41.828  58.464 -54.752  1.00  0.00     0.032 A 
HETATM   16  C   UNL     1     -42.605  59.452 -55.369  1.00  0.00     0.039 A 
HETATM   17  C   UNL     1     -43.997  59.388 -55.338  1.00  0.00     0.068 A 
HETATM   18  C   UNL     1     -44.611  58.357 -54.634  1.00  0.00     0.039 A 
HETATM   19  C   UNL     1     -43.834  57.384 -53.993  1.00  0.00     0.032 A 
BRANCH  17  20
HETATM   20  O   UNL     1     -44.639  60.387 -56.013  1.00  0.00    -0.352 OA
BRANCH  20  21
HETATM   21  C   UNL     1     -44.670  60.266 -57.436  1.00  0.00     0.171 C 
HETATM   22  C   UNL     1     -46.011  59.671 -57.826  1.00  0.00     0.034 C 
ENDBRANCH  20  21
ENDBRANCH  17  20
ENDBRANCH   1  14
BRANCH   2  23
HETATM   23  C   UNL     1     -42.346  54.868 -55.391  1.00  0.00     0.279 C 
HETATM   24  N   UNL     1     -42.174  55.471 -56.633  1.00  0.00    -0.352 N 
HETATM   25  H   UNL     1     -41.348  56.052 -56.748  1.00  0.00     0.163 HD
HETATM   26  O   UNL     1     -43.295  54.135 -55.118  1.00  0.00    -0.268 OA
BRANCH  24  27
HETATM   27  C   UNL     1     -43.133  55.387 -57.681  1.00  0.00     0.084 A 
HETATM   28  C   UNL     1     -43.821  56.615 -58.213  1.00  0.00     0.027 A 
HETATM   29  C   UNL     1     -42.798  55.912 -59.052  1.00  0.00     0.027 A 
ENDBRANCH  24  27
ENDBRANCH   2  23
BRANCH   2  30
HETATM   30  O   UNL     1     -40.012  55.724 -55.004  1.00  0.00    -0.359 OA
HETATM   31  H   UNL     1     -39.300  55.402 -54.423  1.00  0.00     0.213 HD
ENDBRANCH   2  30
TORSDOF 6
ENDMDL
MODEL 3
REMARK VINA RESULT:      -7.6      2.777      5.130
REMARK  6 active torsions:
REMARK  status: ('A' for Active; 'I' for Inactive)
REMARK    1  A    between atoms: C_2  and  O_3 
REMARK    2  A    between atoms: O_3  and  C_4 
REMARK    3  A    between atoms: C_7  and  N_8 
REMARK    4  A    between atoms: C_9  and  C_11 
REMARK    5  A    between atoms: C_9  and  O_10 
REMARK       I    between atoms: C_11  and  N_12 
REMARK    6  A    between atoms: N_12  and  C_13 
ROOT
HETATM    1  N   UNL     1     -43.550  56.134 -52.629  1.00  0.00    -0.254 N 
HETATM    2  C   UNL     1     -44.135  57.160 -53.510  1.00  0.00     0.256 C 
HETATM    3  C   UNL     1     -44.789  58.324 -52.791  1.00  0.00     0.035 A 
HETATM    4  C   UNL     1     -44.972  58.251 -51.417  1.00  0.00     0.048 A 
HETATM    5  N   UNL     1     -44.518  57.136 -50.735  1.00  0.00    -0.308 N 
HETATM    6  C   UNL     1     -43.796  56.115 -51.268  1.00  0.00     0.330 C 
HETATM    7  O   UNL     1     -43.433  55.225 -50.498  1.00  0.00    -0.246 OA
HETATM    8  C   UNL     1     -45.253  59.467 -53.468  1.00  0.00     0.034 A 
HETATM    9  C   UNL     1     -45.858  60.508 -52.762  1.00  0.00     0.011 A 
HETATM   10 BR   UNL     1     -46.439  62.053 -53.683  1.00  0.00    -0.051 Br
HETATM   11  C   UNL     1     -46.035  60.419 -51.385  1.00  0.00     0.021 A 
HETATM   12  C   UNL     1     -45.597  59.281 -50.710  1.00  0.00     0.031 A 
HETATM   13  H   UNL     1     -44.650  57.066 -49.733  1.00  0.00     0.170 HD
ENDROOT
BRANCH   1  14
HETATM   14  C   UNL     1     -42.601  55.201 -53.184  1.00  0.00     0.043 A 
HETATM   15  C   UNL     1     -41.275  55.130 -52.738  1.00  0.00     0.032 A 
HETATM   16  C   UNL     1     -40.403  54.158 -53.241  1.00  0.00     0.039 A 
HETATM   17  C   UNL     1     -40.844  53.214 -54.167  1.00  0.00     0.068 A 
HETATM   18  C   UNL     1     -42.153  53.285 -54.634  1.00  0.00     0.039 A 
HETATM   19  C   UNL     1     -43.018  54.276 -54.152  1.00  0.00     0.032 A 
BRANCH  17  20
HETATM   20  O   UNL     1     -39.910  52.293 -54.548  1.00  0.00    -0.352 OA
BRANCH  20  21
HETATM   21  C   UNL     1     -39.655  51.236 -53.621  1.00  0.00     0.171 C 
HETATM   22  C   UNL     1     -39.848  49.918 -54.348  1.00  0.00     0.034 C 
ENDBRANCH  20  21
ENDBRANCH  17  20
ENDBRANCH   1  14
BRANCH   2  23
HETATM   23  C   UNL     1     -43.002  57.739 -54.463  1.00  0.00     0.279 C 
HETATM   24  N   UNL     1     -43.247  57.479 -55.807  1.00  0.00    -0.352 N 
HETATM   25  H   UNL     1     -44.105  56.981 -56.027  1.00  0.00     0.163 HD
HETATM   26  O   UNL     1     -42.008  58.339 -54.058  1.00  0.00    -0.268 OA
BRANCH  24  27
HETATM   27  C   UNL     1     -42.320  57.786 -56.844  1.00  0.00     0.084 A 
HETATM   28  C   UNL     1     -42.710  57.699 -58.294  1.00  0.00     0.027 A 
HETATM   29  C   UNL     1     -42.492  59.039 -57.660  1.00  0.00     0.027 A 
ENDBRANCH  24  27
ENDBRANCH   2  23
BRANCH   2  30
HETATM   30  O   UNL     1     -45.196  56.530 -54.231  1.00  0.00    -0.359 OA
HETATM   31  H   UNL     1     -45.869  56.376 -53.545  1.00  0.00     0.213 HD
ENDBRANCH   2  30
TORSDOF 6
ENDMDL
MODEL 4
REMARK VINA RESULT:      -7.5      3.001      5.413
REMARK  6 active torsions:
REMARK  status: ('A' for Active; 'I' for Inactive)
REMARK    1  A    between atoms: C_2  and  O_3 
REMARK    2  A    between atoms: O_3  and  C_4 
REMARK    3  A    between atoms: C_7  and  N_8 
REMARK    4  A    between atoms: C_9  and  C_11 
REMARK    5  A    between atoms: C_9  and  O_10 
REMARK       I    between atoms: C_11  and  N_12 
REMARK    6  A    between atoms: N_12  and  C_13 
ROOT
HETATM    1  N   UNL     1     -42.461  57.047 -51.973  1.00  0.00    -0.254 N 
HETATM    2  C   UNL     1     -43.823  57.489 -52.322  1.00  0.00     0.256 C 
HETATM    3  C   UNL     1     -44.166  58.903 -51.896  1.00  0.00     0.035 A 
HETATM    4  C   UNL     1     -43.294  59.587 -51.060  1.00  0.00     0.048 A 
HETATM    5  N   UNL     1     -42.116  58.974 -50.669  1.00  0.00    -0.308 N 
HETATM    6  C   UNL     1     -41.656  57.775 -51.113  1.00  0.00     0.330 C 
HETATM    7  O   UNL     1     -40.559  57.405 -50.692  1.00  0.00    -0.246 OA
HETATM    8  C   UNL     1     -45.357  59.543 -52.287  1.00  0.00     0.034 A 
HETATM    9  C   UNL     1     -45.633  60.843 -51.860  1.00  0.00     0.011 A 
HETATM   10 BR   UNL     1     -47.219  61.701 -52.428  1.00  0.00    -0.051 Br
HETATM   11  C   UNL     1     -44.749  61.514 -51.021  1.00  0.00     0.021 A 
HETATM   12  C   UNL     1     -43.577  60.879 -50.612  1.00  0.00     0.031 A 
HETATM   13  H   UNL     1     -41.473  59.459 -50.055  1.00  0.00     0.170 HD
ENDROOT
BRANCH   1  14
HETATM   14  C   UNL     1     -41.913  55.893 -52.639  1.00  0.00     0.043 A 
HETATM   15  C   UNL     1     -41.039  56.004 -53.728  1.00  0.00     0.032 A 
HETATM   16  C   UNL     1     -40.461  54.864 -54.300  1.00  0.00     0.039 A 
HETATM   17  C   UNL     1     -40.711  53.598 -53.774  1.00  0.00     0.068 A 
HETATM   18  C   UNL     1     -41.593  53.471 -52.706  1.00  0.00     0.039 A 
HETATM   19  C   UNL     1     -42.194  54.608 -52.152  1.00  0.00     0.032 A 
BRANCH  17  20
HETATM   20  O   UNL     1     -40.054  52.572 -54.394  1.00  0.00    -0.352 OA
BRANCH  20  21
HETATM   21  C   UNL     1     -39.737  51.445 -53.576  1.00  0.00     0.171 C 
HETATM   22  C   UNL     1     -39.876  50.195 -54.427  1.00  0.00     0.034 C 
ENDBRANCH  20  21
ENDBRANCH  17  20
ENDBRANCH   1  14
BRANCH   2  23
HETATM   23  C   UNL     1     -44.019  57.384 -53.896  1.00  0.00     0.279 C 
HETATM   24  N   UNL     1     -43.275  58.331 -54.593  1.00  0.00    -0.352 N 
HETATM   25  H   UNL     1     -42.692  58.953 -54.039  1.00  0.00     0.163 HD
HETATM   26  O   UNL     1     -44.758  56.566 -54.441  1.00  0.00    -0.268 OA
BRANCH  24  27
HETATM   27  C   UNL     1     -43.376  58.521 -56.001  1.00  0.00     0.084 A 
HETATM   28  C   UNL     1     -42.319  59.268 -56.768  1.00  0.00     0.027 A 
HETATM   29  C   UNL     1     -42.446  57.784 -56.928  1.00  0.00     0.027 A 
ENDBRANCH  24  27
ENDBRANCH   2  23
BRANCH   2  30
HETATM   30  O   UNL     1     -44.728  56.656 -51.594  1.00  0.00    -0.359 OA
HETATM   31  H   UNL     1     -44.136  56.129 -51.029  1.00  0.00     0.213 HD
ENDBRANCH   2  30
TORSDOF 6
ENDMDL
MODEL 5
REMARK VINA RESULT:      -7.2      3.107      6.087
REMARK  6 active torsions:
REMARK  status: ('A' for Active; 'I' for Inactive)
REMARK    1  A    between atoms: C_2  and  O_3 
REMARK    2  A    between atoms: O_3  and  C_4 
REMARK    3  A    between atoms: C_7  and  N_8 
REMARK    4  A    between atoms: C_9  and  C_11 
REMARK    5  A    between atoms: C_9  and  O_10 
REMARK       I    between atoms: C_11  and  N_12 
REMARK    6  A    between atoms: N_12  and  C_13 
ROOT
HETATM    1  N   UNL     1     -42.810  57.140 -54.278  1.00  0.00    -0.254 N 
HETATM    2  C   UNL     1     -42.706  56.132 -53.207  1.00  0.00     0.256 C 
HETATM    3  C   UNL     1     -41.708  55.022 -53.468  1.00  0.00     0.035 A 
HETATM    4  C   UNL     1     -41.135  54.911 -54.727  1.00  0.00     0.048 A 
HETATM    5  N   UNL     1     -41.460  55.841 -55.699  1.00  0.00    -0.308 N 
HETATM    6  C   UNL     1     -42.226  56.949 -55.518  1.00  0.00     0.330 C 
HETATM    7  O   UNL     1     -42.371  57.694 -56.488  1.00  0.00    -0.246 OA
HETATM    8  C   UNL     1     -41.363  54.070 -52.490  1.00  0.00     0.034 A 
HETATM    9  C   UNL     1     -40.446  53.059 -52.782  1.00  0.00     0.011 A 
HETATM   10 BR   UNL     1     -39.965  51.813 -51.445  1.00  0.00    -0.051 Br
HETATM   11  C   UNL     1     -39.882  52.961 -54.050  1.00  0.00     0.021 A 
HETATM   12  C   UNL     1     -40.234  53.888 -55.031  1.00  0.00     0.031 A 
HETATM   13  H   UNL     1     -41.053  55.770 -56.624  1.00  0.00     0.170 HD
ENDROOT
BRANCH   1  14
HETATM   14  C   UNL     1     -43.431  58.406 -53.982  1.00  0.00     0.043 A 
HETATM   15  C   UNL     1     -44.796  58.518 -53.687  1.00  0.00     0.032 A 
HETATM   16  C   UNL     1     -45.351  59.751 -53.325  1.00  0.00     0.039 A 
HETATM   17  C   UNL     1     -44.552  60.887 -53.212  1.00  0.00     0.068 A 
HETATM   18  C   UNL     1     -43.198  60.795 -53.522  1.00  0.00     0.039 A 
HETATM   19  C   UNL     1     -42.649  59.568 -53.913  1.00  0.00     0.032 A 
BRANCH  17  20
HETATM   20  O   UNL     1     -45.204  62.018 -52.810  1.00  0.00    -0.352 OA
BRANCH  20  21
HETATM   21  C   UNL     1     -44.583  62.762 -51.760  1.00  0.00     0.171 C 
HETATM   22  C   UNL     1     -44.867  62.049 -50.451  1.00  0.00     0.034 C 
ENDBRANCH  20  21
ENDBRANCH  17  20
ENDBRANCH   1  14
BRANCH   2  23
HETATM   23  C   UNL     1     -42.302  56.853 -51.848  1.00  0.00     0.279 C 
HETATM   24  N   UNL     1     -41.087  57.525 -51.939  1.00  0.00    -0.352 N 
HETATM   25  H   UNL     1     -40.616  57.498 -52.839  1.00  0.00     0.163 HD
HETATM   26  O   UNL     1     -42.981  56.810 -50.824  1.00  0.00    -0.268 OA
BRANCH  24  27
HETATM   27  C   UNL     1     -40.452  58.141 -50.823  1.00  0.00     0.084 A 
HETATM   28  C   UNL     1     -39.391  59.192 -51.009  1.00  0.00     0.027 A 
HETATM   29  C   UNL     1     -40.743  59.581 -50.493  1.00  0.00     0.027 A 
ENDBRANCH  24  27
ENDBRANCH   2  23
BRANCH   2  30
HETATM   30  O   UNL     1     -43.974  55.478 -53.131  1.00  0.00    -0.359 OA
HETATM   31  H   UNL     1     -44.200  55.542 -52.187  1.00  0.00     0.213 HD
ENDBRANCH   2  30
TORSDOF 6
ENDMDL
MODEL 6
REMARK VINA RESULT:      -7.0      1.645      2.257
REMARK  6 active torsions:
REMARK  status: ('A' for Active; 'I' for Inactive)
REMARK    1  A    between atoms: C_2  and  O_3 
REMARK    2  A    between atoms: O_3  and  C_4 
REMARK    3  A    between atoms: C_7  and  N_8 
REMARK    4  A    between atoms: C_9  and  C_11 
REMARK    5  A    between atoms: C_9  and  O_10 
REMARK       I    between atoms: C_11  and  N_12 
REMARK    6  A    between atoms: N_12  and  C_13 
ROOT
HETATM    1  N   UNL     1     -43.932  57.074 -52.913  1.00  0.00    -0.254 N 
HETATM    2  C   UNL     1     -44.179  56.919 -54.357  1.00  0.00     0.256 C 
HETATM    3  C   UNL     1     -44.711  58.156 -55.053  1.00  0.00     0.035 A 
HETATM    4  C   UNL     1     -45.113  59.241 -54.287  1.00  0.00     0.048 A 
HETATM    5  N   UNL     1     -44.980  59.179 -52.910  1.00  0.00    -0.308 N 
HETATM    6  C   UNL     1     -44.383  58.178 -52.211  1.00  0.00     0.330 C 
HETATM    7  O   UNL     1     -44.312  58.314 -50.989  1.00  0.00    -0.246 OA
HETATM    8  C   UNL     1     -44.849  58.238 -56.451  1.00  0.00     0.034 A 
HETATM    9  C   UNL     1     -45.354  59.396 -57.044  1.00  0.00     0.011 A 
HETATM   10 BR   UNL     1     -45.495  59.502 -58.926  1.00  0.00    -0.051 Br
HETATM   11  C   UNL     1     -45.753  60.474 -56.261  1.00  0.00     0.021 A 
HETATM   12  C   UNL     1     -45.639  60.394 -54.874  1.00  0.00     0.031 A 
HETATM   13  H   UNL     1     -45.273  59.961 -52.338  1.00  0.00     0.170 HD
ENDROOT
BRANCH   1  14
HETATM   14  C   UNL     1     -43.097  56.109 -52.243  1.00  0.00     0.043 A 
HETATM   15  C   UNL     1     -41.758  56.372 -51.927  1.00  0.00     0.032 A 
HETATM   16  C   UNL     1     -40.999  55.445 -51.203  1.00  0.00     0.039 A 
HETATM   17  C   UNL     1     -41.569  54.258 -50.747  1.00  0.00     0.068 A 
HETATM   18  C   UNL     1     -42.892  53.974 -51.071  1.00  0.00     0.039 A 
HETATM   19  C   UNL     1     -43.643  54.889 -51.820  1.00  0.00     0.032 A 
BRANCH  17  20
HETATM   20  O   UNL     1     -40.736  53.457 -50.017  1.00  0.00    -0.352 OA
BRANCH  20  21
HETATM   21  C   UNL     1     -39.813  54.128 -49.158  1.00  0.00     0.171 C 
HETATM   22  C   UNL     1     -40.310  53.982 -47.731  1.00  0.00     0.034 C 
ENDBRANCH  20  21
ENDBRANCH  17  20
ENDBRANCH   1  14
BRANCH   2  23
HETATM   23  C   UNL     1     -42.826  56.489 -55.075  1.00  0.00     0.279 C 
HETATM   24  N   UNL     1     -42.661  55.109 -55.125  1.00  0.00    -0.352 N 
HETATM   25  H   UNL     1     -43.407  54.544 -54.728  1.00  0.00     0.163 HD
HETATM   26  O   UNL     1     -42.007  57.288 -55.524  1.00  0.00    -0.268 OA
BRANCH  24  27
HETATM   27  C   UNL     1     -41.476  54.482 -55.605  1.00  0.00     0.084 A 
HETATM   28  C   UNL     1     -40.150  54.686 -54.924  1.00  0.00     0.027 A 
HETATM   29  C   UNL     1     -40.845  53.363 -54.819  1.00  0.00     0.027 A 
ENDBRANCH  24  27
ENDBRANCH   2  23
BRANCH   2  30
HETATM   30  O   UNL     1     -45.214  55.943 -54.498  1.00  0.00    -0.359 OA
HETATM   31  H   UNL     1     -44.721  55.109 -54.590  1.00  0.00     0.213 HD
ENDBRANCH   2  30
TORSDOF 6
ENDMDL
MODEL 7
REMARK VINA RESULT:      -7.0      3.035      7.168
REMARK  6 active torsions:
REMARK  status: ('A' for Active; 'I' for Inactive)
REMARK    1  A    between atoms: C_2  and  O_3 
REMARK    2  A    between atoms: O_3  and  C_4 
REMARK    3  A    between atoms: C_7  and  N_8 
REMARK    4  A    between atoms: C_9  and  C_11 
REMARK    5  A    between atoms: C_9  and  O_10 
REMARK       I    between atoms: C_11  and  N_12 
REMARK    6  A    between atoms: N_12  and  C_13 
ROOT
HETATM    1  N   UNL     1     -42.753  55.996 -53.995  1.00  0.00    -0.254 N 
HETATM    2  C   UNL     1     -42.808  55.937 -52.524  1.00  0.00     0.256 C 
HETATM    3  C   UNL     1     -41.801  55.004 -51.882  1.00  0.00     0.035 A 
HETATM    4  C   UNL     1     -41.066  54.146 -52.688  1.00  0.00     0.048 A 
HETATM    5  N   UNL     1     -41.244  54.193 -54.060  1.00  0.00    -0.308 N 
HETATM    6  C   UNL     1     -42.012  55.090 -54.734  1.00  0.00     0.330 C 
HETATM    7  O   UNL     1     -42.014  55.013 -55.963  1.00  0.00    -0.246 OA
HETATM    8  C   UNL     1     -41.604  54.945 -50.489  1.00  0.00     0.034 A 
HETATM    9  C   UNL     1     -40.671  54.061 -49.945  1.00  0.00     0.011 A 
HETATM   10 BR   UNL     1     -40.392  54.025 -48.076  1.00  0.00    -0.051 Br
HETATM   11  C   UNL     1     -39.944  53.207 -50.768  1.00  0.00     0.021 A 
HETATM   12  C   UNL     1     -40.148  53.243 -52.146  1.00  0.00     0.031 A 
HETATM   13  H   UNL     1     -40.719  53.569 -54.660  1.00  0.00     0.170 HD
ENDROOT
BRANCH   1  14
HETATM   14  C   UNL     1     -43.389  57.098 -54.671  1.00  0.00     0.043 A 
HETATM   15  C   UNL     1     -42.660  58.064 -55.377  1.00  0.00     0.032 A 
HETATM   16  C   UNL     1     -43.314  59.075 -56.090  1.00  0.00     0.039 A 
HETATM   17  C   UNL     1     -44.706  59.121 -56.146  1.00  0.00     0.068 A 
HETATM   18  C   UNL     1     -45.444  58.180 -55.434  1.00  0.00     0.039 A 
HETATM   19  C   UNL     1     -44.788  57.186 -54.696  1.00  0.00     0.032 A 
BRANCH  17  20
HETATM   20  O   UNL     1     -45.223  60.129 -56.909  1.00  0.00    -0.352 OA
BRANCH  20  21
HETATM   21  C   UNL     1     -44.781  60.180 -58.267  1.00  0.00     0.171 C 
HETATM   22  C   UNL     1     -45.614  59.196 -59.067  1.00  0.00     0.034 C 
ENDBRANCH  20  21
ENDBRANCH  17  20
ENDBRANCH   1  14
BRANCH   2  23
HETATM   23  C   UNL     1     -42.579  57.396 -51.933  1.00  0.00     0.279 C 
HETATM   24  N   UNL     1     -41.279  57.853 -52.123  1.00  0.00    -0.352 N 
HETATM   25  H   UNL     1     -40.644  57.232 -52.619  1.00  0.00     0.163 HD
HETATM   26  O   UNL     1     -43.450  58.046 -51.358  1.00  0.00    -0.268 OA
BRANCH  24  27
HETATM   27  C   UNL     1     -40.793  59.074 -51.576  1.00  0.00     0.084 A 
HETATM   28  C   UNL     1     -40.615  59.253 -50.093  1.00  0.00     0.027 A 
HETATM   29  C   UNL     1     -39.413  59.135 -50.979  1.00  0.00     0.027 A 
ENDBRANCH  24  27
ENDBRANCH   2  23
BRANCH   2  30
HETATM   30  O   UNL     1     -44.085  55.394 -52.179  1.00  0.00    -0.359 OA
HETATM   31  H   UNL     1     -44.633  56.187 -52.044  1.00  0.00     0.213 HD
ENDBRANCH   2  30
TORSDOF 6
ENDMDL
MODEL 8
REMARK VINA RESULT:      -7.0      2.489      4.149
REMARK  6 active torsions:
REMARK  status: ('A' for Active; 'I' for Inactive)
REMARK    1  A    between atoms: C_2  and  O_3 
REMARK    2  A    between atoms: O_3  and  C_4 
REMARK    3  A    between atoms: C_7  and  N_8 
REMARK    4  A    between atoms: C_9  and  C_11 
REMARK    5  A    between atoms: C_9  and  O_10 
REMARK       I    between atoms: C_11  and  N_12 
REMARK    6  A    between atoms: N_12  and  C_13 
ROOT
HETATM    1  N   UNL     1     -42.144  56.809 -54.051  1.00  0.00    -0.254 N 
HETATM    2  C   UNL     1     -43.473  56.776 -54.687  1.00  0.00     0.256 C 
HETATM    3  C   UNL     1     -43.895  58.070 -55.355  1.00  0.00     0.035 A 
HETATM    4  C   UNL     1     -43.134  59.213 -55.155  1.00  0.00     0.048 A 
HETATM    5  N   UNL     1     -41.988  59.132 -54.383  1.00  0.00    -0.308 N 
HETATM    6  C   UNL     1     -41.453  57.993 -53.867  1.00  0.00     0.330 C 
HETATM    7  O   UNL     1     -40.397  58.104 -53.243  1.00  0.00    -0.246 OA
HETATM    8  C   UNL     1     -45.055  58.169 -56.147  1.00  0.00     0.034 A 
HETATM    9  C   UNL     1     -45.407  59.386 -56.732  1.00  0.00     0.011 A 
HETATM   10 BR   UNL     1     -46.947  59.492 -57.824  1.00  0.00    -0.051 Br
HETATM   11  C   UNL     1     -44.634  60.523 -56.520  1.00  0.00     0.021 A 
HETATM   12  C   UNL     1     -43.495  60.438 -55.721  1.00  0.00     0.031 A 
HETATM   13  H   UNL     1     -41.425  59.958 -54.224  1.00  0.00     0.170 HD
ENDROOT
BRANCH   1  14
HETATM   14  C   UNL     1     -41.500  55.562 -53.723  1.00  0.00     0.043 A 
HETATM   15  C   UNL     1     -41.766  54.874 -52.532  1.00  0.00     0.032 A 
HETATM   16  C   UNL     1     -41.184  53.626 -52.282  1.00  0.00     0.039 A 
HETATM   17  C   UNL     1     -40.359  53.022 -53.228  1.00  0.00     0.068 A 
HETATM   18  C   UNL     1     -40.069  53.702 -54.407  1.00  0.00     0.039 A 
HETATM   19  C   UNL     1     -40.628  54.964 -54.644  1.00  0.00     0.032 A 
BRANCH  17  20
HETATM   20  O   UNL     1     -39.888  51.786 -52.883  1.00  0.00    -0.352 OA
BRANCH  20  21
HETATM   21  C   UNL     1     -39.293  51.025 -53.936  1.00  0.00     0.171 C 
HETATM   22  C   UNL     1     -40.290  49.966 -54.370  1.00  0.00     0.034 C 
ENDBRANCH  20  21
ENDBRANCH  17  20
ENDBRANCH   1  14
BRANCH   2  23
HETATM   23  C   UNL     1     -43.500  55.622 -55.781  1.00  0.00     0.279 C 
HETATM   24  N   UNL     1     -43.145  56.074 -57.047  1.00  0.00    -0.352 N 
HETATM   25  H   UNL     1     -42.896  57.056 -57.128  1.00  0.00     0.163 HD
HETATM   26  O   UNL     1     -43.816  54.458 -55.539  1.00  0.00    -0.268 OA
BRANCH  24  27
HETATM   27  C   UNL     1     -43.214  55.262 -58.215  1.00  0.00     0.084 A 
HETATM   28  C   UNL     1     -44.264  55.490 -59.267  1.00  0.00     0.027 A 
HETATM   29  C   UNL     1     -42.834  55.835 -59.554  1.00  0.00     0.027 A 
ENDBRANCH  24  27
ENDBRANCH   2  23
BRANCH   2  30
HETATM   30  O   UNL     1     -44.427  56.572 -53.643  1.00  0.00    -0.359 OA
HETATM   31  H   UNL     1     -44.401  55.609 -53.505  1.00  0.00     0.213 HD
ENDBRANCH   2  30
TORSDOF 6
ENDMDL
MODEL 9
REMARK VINA RESULT:      -6.9      3.150      6.693
REMARK  6 active torsions:
REMARK  status: ('A' for Active; 'I' for Inactive)
REMARK    1  A    between atoms: C_2  and  O_3 
REMARK    2  A    between atoms: O_3  and  C_4 
REMARK    3  A    between atoms: C_7  and  N_8 
REMARK    4  A    between atoms: C_9  and  C_11 
REMARK    5  A    between atoms: C_9  and  O_10 
REMARK       I    between atoms: C_11  and  N_12 
REMARK    6  A    between atoms: N_12  and  C_13 
ROOT
HETATM    1  N   UNL     1     -42.845  56.747 -55.075  1.00  0.00    -0.254 N 
HETATM    2  C   UNL     1     -42.687  56.182 -53.723  1.00  0.00     0.256 C 
HETATM    3  C   UNL     1     -41.825  54.937 -53.646  1.00  0.00     0.035 A 
HETATM    4  C   UNL     1     -41.431  54.315 -54.821  1.00  0.00     0.048 A 
HETATM    5  N   UNL     1     -41.802  54.870 -56.034  1.00  0.00    -0.308 N 
HETATM    6  C   UNL     1     -42.445  56.055 -56.205  1.00  0.00     0.330 C 
HETATM    7  O   UNL     1     -42.652  56.417 -57.364  1.00  0.00    -0.246 OA
HETATM    8  C   UNL     1     -41.436  54.362 -52.421  1.00  0.00     0.034 A 
HETATM    9  C   UNL     1     -40.651  53.209 -52.402  1.00  0.00     0.011 A 
HETATM   10 BR   UNL     1     -40.104  52.472 -50.749  1.00  0.00    -0.051 Br
HETATM   11  C   UNL     1     -40.265  52.596 -53.591  1.00  0.00     0.021 A 
HETATM   12  C   UNL     1     -40.664  53.148 -54.807  1.00  0.00     0.031 A 
HETATM   13  H   UNL     1     -41.525  54.424 -56.900  1.00  0.00     0.170 HD
ENDROOT
BRANCH   1  14
HETATM   14  C   UNL     1     -43.317  58.101 -55.212  1.00  0.00     0.043 A 
HETATM   15  C   UNL     1     -44.668  58.440 -55.060  1.00  0.00     0.032 A 
HETATM   16  C   UNL     1     -45.081  59.777 -55.120  1.00  0.00     0.039 A 
HETATM   17  C   UNL     1     -44.153  60.803 -55.291  1.00  0.00     0.068 A 
HETATM   18  C   UNL     1     -42.811  60.479 -55.464  1.00  0.00     0.039 A 
HETATM   19  C   UNL     1     -42.402  59.140 -55.434  1.00  0.00     0.032 A 
BRANCH  17  20
HETATM   20  O   UNL     1     -44.676  62.065 -55.289  1.00  0.00    -0.352 OA
BRANCH  20  21
HETATM   21  C   UNL     1     -45.651  62.339 -54.281  1.00  0.00     0.171 C 
HETATM   22  C   UNL     1     -44.939  62.981 -53.104  1.00  0.00     0.034 C 
ENDBRANCH  20  21
ENDBRANCH  17  20
ENDBRANCH   1  14
BRANCH   2  23
HETATM   23  C   UNL     1     -42.053  57.284 -52.768  1.00  0.00     0.279 C 
HETATM   24  N   UNL     1     -43.007  57.929 -51.987  1.00  0.00    -0.352 N 
HETATM   25  H   UNL     1     -43.970  57.621 -52.094  1.00  0.00     0.163 HD
HETATM   26  O   UNL     1     -40.854  57.551 -52.732  1.00  0.00    -0.268 OA
BRANCH  24  27
HETATM   27  C   UNL     1     -42.706  59.037 -51.144  1.00  0.00     0.084 A 
HETATM   28  C   UNL     1     -42.504  60.417 -51.707  1.00  0.00     0.027 A 
HETATM   29  C   UNL     1     -43.738  60.109 -50.914  1.00  0.00     0.027 A 
ENDBRANCH  24  27
ENDBRANCH   2  23
BRANCH   2  30
HETATM   30  O   UNL     1     -43.984  55.760 -53.297  1.00  0.00    -0.359 OA
HETATM   31  H   UNL     1     -44.571  56.123 -53.983  1.00  0.00     0.213 HD
ENDBRANCH   2  30
TORSDOF 6
ENDMDL
MODEL 10
REMARK VINA RESULT:      -6.8      3.003      5.185
REMARK  6 active torsions:
REMARK  status: ('A' for Active; 'I' for Inactive)
REMARK    1  A    between atoms: C_2  and  O_3 
REMARK    2  A    between atoms: O_3  and  C_4 
REMARK    3  A    between atoms: C_7  and  N_8 
REMARK    4  A    between atoms: C_9  and  C_11 
REMARK    5  A    between atoms: C_9  and  O_10 
REMARK       I    between atoms: C_11  and  N_12 
REMARK    6  A    between atoms: N_12  and  C_13 
ROOT
HETATM    1  N   UNL     1     -42.695  57.163 -53.395  1.00  0.00    -0.254 N 
HETATM    2  C   UNL     1     -42.729  55.787 -52.869  1.00  0.00     0.256 C 
HETATM    3  C   UNL     1     -41.773  54.821 -53.542  1.00  0.00     0.035 A 
HETATM    4  C   UNL     1     -41.110  55.219 -54.694  1.00  0.00     0.048 A 
HETATM    5  N   UNL     1     -41.308  56.502 -55.176  1.00  0.00    -0.308 N 
HETATM    6  C   UNL     1     -42.027  57.480 -54.565  1.00  0.00     0.330 C 
HETATM    7  O   UNL     1     -42.056  58.581 -55.117  1.00  0.00    -0.246 OA
HETATM    8  C   UNL     1     -41.556  53.515 -53.064  1.00  0.00     0.034 A 
HETATM    9  C   UNL     1     -40.674  52.659 -53.724  1.00  0.00     0.011 A 
HETATM   10 BR   UNL     1     -40.365  50.922 -53.045  1.00  0.00    -0.051 Br
HETATM   11  C   UNL     1     -40.018  53.074 -54.879  1.00  0.00     0.021 A 
HETATM   12  C   UNL     1     -40.243  54.359 -55.371  1.00  0.00     0.031 A 
HETATM   13  H   UNL     1     -40.835  56.805 -56.018  1.00  0.00     0.170 HD
ENDROOT
BRANCH   1  14
HETATM   14  C   UNL     1     -43.270  58.223 -52.606  1.00  0.00     0.043 A 
HETATM   15  C   UNL     1     -44.655  58.410 -52.502  1.00  0.00     0.032 A 
HETATM   16  C   UNL     1     -45.182  59.398 -51.663  1.00  0.00     0.039 A 
HETATM   17  C   UNL     1     -44.344  60.191 -50.881  1.00  0.00     0.068 A 
HETATM   18  C   UNL     1     -42.966  60.030 -50.989  1.00  0.00     0.039 A 
HETATM   19  C   UNL     1     -42.437  59.061 -51.852  1.00  0.00     0.032 A 
BRANCH  17  20
HETATM   20  O   UNL     1     -44.981  61.089 -50.073  1.00  0.00    -0.352 OA
BRANCH  20  21
HETATM   21  C   UNL     1     -45.432  60.590 -48.812  1.00  0.00     0.171 C 
HETATM   22  C   UNL     1     -44.763  61.404 -47.720  1.00  0.00     0.034 C 
ENDBRANCH  20  21
ENDBRANCH  17  20
ENDBRANCH   1  14
BRANCH   2  23
HETATM   23  C   UNL     1     -42.395  55.812 -51.315  1.00  0.00     0.279 C 
HETATM   24  N   UNL     1     -41.045  55.604 -51.053  1.00  0.00    -0.352 N 
HETATM   25  H   UNL     1     -40.437  55.481 -51.858  1.00  0.00     0.163 HD
HETATM   26  O   UNL     1     -43.239  55.983 -50.437  1.00  0.00    -0.268 OA
BRANCH  24  27
HETATM   27  C   UNL     1     -40.519  55.459 -49.737  1.00  0.00     0.084 A 
HETATM   28  C   UNL     1     -40.886  54.284 -48.872  1.00  0.00     0.027 A 
HETATM   29  C   UNL     1     -39.505  54.384 -49.447  1.00  0.00     0.027 A 
ENDBRANCH  24  27
ENDBRANCH   2  23
BRANCH   2  30
HETATM   30  O   UNL     1     -44.032  55.269 -53.148  1.00  0.00    -0.359 OA
HETATM   31  H   UNL     1     -44.384  55.071 -52.263  1.00  0.00     0.213 HD
ENDBRANCH   2  30
TORSDOF 6
ENDMDL
