MODEL 1
REMARK VINA RESULT:      -8.3      0.000      0.000
REMARK  8 active torsions:
REMARK  status: ('A' for Active; 'I' for Inactive)
REMARK    1  A    between atoms: C_2  and  C_3 
REMARK    2  A    between atoms: C_3  and  O_4 
REMARK    3  A    between atoms: O_4  and  C_5 
REMARK    4  A    between atoms: C_6  and  O_7 
REMARK    5  A    between atoms: C_11  and  C_12 
REMARK    6  A    between atoms: C_12  and  N_13 
REMARK    7  A    between atoms: N_13  and  C_14 
REMARK    8  A    between atoms: C_21  and  C_22 
REMARK       I    between atoms: C_22  and  N_23 
ROOT
HETATM    1  N   UNL     1     -41.546  55.411 -56.007  1.00  0.00    -0.289 NA
HETATM    2  H   UNL     1     -40.582  55.576 -56.280  1.00  0.00     0.128 HD
ENDROOT
BRANCH   1   3
HETATM    3  C   UNL     1     -41.717  55.417 -54.560  1.00  0.00     0.131 C 
BRANCH   3   4
HETATM    4  C   UNL     1     -41.035  54.201 -53.978  1.00  0.00    -0.042 A 
HETATM    5  C   UNL     1     -40.538  53.189 -54.807  1.00  0.00     0.011 A 
HETATM    6  C   UNL     1     -39.906  52.066 -54.259  1.00  0.00     0.040 A 
HETATM    7  C   UNL     1     -39.771  51.935 -52.874  1.00  0.00     0.101 A 
HETATM    8  C   UNL     1     -40.306  52.928 -52.036  1.00  0.00     0.102 A 
HETATM    9  C   UNL     1     -40.919  54.057 -52.588  1.00  0.00     0.048 A 
BRANCH   7  10
HETATM   10  O   UNL     1     -39.170  50.873 -52.248  1.00  0.00    -0.353 OA
HETATM   11  C   UNL     1     -39.750  49.591 -52.444  1.00  0.00     0.210 C 
ENDBRANCH   7  10
BRANCH   8  12
HETATM   12  O   UNL     1     -40.118  52.782 -50.684  1.00  0.00    -0.344 OA
BRANCH  12  13
HETATM   13  C   UNL     1     -39.519  53.892 -50.011  1.00  0.00     0.209 C 
BRANCH  13  14
HETATM   14  C   UNL     1     -40.408  54.365 -48.883  1.00  0.00    -0.069 C 
HETATM   15  C   UNL     1     -41.327  55.512 -49.200  1.00  0.00     0.044 C 
HETATM   16  C   UNL     1     -40.371  53.810 -47.659  1.00  0.00     0.016 C 
ENDBRANCH  13  14
ENDBRANCH  12  13
ENDBRANCH   8  12
ENDBRANCH   3   4
ENDBRANCH   1   3
BRANCH   1  17
HETATM   17  C   UNL     1     -42.453  56.127 -56.800  1.00  0.00     0.009 A 
HETATM   18  C   UNL     1     -43.122  55.562 -57.897  1.00  0.00     0.039 A 
HETATM   19  C   UNL     1     -43.957  56.357 -58.713  1.00  0.00     0.030 A 
HETATM   20  C   UNL     1     -44.085  57.707 -58.424  1.00  0.00     0.063 A 
HETATM   21  C   UNL     1     -44.766  56.144 -59.868  1.00  0.00     0.156 A 
HETATM   22  N   UNL     1     -44.937  58.200 -59.372  1.00  0.00    -0.277 N 
HETATM   23  C   UNL     1     -43.415  58.322 -57.367  1.00  0.00     0.034 A 
HETATM   24  H   UNL     1     -45.257  59.157 -59.471  1.00  0.00     0.189 HD
HETATM   25  N   UNL     1     -45.368  57.289 -60.262  1.00  0.00    -0.168 NA
HETATM   26  C   UNL     1     -42.587  57.507 -56.581  1.00  0.00     0.026 A 
BRANCH  21  27
HETATM   27  C   UNL     1     -44.967  54.882 -60.593  1.00  0.00     0.270 C 
HETATM   28  N   UNL     1     -45.214  53.806 -59.787  1.00  0.00    -0.365 N 
HETATM   29  H   UNL     1     -45.249  53.949 -58.784  1.00  0.00     0.159 HD
HETATM   30  H   UNL     1     -45.382  52.901 -60.195  1.00  0.00     0.159 HD
HETATM   31  O   UNL     1     -44.928  54.768 -61.815  1.00  0.00    -0.266 OA
ENDBRANCH  21  27
ENDBRANCH   1  17
TORSDOF 8
ENDMDL
MODEL 2
REMARK VINA RESULT:      -8.2      4.153      6.004
REMARK  8 active torsions:
REMARK  status: ('A' for Active; 'I' for Inactive)
REMARK    1  A    between atoms: C_2  and  C_3 
REMARK    2  A    between atoms: C_3  and  O_4 
REMARK    3  A    between atoms: O_4  and  C_5 
REMARK    4  A    between atoms: C_6  and  O_7 
REMARK    5  A    between atoms: C_11  and  C_12 
REMARK    6  A    between atoms: C_12  and  N_13 
REMARK    7  A    between atoms: N_13  and  C_14 
REMARK    8  A    between atoms: C_21  and  C_22 
REMARK       I    between atoms: C_22  and  N_23 
ROOT
HETATM    1  N   UNL     1     -42.741  55.490 -54.052  1.00  0.00    -0.289 NA
HETATM    2  H   UNL     1     -43.517  55.517 -54.707  1.00  0.00     0.128 HD
ENDROOT
BRANCH   1   3
HETATM    3  C   UNL     1     -41.490  55.112 -54.699  1.00  0.00     0.131 C 
BRANCH   3   4
HETATM    4  C   UNL     1     -40.922  53.897 -54.002  1.00  0.00    -0.042 A 
HETATM    5  C   UNL     1     -40.729  52.695 -54.693  1.00  0.00     0.011 A 
HETATM    6  C   UNL     1     -40.201  51.576 -54.040  1.00  0.00     0.040 A 
HETATM    7  C   UNL     1     -39.866  51.640 -52.684  1.00  0.00     0.101 A 
HETATM    8  C   UNL     1     -40.098  52.831 -51.976  1.00  0.00     0.102 A 
HETATM    9  C   UNL     1     -40.608  53.953 -52.637  1.00  0.00     0.048 A 
BRANCH   7  10
HETATM   10  O   UNL     1     -39.346  50.597 -51.961  1.00  0.00    -0.353 OA
HETATM   11  C   UNL     1     -39.557  49.287 -52.468  1.00  0.00     0.210 C 
ENDBRANCH   7  10
BRANCH   8  12
HETATM   12  O   UNL     1     -39.721  52.865 -50.657  1.00  0.00    -0.344 OA
BRANCH  12  13
HETATM   13  C   UNL     1     -39.466  54.161 -50.111  1.00  0.00     0.209 C 
BRANCH  13  14
HETATM   14  C   UNL     1     -40.528  54.523 -49.098  1.00  0.00    -0.069 C 
HETATM   15  C   UNL     1     -40.515  53.741 -47.815  1.00  0.00     0.044 C 
HETATM   16  C   UNL     1     -41.448  55.476 -49.332  1.00  0.00     0.016 C 
ENDBRANCH  13  14
ENDBRANCH  12  13
ENDBRANCH   8  12
ENDBRANCH   3   4
ENDBRANCH   1   3
BRANCH   1  17
HETATM   17  C   UNL     1     -42.747  56.582 -53.175  1.00  0.00     0.009 A 
HETATM   18  C   UNL     1     -41.591  57.308 -52.849  1.00  0.00     0.039 A 
HETATM   19  C   UNL     1     -41.641  58.344 -51.891  1.00  0.00     0.030 A 
HETATM   20  C   UNL     1     -42.848  58.613 -51.260  1.00  0.00     0.063 A 
HETATM   21  C   UNL     1     -40.710  59.263 -51.323  1.00  0.00     0.156 A 
HETATM   22  N   UNL     1     -42.584  59.642 -50.400  1.00  0.00    -0.277 N 
HETATM   23  C   UNL     1     -44.015  57.897 -51.523  1.00  0.00     0.034 A 
HETATM   24  H   UNL     1     -43.235  60.098 -49.772  1.00  0.00     0.189 HD
HETATM   25  N   UNL     1     -41.306  60.060 -50.407  1.00  0.00    -0.168 NA
HETATM   26  C   UNL     1     -43.930  56.870 -52.475  1.00  0.00     0.026 A 
BRANCH  21  27
HETATM   27  C   UNL     1     -39.280  59.386 -51.633  1.00  0.00     0.270 C 
HETATM   28  N   UNL     1     -38.488  59.622 -50.543  1.00  0.00    -0.365 N 
HETATM   29  H   UNL     1     -38.926  59.684 -49.631  1.00  0.00     0.159 HD
HETATM   30  H   UNL     1     -37.491  59.705 -50.656  1.00  0.00     0.159 HD
HETATM   31  O   UNL     1     -38.801  59.289 -52.759  1.00  0.00    -0.266 OA
ENDBRANCH  21  27
ENDBRANCH   1  17
TORSDOF 8
ENDMDL
MODEL 3
REMARK VINA RESULT:      -8.1      1.150      3.176
REMARK  8 active torsions:
REMARK  status: ('A' for Active; 'I' for Inactive)
REMARK    1  A    between atoms: C_2  and  C_3 
REMARK    2  A    between atoms: C_3  and  O_4 
REMARK    3  A    between atoms: O_4  and  C_5 
REMARK    4  A    between atoms: C_6  and  O_7 
REMARK    5  A    between atoms: C_11  and  C_12 
REMARK    6  A    between atoms: C_12  and  N_13 
REMARK    7  A    between atoms: N_13  and  C_14 
REMARK    8  A    between atoms: C_21  and  C_22 
REMARK       I    between atoms: C_22  and  N_23 
ROOT
HETATM    1  N   UNL     1     -42.207  55.280 -55.430  1.00  0.00    -0.289 NA
HETATM    2  H   UNL     1     -41.535  55.775 -54.851  1.00  0.00     0.128 HD
ENDROOT
BRANCH   1   3
HETATM    3  C   UNL     1     -43.167  54.526 -54.634  1.00  0.00     0.131 C 
BRANCH   3   4
HETATM    4  C   UNL     1     -42.533  54.159 -53.313  1.00  0.00    -0.042 A 
HETATM    5  C   UNL     1     -43.100  54.573 -52.102  1.00  0.00     0.011 A 
HETATM    6  C   UNL     1     -42.507  54.227 -50.883  1.00  0.00     0.040 A 
HETATM    7  C   UNL     1     -41.331  53.470 -50.857  1.00  0.00     0.101 A 
HETATM    8  C   UNL     1     -40.735  53.088 -52.071  1.00  0.00     0.102 A 
HETATM    9  C   UNL     1     -41.342  53.420 -53.286  1.00  0.00     0.048 A 
BRANCH   7  10
HETATM   10  O   UNL     1     -40.679  53.086 -49.713  1.00  0.00    -0.353 OA
HETATM   11  C   UNL     1     -40.343  54.106 -48.784  1.00  0.00     0.210 C 
ENDBRANCH   7  10
BRANCH   8  12
HETATM   12  O   UNL     1     -39.604  52.314 -52.001  1.00  0.00    -0.344 OA
BRANCH  12  13
HETATM   13  C   UNL     1     -39.159  51.744 -53.234  1.00  0.00     0.209 C 
BRANCH  13  14
HETATM   14  C   UNL     1     -39.673  50.329 -53.375  1.00  0.00    -0.069 C 
HETATM   15  C   UNL     1     -39.676  49.497 -52.122  1.00  0.00     0.044 C 
HETATM   16  C   UNL     1     -40.087  49.829 -54.552  1.00  0.00     0.016 C 
ENDBRANCH  13  14
ENDBRANCH  12  13
ENDBRANCH   8  12
ENDBRANCH   3   4
ENDBRANCH   1   3
BRANCH   1  17
HETATM   17  C   UNL     1     -42.675  56.067 -56.490  1.00  0.00     0.009 A 
HETATM   18  C   UNL     1     -43.290  55.527 -57.630  1.00  0.00     0.039 A 
HETATM   19  C   UNL     1     -43.662  56.362 -58.707  1.00  0.00     0.030 A 
HETATM   20  C   UNL     1     -43.386  57.719 -58.627  1.00  0.00     0.063 A 
HETATM   21  C   UNL     1     -44.281  56.181 -59.979  1.00  0.00     0.156 A 
HETATM   22  N   UNL     1     -43.849  58.252 -59.797  1.00  0.00    -0.277 N 
HETATM   23  C   UNL     1     -42.746  58.298 -57.532  1.00  0.00     0.034 A 
HETATM   24  H   UNL     1     -43.814  59.223 -60.086  1.00  0.00     0.189 HD
HETATM   25  N   UNL     1     -44.394  57.356 -60.640  1.00  0.00    -0.168 NA
HETATM   26  C   UNL     1     -42.383  57.441 -56.483  1.00  0.00     0.026 A 
BRANCH  21  27
HETATM   27  C   UNL     1     -44.757  54.922 -60.566  1.00  0.00     0.270 C 
HETATM   28  N   UNL     1     -45.063  53.956 -59.647  1.00  0.00    -0.365 N 
HETATM   29  H   UNL     1     -44.952  54.171 -58.663  1.00  0.00     0.159 HD
HETATM   30  H   UNL     1     -45.413  53.063 -59.955  1.00  0.00     0.159 HD
HETATM   31  O   UNL     1     -44.885  54.720 -61.770  1.00  0.00    -0.266 OA
ENDBRANCH  21  27
ENDBRANCH   1  17
TORSDOF 8
ENDMDL
MODEL 4
REMARK VINA RESULT:      -8.0      2.747      9.495
REMARK  8 active torsions:
REMARK  status: ('A' for Active; 'I' for Inactive)
REMARK    1  A    between atoms: C_2  and  C_3 
REMARK    2  A    between atoms: C_3  and  O_4 
REMARK    3  A    between atoms: O_4  and  C_5 
REMARK    4  A    between atoms: C_6  and  O_7 
REMARK    5  A    between atoms: C_11  and  C_12 
REMARK    6  A    between atoms: C_12  and  N_13 
REMARK    7  A    between atoms: N_13  and  C_14 
REMARK    8  A    between atoms: C_21  and  C_22 
REMARK       I    between atoms: C_22  and  N_23 
ROOT
HETATM    1  N   UNL     1     -41.286  54.912 -55.929  1.00  0.00    -0.289 NA
HETATM    2  H   UNL     1     -40.765  54.483 -56.688  1.00  0.00     0.128 HD
ENDROOT
BRANCH   1   3
HETATM    3  C   UNL     1     -42.702  55.052 -56.246  1.00  0.00     0.131 C 
BRANCH   3   4
HETATM    4  C   UNL     1     -42.855  56.005 -57.409  1.00  0.00    -0.042 A 
HETATM    5  C   UNL     1     -42.370  57.316 -57.333  1.00  0.00     0.011 A 
HETATM    6  C   UNL     1     -42.514  58.191 -58.415  1.00  0.00     0.040 A 
HETATM    7  C   UNL     1     -43.155  57.772 -59.586  1.00  0.00     0.101 A 
HETATM    8  C   UNL     1     -43.681  56.470 -59.650  1.00  0.00     0.102 A 
HETATM    9  C   UNL     1     -43.517  55.593 -58.573  1.00  0.00     0.048 A 
BRANCH   7  10
HETATM   10  O   UNL     1     -43.344  58.557 -60.694  1.00  0.00    -0.353 OA
HETATM   11  C   UNL     1     -44.384  59.523 -60.635  1.00  0.00     0.210 C 
ENDBRANCH   7  10
BRANCH   8  12
HETATM   12  O   UNL     1     -44.267  56.085 -60.829  1.00  0.00    -0.344 OA
BRANCH  12  13
HETATM   13  C   UNL     1     -45.488  55.351 -60.711  1.00  0.00     0.209 C 
BRANCH  13  14
HETATM   14  C   UNL     1     -46.665  56.297 -60.626  1.00  0.00    -0.069 C 
HETATM   15  C   UNL     1     -46.852  57.007 -59.314  1.00  0.00     0.044 C 
HETATM   16  C   UNL     1     -47.510  56.485 -61.654  1.00  0.00     0.016 C 
ENDBRANCH  13  14
ENDBRANCH  12  13
ENDBRANCH   8  12
ENDBRANCH   3   4
ENDBRANCH   1   3
BRANCH   1  17
HETATM   17  C   UNL     1     -40.919  54.402 -54.677  1.00  0.00     0.009 A 
HETATM   18  C   UNL     1     -40.527  53.069 -54.478  1.00  0.00     0.039 A 
HETATM   19  C   UNL     1     -40.253  52.589 -53.179  1.00  0.00     0.030 A 
HETATM   20  C   UNL     1     -40.402  53.451 -52.103  1.00  0.00     0.063 A 
HETATM   21  C   UNL     1     -39.847  51.346 -52.609  1.00  0.00     0.156 A 
HETATM   22  N   UNL     1     -40.076  52.711 -51.000  1.00  0.00    -0.277 N 
HETATM   23  C   UNL     1     -40.822  54.773 -52.244  1.00  0.00     0.034 A 
HETATM   24  H   UNL     1     -40.074  53.018 -50.034  1.00  0.00     0.189 HD
HETATM   25  N   UNL     1     -39.738  51.436 -51.264  1.00  0.00    -0.168 NA
HETATM   26  C   UNL     1     -41.093  55.217 -53.546  1.00  0.00     0.026 A 
BRANCH  21  27
HETATM   27  C   UNL     1     -39.569  50.090 -53.319  1.00  0.00     0.270 C 
HETATM   28  N   UNL     1     -39.407  49.008 -52.499  1.00  0.00    -0.365 N 
HETATM   29  H   UNL     1     -39.494  49.141 -51.497  1.00  0.00     0.159 HD
HETATM   30  H   UNL     1     -39.229  48.099 -52.896  1.00  0.00     0.159 HD
HETATM   31  O   UNL     1     -39.487  49.984 -54.539  1.00  0.00    -0.266 OA
ENDBRANCH  21  27
ENDBRANCH   1  17
TORSDOF 8
ENDMDL
MODEL 5
REMARK VINA RESULT:      -7.9      2.216      3.970
REMARK  8 active torsions:
REMARK  status: ('A' for Active; 'I' for Inactive)
REMARK    1  A    between atoms: C_2  and  C_3 
REMARK    2  A    between atoms: C_3  and  O_4 
REMARK    3  A    between atoms: O_4  and  C_5 
REMARK    4  A    between atoms: C_6  and  O_7 
REMARK    5  A    between atoms: C_11  and  C_12 
REMARK    6  A    between atoms: C_12  and  N_13 
REMARK    7  A    between atoms: N_13  and  C_14 
REMARK    8  A    between atoms: C_21  and  C_22 
REMARK       I    between atoms: C_22  and  N_23 
ROOT
HETATM    1  N   UNL     1     -44.289  55.813 -54.347  1.00  0.00    -0.289 NA
HETATM    2  H   UNL     1     -45.298  55.768 -54.456  1.00  0.00     0.128 HD
ENDROOT
BRANCH   1   3
HETATM    3  C   UNL     1     -43.670  54.495 -54.415  1.00  0.00     0.131 C 
BRANCH   3   4
HETATM    4  C   UNL     1     -42.809  54.292 -53.190  1.00  0.00    -0.042 A 
HETATM    5  C   UNL     1     -43.070  54.986 -52.003  1.00  0.00     0.011 A 
HETATM    6  C   UNL     1     -42.269  54.790 -50.873  1.00  0.00     0.040 A 
HETATM    7  C   UNL     1     -41.188  53.903 -50.916  1.00  0.00     0.101 A 
HETATM    8  C   UNL     1     -40.897  53.235 -52.118  1.00  0.00     0.102 A 
HETATM    9  C   UNL     1     -41.712  53.420 -53.239  1.00  0.00     0.048 A 
BRANCH   7  10
HETATM   10  O   UNL     1     -40.349  53.648 -49.862  1.00  0.00    -0.353 OA
HETATM   11  C   UNL     1     -40.677  54.239 -48.613  1.00  0.00     0.210 C 
ENDBRANCH   7  10
BRANCH   8  12
HETATM   12  O   UNL     1     -39.852  52.345 -52.108  1.00  0.00    -0.344 OA
BRANCH  12  13
HETATM   13  C   UNL     1     -39.430  51.862 -53.385  1.00  0.00     0.209 C 
BRANCH  13  14
HETATM   14  C   UNL     1     -39.675  50.373 -53.491  1.00  0.00    -0.069 C 
HETATM   15  C   UNL     1     -39.661  49.605 -52.198  1.00  0.00     0.044 C 
HETATM   16  C   UNL     1     -39.876  49.761 -54.671  1.00  0.00     0.016 C 
ENDBRANCH  13  14
ENDBRANCH  12  13
ENDBRANCH   8  12
ENDBRANCH   3   4
ENDBRANCH   1   3
BRANCH   1  17
HETATM   17  C   UNL     1     -43.723  56.867 -55.077  1.00  0.00     0.009 A 
HETATM   18  C   UNL     1     -43.412  56.772 -56.442  1.00  0.00     0.039 A 
HETATM   19  C   UNL     1     -42.761  57.836 -57.104  1.00  0.00     0.030 A 
HETATM   20  C   UNL     1     -42.414  58.964 -56.376  1.00  0.00     0.063 A 
HETATM   21  C   UNL     1     -42.301  58.090 -58.430  1.00  0.00     0.156 A 
HETATM   22  N   UNL     1     -41.807  59.799 -57.271  1.00  0.00    -0.277 N 
HETATM   23  C   UNL     1     -42.670  59.092 -55.011  1.00  0.00     0.034 A 
HETATM   24  H   UNL     1     -41.422  60.719 -57.089  1.00  0.00     0.189 HD
HETATM   25  N   UNL     1     -41.718  59.307 -58.520  1.00  0.00    -0.168 NA
HETATM   26  C   UNL     1     -43.311  58.015 -54.381  1.00  0.00     0.026 A 
BRANCH  21  27
HETATM   27  C   UNL     1     -42.406  57.201 -59.594  1.00  0.00     0.270 C 
HETATM   28  N   UNL     1     -41.213  56.949 -60.215  1.00  0.00    -0.365 N 
HETATM   29  H   UNL     1     -40.372  57.370 -59.838  1.00  0.00     0.159 HD
HETATM   30  H   UNL     1     -41.183  56.336 -61.013  1.00  0.00     0.159 HD
HETATM   31  O   UNL     1     -43.453  56.707 -60.001  1.00  0.00    -0.266 OA
ENDBRANCH  21  27
ENDBRANCH   1  17
TORSDOF 8
ENDMDL
MODEL 6
REMARK VINA RESULT:      -7.9      4.270      6.675
REMARK  8 active torsions:
REMARK  status: ('A' for Active; 'I' for Inactive)
REMARK    1  A    between atoms: C_2  and  C_3 
REMARK    2  A    between atoms: C_3  and  O_4 
REMARK    3  A    between atoms: O_4  and  C_5 
REMARK    4  A    between atoms: C_6  and  O_7 
REMARK    5  A    between atoms: C_11  and  C_12 
REMARK    6  A    between atoms: C_12  and  N_13 
REMARK    7  A    between atoms: N_13  and  C_14 
REMARK    8  A    between atoms: C_21  and  C_22 
REMARK       I    between atoms: C_22  and  N_23 
ROOT
HETATM    1  N   UNL     1     -42.866  54.569 -50.264  1.00  0.00    -0.289 NA
HETATM    2  H   UNL     1     -43.307  53.876 -50.862  1.00  0.00     0.128 HD
ENDROOT
BRANCH   1   3
HETATM    3  C   UNL     1     -41.539  54.154 -49.827  1.00  0.00     0.131 C 
BRANCH   3   4
HETATM    4  C   UNL     1     -40.918  53.282 -50.894  1.00  0.00    -0.042 A 
HETATM    5  C   UNL     1     -40.166  52.152 -50.553  1.00  0.00     0.011 A 
HETATM    6  C   UNL     1     -39.597  51.350 -51.548  1.00  0.00     0.040 A 
HETATM    7  C   UNL     1     -39.763  51.672 -52.898  1.00  0.00     0.101 A 
HETATM    8  C   UNL     1     -40.481  52.829 -53.244  1.00  0.00     0.102 A 
HETATM    9  C   UNL     1     -41.065  53.617 -52.247  1.00  0.00     0.048 A 
BRANCH   7  10
HETATM   10  O   UNL     1     -39.241  50.948 -53.940  1.00  0.00    -0.353 OA
HETATM   11  C   UNL     1     -39.969  49.804 -54.364  1.00  0.00     0.210 C 
ENDBRANCH   7  10
BRANCH   8  12
HETATM   12  O   UNL     1     -40.654  53.088 -54.581  1.00  0.00    -0.344 OA
BRANCH  12  13
HETATM   13  C   UNL     1     -40.190  54.361 -55.037  1.00  0.00     0.209 C 
BRANCH  13  14
HETATM   14  C   UNL     1     -41.350  55.319 -55.190  1.00  0.00    -0.069 C 
HETATM   15  C   UNL     1     -42.484  54.854 -56.061  1.00  0.00     0.044 C 
HETATM   16  C   UNL     1     -41.366  56.527 -54.600  1.00  0.00     0.016 C 
ENDBRANCH  13  14
ENDBRANCH  12  13
ENDBRANCH   8  12
ENDBRANCH   3   4
ENDBRANCH   1   3
BRANCH   1  17
HETATM   17  C   UNL     1     -43.044  55.873 -50.744  1.00  0.00     0.009 A 
HETATM   18  C   UNL     1     -41.975  56.739 -51.023  1.00  0.00     0.039 A 
HETATM   19  C   UNL     1     -42.218  58.072 -51.420  1.00  0.00     0.030 A 
HETATM   20  C   UNL     1     -43.529  58.516 -51.505  1.00  0.00     0.063 A 
HETATM   21  C   UNL     1     -41.418  59.199 -51.772  1.00  0.00     0.156 A 
HETATM   22  N   UNL     1     -43.443  59.822 -51.900  1.00  0.00    -0.277 N 
HETATM   23  C   UNL     1     -44.623  57.706 -51.205  1.00  0.00     0.034 A 
HETATM   24  H   UNL     1     -44.209  60.466 -52.063  1.00  0.00     0.189 HD
HETATM   25  N   UNL     1     -42.187  60.271 -52.069  1.00  0.00    -0.168 NA
HETATM   26  C   UNL     1     -44.349  56.390 -50.806  1.00  0.00     0.026 A 
BRANCH  21  27
HETATM   27  C   UNL     1     -39.952  59.268 -51.824  1.00  0.00     0.270 C 
HETATM   28  N   UNL     1     -39.357  59.465 -50.608  1.00  0.00    -0.365 N 
HETATM   29  H   UNL     1     -39.946  59.538 -49.786  1.00  0.00     0.159 HD
HETATM   30  H   UNL     1     -38.353  59.509 -50.542  1.00  0.00     0.159 HD
HETATM   31  O   UNL     1     -39.286  59.160 -52.849  1.00  0.00    -0.266 OA
ENDBRANCH  21  27
ENDBRANCH   1  17
TORSDOF 8
ENDMDL
MODEL 7
REMARK VINA RESULT:      -7.8      3.308      4.536
REMARK  8 active torsions:
REMARK  status: ('A' for Active; 'I' for Inactive)
REMARK    1  A    between atoms: C_2  and  C_3 
REMARK    2  A    between atoms: C_3  and  O_4 
REMARK    3  A    between atoms: O_4  and  C_5 
REMARK    4  A    between atoms: C_6  and  O_7 
REMARK    5  A    between atoms: C_11  and  C_12 
REMARK    6  A    between atoms: C_12  and  N_13 
REMARK    7  A    between atoms: N_13  and  C_14 
REMARK    8  A    between atoms: C_21  and  C_22 
REMARK       I    between atoms: C_22  and  N_23 
ROOT
HETATM    1  N   UNL     1     -42.435  54.287 -55.240  1.00  0.00    -0.289 NA
HETATM    2  H   UNL     1     -42.890  53.710 -55.942  1.00  0.00     0.128 HD
ENDROOT
BRANCH   1   3
HETATM    3  C   UNL     1     -40.982  54.194 -55.311  1.00  0.00     0.131 C 
BRANCH   3   4
HETATM    4  C   UNL     1     -40.493  53.278 -54.213  1.00  0.00    -0.042 A 
HETATM    5  C   UNL     1     -40.121  51.957 -54.490  1.00  0.00     0.011 A 
HETATM    6  C   UNL     1     -39.667  51.117 -53.468  1.00  0.00     0.040 A 
HETATM    7  C   UNL     1     -39.587  51.582 -52.151  1.00  0.00     0.101 A 
HETATM    8  C   UNL     1     -40.000  52.894 -51.861  1.00  0.00     0.102 A 
HETATM    9  C   UNL     1     -40.434  53.736 -52.890  1.00  0.00     0.048 A 
BRANCH   7  10
HETATM   10  O   UNL     1     -39.157  50.832 -51.086  1.00  0.00    -0.353 OA
HETATM   11  C   UNL     1     -39.956  49.720 -50.711  1.00  0.00     0.210 C 
ENDBRANCH   7  10
BRANCH   8  12
HETATM   12  O   UNL     1     -39.869  53.324 -50.565  1.00  0.00    -0.344 OA
BRANCH  12  13
HETATM   13  C   UNL     1     -41.069  53.345 -49.788  1.00  0.00     0.209 C 
BRANCH  13  14
HETATM   14  C   UNL     1     -41.789  54.662 -49.968  1.00  0.00    -0.069 C 
HETATM   15  C   UNL     1     -43.215  54.580 -50.438  1.00  0.00     0.044 C 
HETATM   16  C   UNL     1     -41.190  55.844 -49.743  1.00  0.00     0.016 C 
ENDBRANCH  13  14
ENDBRANCH  12  13
ENDBRANCH   8  12
ENDBRANCH   3   4
ENDBRANCH   1   3
BRANCH   1  17
HETATM   17  C   UNL     1     -43.029  55.551 -55.125  1.00  0.00     0.009 A 
HETATM   18  C   UNL     1     -43.425  56.101 -53.896  1.00  0.00     0.039 A 
HETATM   19  C   UNL     1     -44.099  57.341 -53.851  1.00  0.00     0.030 A 
HETATM   20  C   UNL     1     -44.383  57.992 -55.042  1.00  0.00     0.063 A 
HETATM   21  C   UNL     1     -44.635  58.180 -52.830  1.00  0.00     0.156 A 
HETATM   22  N   UNL     1     -45.031  59.140 -54.681  1.00  0.00    -0.277 N 
HETATM   23  C   UNL     1     -44.042  57.470 -56.289  1.00  0.00     0.034 A 
HETATM   24  H   UNL     1     -45.391  59.861 -55.296  1.00  0.00     0.189 HD
HETATM   25  N   UNL     1     -45.204  59.289 -53.356  1.00  0.00    -0.168 NA
HETATM   26  C   UNL     1     -43.380  56.234 -56.301  1.00  0.00     0.026 A 
BRANCH  21  27
HETATM   27  C   UNL     1     -44.616  57.942 -51.380  1.00  0.00     0.270 C 
HETATM   28  N   UNL     1     -43.508  58.432 -50.747  1.00  0.00    -0.365 N 
HETATM   29  H   UNL     1     -42.807  58.914 -51.298  1.00  0.00     0.159 HD
HETATM   30  H   UNL     1     -43.414  58.331 -49.749  1.00  0.00     0.159 HD
HETATM   31  O   UNL     1     -45.501  57.361 -50.759  1.00  0.00    -0.266 OA
ENDBRANCH  21  27
ENDBRANCH   1  17
TORSDOF 8
ENDMDL
MODEL 8
REMARK VINA RESULT:      -7.8      1.858      2.911
REMARK  8 active torsions:
REMARK  status: ('A' for Active; 'I' for Inactive)
REMARK    1  A    between atoms: C_2  and  C_3 
REMARK    2  A    between atoms: C_3  and  O_4 
REMARK    3  A    between atoms: O_4  and  C_5 
REMARK    4  A    between atoms: C_6  and  O_7 
REMARK    5  A    between atoms: C_11  and  C_12 
REMARK    6  A    between atoms: C_12  and  N_13 
REMARK    7  A    between atoms: N_13  and  C_14 
REMARK    8  A    between atoms: C_21  and  C_22 
REMARK       I    between atoms: C_22  and  N_23 
ROOT
HETATM    1  N   UNL     1     -41.436  54.742 -55.568  1.00  0.00    -0.289 NA
HETATM    2  H   UNL     1     -40.663  55.242 -55.140  1.00  0.00     0.128 HD
ENDROOT
BRANCH   1   3
HETATM    3  C   UNL     1     -42.020  53.757 -54.666  1.00  0.00     0.131 C 
BRANCH   3   4
HETATM    4  C   UNL     1     -41.408  53.921 -53.294  1.00  0.00    -0.042 A 
HETATM    5  C   UNL     1     -40.680  52.882 -52.702  1.00  0.00     0.011 A 
HETATM    6  C   UNL     1     -40.114  53.043 -51.432  1.00  0.00     0.040 A 
HETATM    7  C   UNL     1     -40.276  54.243 -50.732  1.00  0.00     0.101 A 
HETATM    8  C   UNL     1     -41.042  55.273 -51.304  1.00  0.00     0.102 A 
HETATM    9  C   UNL     1     -41.588  55.115 -52.581  1.00  0.00     0.048 A 
BRANCH   7  10
HETATM   10  O   UNL     1     -39.761  54.491 -49.485  1.00  0.00    -0.353 OA
HETATM   11  C   UNL     1     -40.434  53.909 -48.378  1.00  0.00     0.210 C 
ENDBRANCH   7  10
BRANCH   8  12
HETATM   12  O   UNL     1     -41.144  56.448 -50.601  1.00  0.00    -0.344 OA
BRANCH  12  13
HETATM   13  C   UNL     1     -41.778  57.532 -51.284  1.00  0.00     0.209 C 
BRANCH  13  14
HETATM   14  C   UNL     1     -40.758  58.577 -51.672  1.00  0.00    -0.069 C 
HETATM   15  C   UNL     1     -40.309  59.505 -50.577  1.00  0.00     0.044 C 
HETATM   16  C   UNL     1     -40.288  58.691 -52.927  1.00  0.00     0.016 C 
ENDBRANCH  13  14
ENDBRANCH  12  13
ENDBRANCH   8  12
ENDBRANCH   3   4
ENDBRANCH   1   3
BRANCH   1  17
HETATM   17  C   UNL     1     -42.287  55.593 -56.286  1.00  0.00     0.009 A 
HETATM   18  C   UNL     1     -42.951  55.200 -57.458  1.00  0.00     0.039 A 
HETATM   19  C   UNL     1     -43.726  56.128 -58.188  1.00  0.00     0.030 A 
HETATM   20  C   UNL     1     -43.799  57.438 -57.737  1.00  0.00     0.063 A 
HETATM   21  C   UNL     1     -44.512  56.098 -59.378  1.00  0.00     0.156 A 
HETATM   22  N   UNL     1     -44.602  58.085 -58.635  1.00  0.00    -0.277 N 
HETATM   23  C   UNL     1     -43.131  57.885 -56.598  1.00  0.00     0.034 A 
HETATM   24  H   UNL     1     -44.875  59.061 -58.622  1.00  0.00     0.189 HD
HETATM   25  N   UNL     1     -45.049  57.311 -59.640  1.00  0.00    -0.168 NA
HETATM   26  C   UNL     1     -42.364  56.941 -55.900  1.00  0.00     0.026 A 
BRANCH  21  27
HETATM   27  C   UNL     1     -44.750  54.946 -60.257  1.00  0.00     0.270 C 
HETATM   28  N   UNL     1     -45.084  53.796 -59.596  1.00  0.00    -0.365 N 
HETATM   29  H   UNL     1     -45.149  53.820 -58.585  1.00  0.00     0.159 HD
HETATM   30  H   UNL     1     -45.282  52.957 -60.117  1.00  0.00     0.159 HD
HETATM   31  O   UNL     1     -44.671  54.977 -61.481  1.00  0.00    -0.266 OA
ENDBRANCH  21  27
ENDBRANCH   1  17
TORSDOF 8
ENDMDL
MODEL 9
REMARK VINA RESULT:      -7.7      2.806      9.637
REMARK  8 active torsions:
REMARK  status: ('A' for Active; 'I' for Inactive)
REMARK    1  A    between atoms: C_2  and  C_3 
REMARK    2  A    between atoms: C_3  and  O_4 
REMARK    3  A    between atoms: O_4  and  C_5 
REMARK    4  A    between atoms: C_6  and  O_7 
REMARK    5  A    between atoms: C_11  and  C_12 
REMARK    6  A    between atoms: C_12  and  N_13 
REMARK    7  A    between atoms: N_13  and  C_14 
REMARK    8  A    between atoms: C_21  and  C_22 
REMARK       I    between atoms: C_22  and  N_23 
ROOT
HETATM    1  N   UNL     1     -41.357  54.775 -55.713  1.00  0.00    -0.289 NA
HETATM    2  H   UNL     1     -40.747  54.600 -56.506  1.00  0.00     0.128 HD
ENDROOT
BRANCH   1   3
HETATM    3  C   UNL     1     -42.754  54.892 -56.110  1.00  0.00     0.131 C 
BRANCH   3   4
HETATM    4  C   UNL     1     -42.866  55.907 -57.224  1.00  0.00    -0.042 A 
HETATM    5  C   UNL     1     -42.378  57.209 -57.064  1.00  0.00     0.011 A 
HETATM    6  C   UNL     1     -42.484  58.141 -58.102  1.00  0.00     0.040 A 
HETATM    7  C   UNL     1     -43.089  57.788 -59.312  1.00  0.00     0.101 A 
HETATM    8  C   UNL     1     -43.619  56.495 -59.462  1.00  0.00     0.102 A 
HETATM    9  C   UNL     1     -43.493  55.561 -58.429  1.00  0.00     0.048 A 
BRANCH   7  10
HETATM   10  O   UNL     1     -43.240  58.633 -60.382  1.00  0.00    -0.353 OA
HETATM   11  C   UNL     1     -42.064  59.232 -60.906  1.00  0.00     0.210 C 
ENDBRANCH   7  10
BRANCH   8  12
HETATM   12  O   UNL     1     -44.170  56.176 -60.678  1.00  0.00    -0.344 OA
BRANCH  12  13
HETATM   13  C   UNL     1     -45.389  55.432 -60.637  1.00  0.00     0.209 C 
BRANCH  13  14
HETATM   14  C   UNL     1     -46.568  56.362 -60.460  1.00  0.00    -0.069 C 
HETATM   15  C   UNL     1     -47.500  56.481 -61.634  1.00  0.00     0.044 C 
HETATM   16  C   UNL     1     -46.768  57.061 -59.330  1.00  0.00     0.016 C 
ENDBRANCH  13  14
ENDBRANCH  12  13
ENDBRANCH   8  12
ENDBRANCH   3   4
ENDBRANCH   1   3
BRANCH   1  17
HETATM   17  C   UNL     1     -41.031  53.979 -54.607  1.00  0.00     0.009 A 
HETATM   18  C   UNL     1     -41.411  54.300 -53.295  1.00  0.00     0.039 A 
HETATM   19  C   UNL     1     -40.979  53.507 -52.209  1.00  0.00     0.030 A 
HETATM   20  C   UNL     1     -40.153  52.421 -52.462  1.00  0.00     0.063 A 
HETATM   21  C   UNL     1     -41.154  53.522 -50.794  1.00  0.00     0.156 A 
HETATM   22  N   UNL     1     -39.904  51.865 -51.238  1.00  0.00    -0.277 N 
HETATM   23  C   UNL     1     -39.719  52.082 -53.742  1.00  0.00     0.034 A 
HETATM   24  H   UNL     1     -39.333  51.051 -51.039  1.00  0.00     0.189 HD
HETATM   25  N   UNL     1     -40.489  52.501 -50.207  1.00  0.00    -0.168 NA
HETATM   26  C   UNL     1     -40.160  52.894 -54.798  1.00  0.00     0.026 A 
BRANCH  21  27
HETATM   27  C   UNL     1     -41.933  54.484 -50.004  1.00  0.00     0.270 C 
HETATM   28  N   UNL     1     -41.192  55.201 -49.105  1.00  0.00    -0.365 N 
HETATM   29  H   UNL     1     -40.193  55.031 -49.055  1.00  0.00     0.159 HD
HETATM   30  H   UNL     1     -41.636  55.898 -48.530  1.00  0.00     0.159 HD
HETATM   31  O   UNL     1     -43.142  54.660 -50.116  1.00  0.00    -0.266 OA
ENDBRANCH  21  27
ENDBRANCH   1  17
TORSDOF 8
ENDMDL
MODEL 10
REMARK VINA RESULT:      -7.7      3.981      8.113
REMARK  8 active torsions:
REMARK  status: ('A' for Active; 'I' for Inactive)
REMARK    1  A    between atoms: C_2  and  C_3 
REMARK    2  A    between atoms: C_3  and  O_4 
REMARK    3  A    between atoms: O_4  and  C_5 
REMARK    4  A    between atoms: C_6  and  O_7 
REMARK    5  A    between atoms: C_11  and  C_12 
REMARK    6  A    between atoms: C_12  and  N_13 
REMARK    7  A    between atoms: N_13  and  C_14 
REMARK    8  A    between atoms: C_21  and  C_22 
REMARK       I    between atoms: C_22  and  N_23 
ROOT
HETATM    1  N   UNL     1     -40.891  55.090 -55.204  1.00  0.00    -0.289 NA
HETATM    2  H   UNL     1     -40.282  55.010 -56.013  1.00  0.00     0.128 HD
ENDROOT
BRANCH   1   3
HETATM    3  C   UNL     1     -42.259  55.426 -55.577  1.00  0.00     0.131 C 
BRANCH   3   4
HETATM    4  C   UNL     1     -42.625  56.758 -54.965  1.00  0.00    -0.042 A 
HETATM    5  C   UNL     1     -43.948  57.212 -54.966  1.00  0.00     0.011 A 
HETATM    6  C   UNL     1     -44.278  58.447 -54.396  1.00  0.00     0.040 A 
HETATM    7  C   UNL     1     -43.287  59.250 -53.824  1.00  0.00     0.101 A 
HETATM    8  C   UNL     1     -41.950  58.818 -53.858  1.00  0.00     0.102 A 
HETATM    9  C   UNL     1     -41.628  57.574 -54.412  1.00  0.00     0.048 A 
BRANCH   7  10
HETATM   10  O   UNL     1     -43.514  60.472 -53.244  1.00  0.00    -0.353 OA
HETATM   11  C   UNL     1     -44.358  60.502 -52.102  1.00  0.00     0.210 C 
ENDBRANCH   7  10
BRANCH   8  12
HETATM   12  O   UNL     1     -41.013  59.617 -53.252  1.00  0.00    -0.344 OA
BRANCH  12  13
HETATM   13  C   UNL     1     -40.121  58.960 -52.348  1.00  0.00     0.209 C 
BRANCH  13  14
HETATM   14  C   UNL     1     -40.802  58.716 -51.021  1.00  0.00    -0.069 C 
HETATM   15  C   UNL     1     -41.187  59.941 -50.238  1.00  0.00     0.044 C 
HETATM   16  C   UNL     1     -41.036  57.479 -50.551  1.00  0.00     0.016 C 
ENDBRANCH  13  14
ENDBRANCH  12  13
ENDBRANCH   8  12
ENDBRANCH   3   4
ENDBRANCH   1   3
BRANCH   1  17
HETATM   17  C   UNL     1     -40.673  54.067 -54.272  1.00  0.00     0.009 A 
HETATM   18  C   UNL     1     -40.895  54.225 -52.895  1.00  0.00     0.039 A 
HETATM   19  C   UNL     1     -40.574  53.187 -51.994  1.00  0.00     0.030 A 
HETATM   20  C   UNL     1     -40.015  52.019 -52.491  1.00  0.00     0.063 A 
HETATM   21  C   UNL     1     -40.654  52.992 -50.583  1.00  0.00     0.156 A 
HETATM   22  N   UNL     1     -39.815  51.221 -51.399  1.00  0.00    -0.277 N 
HETATM   23  C   UNL     1     -39.744  51.826 -53.845  1.00  0.00     0.034 A 
HETATM   24  H   UNL     1     -39.418  50.288 -51.386  1.00  0.00     0.189 HD
HETATM   25  N   UNL     1     -40.186  51.773 -50.230  1.00  0.00    -0.168 NA
HETATM   26  C   UNL     1     -40.067  52.879 -54.713  1.00  0.00     0.026 A 
BRANCH  21  27
HETATM   27  C   UNL     1     -41.160  53.939 -49.581  1.00  0.00     0.270 C 
HETATM   28  N   UNL     1     -40.221  54.351 -48.676  1.00  0.00    -0.365 N 
HETATM   29  H   UNL     1     -39.276  53.994 -48.761  1.00  0.00     0.159 HD
HETATM   30  H   UNL     1     -40.471  55.014 -47.960  1.00  0.00     0.159 HD
HETATM   31  O   UNL     1     -42.315  54.349 -49.532  1.00  0.00    -0.266 OA
ENDBRANCH  21  27
ENDBRANCH   1  17
TORSDOF 8
ENDMDL
