MODEL 1
REMARK VINA RESULT:      -8.3      0.000      0.000
REMARK  4 active torsions:
REMARK  status: ('A' for Active; 'I' for Inactive)
REMARK    1  A    between atoms: C_8  and  C_9 
REMARK    2  A    between atoms: C_12  and  N_13 
REMARK       I    between atoms: N_13  and  C_14 
REMARK    3  A    between atoms: C_14  and  C_15 
REMARK    4  A    between atoms: C_18  and  N_19 
ROOT
HETATM    1  C   UNL     1     -32.435  39.716 -49.258  1.00  0.00     0.010 A 
HETATM    2  C   UNL     1     -33.812  39.642 -49.497  1.00  0.00     0.017 A 
HETATM    3  C   UNL     1     -34.334  39.863 -50.781  1.00  0.00     0.030 A 
HETATM    4  C   UNL     1     -33.489  40.158 -51.851  1.00  0.00     0.035 A 
HETATM    5  C   UNL     1     -32.119  40.286 -51.608  1.00  0.00     0.030 A 
HETATM    6  C   UNL     1     -31.599  40.069 -50.326  1.00  0.00     0.017 A 
ENDROOT
BRANCH   4   7
HETATM    7  N   UNL     1     -33.920  40.285 -53.190  1.00  0.00    -0.323 N 
HETATM    8  C   UNL     1     -34.921  41.111 -53.671  1.00  0.00     0.256 C 
HETATM    9  O   UNL     1     -35.529  41.968 -53.040  1.00  0.00    -0.267 OA
HETATM   10  H   UNL     1     -33.534  39.602 -53.827  1.00  0.00     0.169 HD
BRANCH   8  11
HETATM   11  C   UNL     1     -35.327  40.857 -55.084  1.00  0.00     0.032 A 
HETATM   12  C   UNL     1     -34.735  41.496 -56.172  1.00  0.00     0.019 A 
HETATM   13  C   UNL     1     -35.114  41.156 -57.482  1.00  0.00     0.031 A 
HETATM   14  C   UNL     1     -36.094  40.181 -57.745  1.00  0.00     0.045 A 
HETATM   15  C   UNL     1     -36.705  39.584 -56.630  1.00  0.00     0.031 A 
HETATM   16  C   UNL     1     -36.331  39.918 -55.320  1.00  0.00     0.019 A 
BRANCH  14  17
HETATM   17  N   UNL     1     -36.443  39.806 -59.084  1.00  0.00    -0.252 N 
HETATM   18  C   UNL     1     -36.123  38.596 -59.666  1.00  0.00     0.231 C 
HETATM   19  O   UNL     1     -35.573  37.618 -59.180  1.00  0.00    -0.273 OA
HETATM   20  C   UNL     1     -36.557  38.611 -61.101  1.00  0.00     0.113 C 
HETATM   21  C   UNL     1     -37.480  39.795 -61.188  1.00  0.00     0.113 C 
HETATM   22  C   UNL     1     -37.170  40.589 -59.956  1.00  0.00     0.231 C 
HETATM   23  O   UNL     1     -37.558  41.743 -59.832  1.00  0.00    -0.273 OA
ENDBRANCH  14  17
ENDBRANCH   8  11
ENDBRANCH   4   7
BRANCH   1  24
HETATM   24  C   UNL     1     -31.833  39.395 -47.959  1.00  0.00     0.139 A 
HETATM   25  N   UNL     1     -30.779  40.081 -47.395  1.00  0.00    -0.338 N 
HETATM   26  C   UNL     1     -30.553  39.596 -46.134  1.00  0.00     0.063 A 
HETATM   27  H   UNL     1     -30.288  40.855 -47.817  1.00  0.00     0.167 HD
HETATM   28  C   UNL     1     -31.484  38.578 -45.992  1.00  0.00     0.086 A 
HETATM   29  C   UNL     1     -29.652  39.957 -45.132  1.00  0.00     0.032 A 
HETATM   30  C   UNL     1     -31.538  37.859 -44.789  1.00  0.00     0.040 A 
HETATM   31  N   UNL     1     -32.252  38.459 -47.123  1.00  0.00    -0.228 NA
HETATM   32  C   UNL     1     -30.647  38.192 -43.753  1.00  0.00    -0.060 A 
HETATM   33  C   UNL     1     -30.709  37.469 -42.439  1.00  0.00     0.048 C 
HETATM   34  C   UNL     1     -29.725  39.235 -43.933  1.00  0.00     0.009 A 
ENDBRANCH   1  24
TORSDOF 4
ENDMDL
MODEL 2
REMARK VINA RESULT:      -8.2      3.673     12.858
REMARK  4 active torsions:
REMARK  status: ('A' for Active; 'I' for Inactive)
REMARK    1  A    between atoms: C_8  and  C_9 
REMARK    2  A    between atoms: C_12  and  N_13 
REMARK       I    between atoms: N_13  and  C_14 
REMARK    3  A    between atoms: C_14  and  C_15 
REMARK    4  A    between atoms: C_18  and  N_19 
ROOT
HETATM    1  C   UNL     1     -33.851  40.374 -53.260  1.00  0.00     0.010 A 
HETATM    2  C   UNL     1     -32.708  39.567 -53.279  1.00  0.00     0.017 A 
HETATM    3  C   UNL     1     -31.977  39.325 -52.106  1.00  0.00     0.030 A 
HETATM    4  C   UNL     1     -32.376  39.882 -50.890  1.00  0.00     0.035 A 
HETATM    5  C   UNL     1     -33.485  40.731 -50.875  1.00  0.00     0.030 A 
HETATM    6  C   UNL     1     -34.212  40.975 -52.047  1.00  0.00     0.017 A 
ENDROOT
BRANCH   4   7
HETATM    7  N   UNL     1     -31.764  39.600 -49.650  1.00  0.00    -0.323 N 
HETATM    8  C   UNL     1     -32.316  38.916 -48.581  1.00  0.00     0.256 C 
HETATM    9  O   UNL     1     -33.391  38.328 -48.566  1.00  0.00    -0.267 OA
HETATM   10  H   UNL     1     -30.878  40.063 -49.498  1.00  0.00     0.169 HD
BRANCH   8  11
HETATM   11  C   UNL     1     -31.532  38.981 -47.314  1.00  0.00     0.032 A 
HETATM   12  C   UNL     1     -31.969  38.413 -46.119  1.00  0.00     0.019 A 
HETATM   13  C   UNL     1     -31.147  38.448 -44.979  1.00  0.00     0.031 A 
HETATM   14  C   UNL     1     -29.877  39.053 -44.994  1.00  0.00     0.045 A 
HETATM   15  C   UNL     1     -29.480  39.656 -46.199  1.00  0.00     0.031 A 
HETATM   16  C   UNL     1     -30.294  39.624 -47.340  1.00  0.00     0.019 A 
BRANCH  14  17
HETATM   17  N   UNL     1     -29.024  39.044 -43.842  1.00  0.00    -0.252 N 
HETATM   18  C   UNL     1     -28.645  40.170 -43.139  1.00  0.00     0.231 C 
HETATM   19  O   UNL     1     -28.988  41.334 -43.290  1.00  0.00    -0.273 OA
HETATM   20  C   UNL     1     -27.669  39.778 -42.072  1.00  0.00     0.113 C 
HETATM   21  C   UNL     1     -27.802  38.283 -41.989  1.00  0.00     0.113 C 
HETATM   22  C   UNL     1     -28.493  37.909 -43.265  1.00  0.00     0.231 C 
HETATM   23  O   UNL     1     -28.537  36.746 -43.644  1.00  0.00    -0.273 OA
ENDBRANCH  14  17
ENDBRANCH   8  11
ENDBRANCH   4   7
BRANCH   1  24
HETATM   24  C   UNL     1     -34.705  40.576 -54.436  1.00  0.00     0.139 A 
HETATM   25  N   UNL     1     -36.028  40.198 -54.516  1.00  0.00    -0.338 N 
HETATM   26  C   UNL     1     -36.550  40.644 -55.702  1.00  0.00     0.063 A 
HETATM   27  H   UNL     1     -36.547  39.721 -53.795  1.00  0.00     0.167 HD
HETATM   28  C   UNL     1     -35.480  41.262 -56.330  1.00  0.00     0.086 A 
HETATM   29  C   UNL     1     -37.828  40.574 -56.255  1.00  0.00     0.032 A 
HETATM   30  C   UNL     1     -35.668  41.850 -57.589  1.00  0.00     0.040 A 
HETATM   31  N   UNL     1     -34.353  41.200 -55.548  1.00  0.00    -0.228 NA
HETATM   32  C   UNL     1     -36.943  41.802 -58.182  1.00  0.00    -0.060 A 
HETATM   33  C   UNL     1     -37.186  42.460 -59.509  1.00  0.00     0.048 C 
HETATM   34  C   UNL     1     -38.003  41.174 -57.509  1.00  0.00     0.009 A 
ENDBRANCH   1  24
TORSDOF 4
ENDMDL
MODEL 3
REMARK VINA RESULT:      -8.0     17.885     23.140
REMARK  4 active torsions:
REMARK  status: ('A' for Active; 'I' for Inactive)
REMARK    1  A    between atoms: C_8  and  C_9 
REMARK    2  A    between atoms: C_12  and  N_13 
REMARK       I    between atoms: N_13  and  C_14 
REMARK    3  A    between atoms: C_14  and  C_15 
REMARK    4  A    between atoms: C_18  and  N_19 
ROOT
HETATM    1  C   UNL     1     -45.262  58.267 -59.761  1.00  0.00     0.010 A 
HETATM    2  C   UNL     1     -44.381  57.294 -60.248  1.00  0.00     0.017 A 
HETATM    3  C   UNL     1     -43.676  56.456 -59.371  1.00  0.00     0.030 A 
HETATM    4  C   UNL     1     -43.840  56.571 -57.991  1.00  0.00     0.035 A 
HETATM    5  C   UNL     1     -44.676  57.575 -57.497  1.00  0.00     0.030 A 
HETATM    6  C   UNL     1     -45.377  58.414 -58.372  1.00  0.00     0.017 A 
ENDROOT
BRANCH   4   7
HETATM    7  N   UNL     1     -43.255  55.698 -57.048  1.00  0.00    -0.323 N 
HETATM    8  C   UNL     1     -42.283  56.009 -56.112  1.00  0.00     0.256 C 
HETATM    9  O   UNL     1     -41.844  57.124 -55.855  1.00  0.00    -0.267 OA
HETATM   10  H   UNL     1     -43.490  54.723 -57.168  1.00  0.00     0.169 HD
BRANCH   8  11
HETATM   11  C   UNL     1     -41.677  54.836 -55.416  1.00  0.00     0.032 A 
HETATM   12  C   UNL     1     -40.305  54.695 -55.217  1.00  0.00     0.019 A 
HETATM   13  C   UNL     1     -39.807  53.601 -54.488  1.00  0.00     0.031 A 
HETATM   14  C   UNL     1     -40.655  52.618 -53.945  1.00  0.00     0.045 A 
HETATM   15  C   UNL     1     -42.029  52.763 -54.197  1.00  0.00     0.031 A 
HETATM   16  C   UNL     1     -42.534  53.851 -54.922  1.00  0.00     0.019 A 
BRANCH  14  17
HETATM   17  N   UNL     1     -40.144  51.531 -53.163  1.00  0.00    -0.252 N 
HETATM   18  C   UNL     1     -39.827  51.612 -51.822  1.00  0.00     0.231 C 
HETATM   19  O   UNL     1     -39.970  52.544 -51.042  1.00  0.00    -0.273 OA
HETATM   20  C   UNL     1     -39.224  50.313 -51.380  1.00  0.00     0.113 C 
HETATM   21  C   UNL     1     -39.560  49.359 -52.493  1.00  0.00     0.113 C 
HETATM   22  C   UNL     1     -39.930  50.253 -53.637  1.00  0.00     0.231 C 
HETATM   23  O   UNL     1     -40.018  49.818 -54.777  1.00  0.00    -0.273 OA
ENDBRANCH  14  17
ENDBRANCH   8  11
ENDBRANCH   4   7
BRANCH   1  24
HETATM   24  C   UNL     1     -46.097  59.098 -60.636  1.00  0.00     0.139 A 
HETATM   25  N   UNL     1     -47.091  58.613 -61.459  1.00  0.00    -0.338 N 
HETATM   26  C   UNL     1     -47.745  59.668 -62.039  1.00  0.00     0.063 A 
HETATM   27  H   UNL     1     -47.338  57.642 -61.573  1.00  0.00     0.167 HD
HETATM   28  C   UNL     1     -47.078  60.785 -61.558  1.00  0.00     0.086 A 
HETATM   29  C   UNL     1     -48.838  59.740 -62.903  1.00  0.00     0.032 A 
HETATM   30  C   UNL     1     -47.502  62.061 -61.952  1.00  0.00     0.040 A 
HETATM   31  N   UNL     1     -46.062  60.418 -60.711  1.00  0.00    -0.228 NA
HETATM   32  C   UNL     1     -48.600  62.178 -62.823  1.00  0.00    -0.060 A 
HETATM   33  C   UNL     1     -49.105  63.533 -63.229  1.00  0.00     0.048 C 
HETATM   34  C   UNL     1     -49.255  61.023 -63.280  1.00  0.00     0.009 A 
ENDBRANCH   1  24
TORSDOF 4
ENDMDL
MODEL 4
REMARK VINA RESULT:      -7.7     18.897     24.352
REMARK  4 active torsions:
REMARK  status: ('A' for Active; 'I' for Inactive)
REMARK    1  A    between atoms: C_8  and  C_9 
REMARK    2  A    between atoms: C_12  and  N_13 
REMARK       I    between atoms: N_13  and  C_14 
REMARK    3  A    between atoms: C_14  and  C_15 
REMARK    4  A    between atoms: C_18  and  N_19 
ROOT
HETATM    1  C   UNL     1     -46.554  58.500 -59.767  1.00  0.00     0.010 A 
HETATM    2  C   UNL     1     -45.217  58.252 -60.096  1.00  0.00     0.017 A 
HETATM    3  C   UNL     1     -44.300  57.835 -59.119  1.00  0.00     0.030 A 
HETATM    4  C   UNL     1     -44.703  57.653 -57.796  1.00  0.00     0.035 A 
HETATM    5  C   UNL     1     -46.023  57.951 -57.452  1.00  0.00     0.030 A 
HETATM    6  C   UNL     1     -46.937  58.371 -58.426  1.00  0.00     0.017 A 
ENDROOT
BRANCH   4   7
HETATM    7  N   UNL     1     -43.874  57.131 -56.780  1.00  0.00    -0.323 N 
HETATM    8  C   UNL     1     -43.239  55.901 -56.768  1.00  0.00     0.256 C 
HETATM    9  O   UNL     1     -43.185  55.097 -57.691  1.00  0.00    -0.267 OA
HETATM   10  H   UNL     1     -43.856  57.671 -55.926  1.00  0.00     0.169 HD
BRANCH   8  11
HETATM   11  C   UNL     1     -42.630  55.515 -55.462  1.00  0.00     0.032 A 
HETATM   12  C   UNL     1     -41.366  55.939 -55.057  1.00  0.00     0.019 A 
HETATM   13  C   UNL     1     -40.882  55.599 -53.782  1.00  0.00     0.031 A 
HETATM   14  C   UNL     1     -41.636  54.824 -52.881  1.00  0.00     0.045 A 
HETATM   15  C   UNL     1     -42.888  54.374 -53.331  1.00  0.00     0.031 A 
HETATM   16  C   UNL     1     -43.377  54.710 -54.601  1.00  0.00     0.019 A 
BRANCH  14  17
HETATM   17  N   UNL     1     -41.157  54.520 -51.564  1.00  0.00    -0.252 N 
HETATM   18  C   UNL     1     -41.421  55.277 -50.441  1.00  0.00     0.231 C 
HETATM   19  O   UNL     1     -42.131  56.264 -50.315  1.00  0.00    -0.273 OA
HETATM   20  C   UNL     1     -40.665  54.709 -49.277  1.00  0.00     0.113 C 
HETATM   21  C   UNL     1     -40.237  53.348 -49.752  1.00  0.00     0.113 C 
HETATM   22  C   UNL     1     -40.396  53.416 -51.240  1.00  0.00     0.231 C 
HETATM   23  O   UNL     1     -39.900  52.567 -51.969  1.00  0.00    -0.273 OA
ENDBRANCH  14  17
ENDBRANCH   8  11
ENDBRANCH   4   7
BRANCH   1  24
HETATM   24  C   UNL     1     -47.572  58.841 -60.769  1.00  0.00     0.139 A 
HETATM   25  N   UNL     1     -47.779  58.144 -61.940  1.00  0.00    -0.338 N 
HETATM   26  C   UNL     1     -48.880  58.657 -62.576  1.00  0.00     0.063 A 
HETATM   27  H   UNL     1     -47.246  57.348 -62.252  1.00  0.00     0.167 HD
HETATM   28  C   UNL     1     -49.287  59.700 -61.758  1.00  0.00     0.086 A 
HETATM   29  C   UNL     1     -49.541  58.301 -63.751  1.00  0.00     0.032 A 
HETATM   30  C   UNL     1     -50.415  60.452 -62.113  1.00  0.00     0.040 A 
HETATM   31  N   UNL     1     -48.467  59.808 -60.661  1.00  0.00    -0.228 NA
HETATM   32  C   UNL     1     -51.111  60.125 -63.291  1.00  0.00    -0.060 A 
HETATM   33  C   UNL     1     -52.348  60.884 -63.675  1.00  0.00     0.048 C 
HETATM   34  C   UNL     1     -50.672  59.056 -64.087  1.00  0.00     0.009 A 
ENDBRANCH   1  24
TORSDOF 4
ENDMDL
MODEL 5
REMARK VINA RESULT:      -7.7      3.154     12.490
REMARK  4 active torsions:
REMARK  status: ('A' for Active; 'I' for Inactive)
REMARK    1  A    between atoms: C_8  and  C_9 
REMARK    2  A    between atoms: C_12  and  N_13 
REMARK       I    between atoms: N_13  and  C_14 
REMARK    3  A    between atoms: C_14  and  C_15 
REMARK    4  A    between atoms: C_18  and  N_19 
ROOT
HETATM    1  C   UNL     1     -35.387  39.967 -54.576  1.00  0.00     0.010 A 
HETATM    2  C   UNL     1     -35.108  41.038 -53.719  1.00  0.00     0.017 A 
HETATM    3  C   UNL     1     -34.475  40.826 -52.484  1.00  0.00     0.030 A 
HETATM    4  C   UNL     1     -34.105  39.542 -52.085  1.00  0.00     0.035 A 
HETATM    5  C   UNL     1     -34.429  38.464 -52.913  1.00  0.00     0.030 A 
HETATM    6  C   UNL     1     -35.064  38.675 -54.143  1.00  0.00     0.017 A 
ENDROOT
BRANCH   4   7
HETATM    7  N   UNL     1     -33.369  39.257 -50.915  1.00  0.00    -0.323 N 
HETATM    8  C   UNL     1     -33.874  38.924 -49.670  1.00  0.00     0.256 C 
HETATM    9  O   UNL     1     -35.046  38.699 -49.392  1.00  0.00    -0.267 OA
HETATM   10  H   UNL     1     -32.378  39.444 -50.979  1.00  0.00     0.169 HD
BRANCH   8  11
HETATM   11  C   UNL     1     -32.875  38.918 -48.562  1.00  0.00     0.032 A 
HETATM   12  C   UNL     1     -32.935  38.032 -47.487  1.00  0.00     0.019 A 
HETATM   13  C   UNL     1     -31.920  38.032 -46.516  1.00  0.00     0.031 A 
HETATM   14  C   UNL     1     -30.825  38.913 -46.580  1.00  0.00     0.045 A 
HETATM   15  C   UNL     1     -30.812  39.824 -47.649  1.00  0.00     0.031 A 
HETATM   16  C   UNL     1     -31.821  39.830 -48.623  1.00  0.00     0.019 A 
BRANCH  14  17
HETATM   17  N   UNL     1     -29.769  38.876 -45.611  1.00  0.00    -0.252 N 
HETATM   18  C   UNL     1     -28.684  38.025 -45.668  1.00  0.00     0.231 C 
HETATM   19  O   UNL     1     -28.369  37.221 -46.534  1.00  0.00    -0.273 OA
HETATM   20  C   UNL     1     -27.856  38.202 -44.432  1.00  0.00     0.113 C 
HETATM   21  C   UNL     1     -28.361  39.487 -43.836  1.00  0.00     0.113 C 
HETATM   22  C   UNL     1     -29.681  39.705 -44.512  1.00  0.00     0.231 C 
HETATM   23  O   UNL     1     -30.482  40.526 -44.086  1.00  0.00    -0.273 OA
ENDBRANCH  14  17
ENDBRANCH   8  11
ENDBRANCH   4   7
BRANCH   1  24
HETATM   24  C   UNL     1     -35.955  40.147 -55.918  1.00  0.00     0.139 A 
HETATM   25  N   UNL     1     -36.253  41.368 -56.483  1.00  0.00    -0.338 N 
HETATM   26  C   UNL     1     -36.650  41.175 -57.780  1.00  0.00     0.063 A 
HETATM   27  H   UNL     1     -36.142  42.265 -56.036  1.00  0.00     0.167 HD
HETATM   28  C   UNL     1     -36.610  39.799 -57.944  1.00  0.00     0.086 A 
HETATM   29  C   UNL     1     -37.014  42.058 -58.796  1.00  0.00     0.032 A 
HETATM   30  C   UNL     1     -36.955  39.244 -59.185  1.00  0.00     0.040 A 
HETATM   31  N   UNL     1     -36.195  39.182 -56.790  1.00  0.00    -0.228 NA
HETATM   32  C   UNL     1     -37.328  40.101 -60.236  1.00  0.00    -0.060 A 
HETATM   33  C   UNL     1     -37.662  39.540 -61.589  1.00  0.00     0.048 C 
HETATM   34  C   UNL     1     -37.348  41.490 -60.032  1.00  0.00     0.009 A 
ENDBRANCH   1  24
TORSDOF 4
ENDMDL
MODEL 6
REMARK VINA RESULT:      -7.3     26.623     27.914
REMARK  4 active torsions:
REMARK  status: ('A' for Active; 'I' for Inactive)
REMARK    1  A    between atoms: C_8  and  C_9 
REMARK    2  A    between atoms: C_12  and  N_13 
REMARK       I    between atoms: N_13  and  C_14 
REMARK    3  A    between atoms: C_14  and  C_15 
REMARK    4  A    between atoms: C_18  and  N_19 
ROOT
HETATM    1  C   UNL     1     -47.320  63.397 -48.006  1.00  0.00     0.010 A 
HETATM    2  C   UNL     1     -48.591  63.980 -47.960  1.00  0.00     0.017 A 
HETATM    3  C   UNL     1     -49.397  64.044 -49.107  1.00  0.00     0.030 A 
HETATM    4  C   UNL     1     -48.950  63.522 -50.321  1.00  0.00     0.035 A 
HETATM    5  C   UNL     1     -47.661  62.987 -50.385  1.00  0.00     0.030 A 
HETATM    6  C   UNL     1     -46.855  62.928 -49.242  1.00  0.00     0.017 A 
ENDROOT
BRANCH   4   7
HETATM    7  N   UNL     1     -49.738  63.446 -51.489  1.00  0.00    -0.323 N 
HETATM    8  C   UNL     1     -51.102  63.219 -51.564  1.00  0.00     0.256 C 
HETATM    9  O   UNL     1     -51.887  63.163 -50.626  1.00  0.00    -0.267 OA
HETATM   10  H   UNL     1     -49.216  63.432 -52.354  1.00  0.00     0.169 HD
BRANCH   8  11
HETATM   11  C   UNL     1     -51.623  62.946 -52.935  1.00  0.00     0.032 A 
HETATM   12  C   UNL     1     -50.829  62.447 -53.966  1.00  0.00     0.019 A 
HETATM   13  C   UNL     1     -51.400  62.143 -55.213  1.00  0.00     0.031 A 
HETATM   14  C   UNL     1     -52.771  62.332 -55.472  1.00  0.00     0.045 A 
HETATM   15  C   UNL     1     -53.539  62.876 -54.430  1.00  0.00     0.031 A 
HETATM   16  C   UNL     1     -52.976  63.181 -53.182  1.00  0.00     0.019 A 
BRANCH  14  17
HETATM   17  N   UNL     1     -53.357  61.976 -56.731  1.00  0.00    -0.252 N 
HETATM   18  C   UNL     1     -53.587  62.860 -57.765  1.00  0.00     0.231 C 
HETATM   19  O   UNL     1     -53.296  64.044 -57.858  1.00  0.00    -0.273 OA
HETATM   20  C   UNL     1     -54.308  62.148 -58.869  1.00  0.00     0.113 C 
HETATM   21  C   UNL     1     -54.146  60.692 -58.529  1.00  0.00     0.113 C 
HETATM   22  C   UNL     1     -53.740  60.700 -57.087  1.00  0.00     0.231 C 
HETATM   23  O   UNL     1     -53.767  59.676 -56.417  1.00  0.00    -0.273 OA
ENDBRANCH  14  17
ENDBRANCH   8  11
ENDBRANCH   4   7
BRANCH   1  24
HETATM   24  C   UNL     1     -46.481  63.217 -46.815  1.00  0.00     0.139 A 
HETATM   25  N   UNL     1     -45.945  62.013 -46.412  1.00  0.00    -0.338 N 
HETATM   26  C   UNL     1     -45.121  62.227 -45.338  1.00  0.00     0.063 A 
HETATM   27  H   UNL     1     -46.088  61.124 -46.866  1.00  0.00     0.167 HD
HETATM   28  C   UNL     1     -45.222  63.591 -45.103  1.00  0.00     0.086 A 
HETATM   29  C   UNL     1     -44.312  61.377 -44.585  1.00  0.00     0.032 A 
HETATM   30  C   UNL     1     -44.484  64.164 -44.057  1.00  0.00     0.040 A 
HETATM   31  N   UNL     1     -46.069  64.180 -46.008  1.00  0.00    -0.228 NA
HETATM   32  C   UNL     1     -43.655  63.340 -43.274  1.00  0.00    -0.060 A 
HETATM   33  C   UNL     1     -42.821  63.931 -42.175  1.00  0.00     0.048 C 
HETATM   34  C   UNL     1     -43.575  61.966 -43.550  1.00  0.00     0.009 A 
ENDBRANCH   1  24
TORSDOF 4
ENDMDL
MODEL 7
REMARK VINA RESULT:      -7.3     18.697     21.088
REMARK  4 active torsions:
REMARK  status: ('A' for Active; 'I' for Inactive)
REMARK    1  A    between atoms: C_8  and  C_9 
REMARK    2  A    between atoms: C_12  and  N_13 
REMARK       I    between atoms: N_13  and  C_14 
REMARK    3  A    between atoms: C_14  and  C_15 
REMARK    4  A    between atoms: C_18  and  N_19 
ROOT
HETATM    1  C   UNL     1     -41.853  55.402 -55.090  1.00  0.00     0.010 A 
HETATM    2  C   UNL     1     -42.474  54.940 -56.256  1.00  0.00     0.017 A 
HETATM    3  C   UNL     1     -42.894  55.835 -57.252  1.00  0.00     0.030 A 
HETATM    4  C   UNL     1     -42.697  57.208 -57.104  1.00  0.00     0.035 A 
HETATM    5  C   UNL     1     -42.127  57.679 -55.919  1.00  0.00     0.030 A 
HETATM    6  C   UNL     1     -41.712  56.786 -54.923  1.00  0.00     0.017 A 
ENDROOT
BRANCH   4   7
HETATM    7  N   UNL     1     -42.988  58.162 -58.103  1.00  0.00    -0.323 N 
HETATM    8  C   UNL     1     -42.347  58.321 -59.320  1.00  0.00     0.256 C 
HETATM    9  O   UNL     1     -41.492  57.584 -59.798  1.00  0.00    -0.267 OA
HETATM   10  H   UNL     1     -43.651  58.875 -57.830  1.00  0.00     0.169 HD
BRANCH   8  11
HETATM   11  C   UNL     1     -42.702  59.563 -60.065  1.00  0.00     0.032 A 
HETATM   12  C   UNL     1     -41.931  60.723 -60.022  1.00  0.00     0.019 A 
HETATM   13  C   UNL     1     -42.284  61.834 -60.807  1.00  0.00     0.031 A 
HETATM   14  C   UNL     1     -43.413  61.825 -61.648  1.00  0.00     0.045 A 
HETATM   15  C   UNL     1     -44.196  60.660 -61.639  1.00  0.00     0.031 A 
HETATM   16  C   UNL     1     -43.850  59.547 -60.859  1.00  0.00     0.019 A 
BRANCH  14  17
HETATM   17  N   UNL     1     -43.741  62.945 -62.482  1.00  0.00    -0.252 N 
HETATM   18  C   UNL     1     -44.831  63.769 -62.292  1.00  0.00     0.231 C 
HETATM   19  O   UNL     1     -45.659  63.772 -61.392  1.00  0.00    -0.273 OA
HETATM   20  C   UNL     1     -44.904  64.754 -63.419  1.00  0.00     0.113 C 
HETATM   21  C   UNL     1     -43.555  64.657 -64.075  1.00  0.00     0.113 C 
HETATM   22  C   UNL     1     -42.996  63.364 -63.564  1.00  0.00     0.231 C 
HETATM   23  O   UNL     1     -42.017  62.847 -64.087  1.00  0.00    -0.273 OA
ENDBRANCH  14  17
ENDBRANCH   8  11
ENDBRANCH   4   7
BRANCH   1  24
HETATM   24  C   UNL     1     -41.308  54.502 -54.066  1.00  0.00     0.139 A 
HETATM   25  N   UNL     1     -41.361  54.739 -52.710  1.00  0.00    -0.338 N 
HETATM   26  C   UNL     1     -40.870  53.645 -52.046  1.00  0.00     0.063 A 
HETATM   27  H   UNL     1     -41.750  55.559 -52.271  1.00  0.00     0.167 HD
HETATM   28  C   UNL     1     -40.494  52.776 -53.059  1.00  0.00     0.086 A 
HETATM   29  C   UNL     1     -40.740  53.345 -50.690  1.00  0.00     0.032 A 
HETATM   30  C   UNL     1     -39.949  51.528 -52.727  1.00  0.00     0.040 A 
HETATM   31  N   UNL     1     -40.757  53.321 -54.291  1.00  0.00    -0.228 NA
HETATM   32  C   UNL     1     -39.801  51.186 -51.370  1.00  0.00    -0.060 A 
HETATM   33  C   UNL     1     -39.260  49.840 -50.983  1.00  0.00     0.048 C 
HETATM   34  C   UNL     1     -40.202  52.090 -50.374  1.00  0.00     0.009 A 
ENDBRANCH   1  24
TORSDOF 4
ENDMDL
MODEL 8
REMARK VINA RESULT:      -7.3     18.557     23.761
REMARK  4 active torsions:
REMARK  status: ('A' for Active; 'I' for Inactive)
REMARK    1  A    between atoms: C_8  and  C_9 
REMARK    2  A    between atoms: C_12  and  N_13 
REMARK       I    between atoms: N_13  and  C_14 
REMARK    3  A    between atoms: C_14  and  C_15 
REMARK    4  A    between atoms: C_18  and  N_19 
ROOT
HETATM    1  C   UNL     1     -46.309  58.642 -59.332  1.00  0.00     0.010 A 
HETATM    2  C   UNL     1     -45.096  58.049 -59.699  1.00  0.00     0.017 A 
HETATM    3  C   UNL     1     -44.308  57.375 -58.752  1.00  0.00     0.030 A 
HETATM    4  C   UNL     1     -44.720  57.277 -57.423  1.00  0.00     0.035 A 
HETATM    5  C   UNL     1     -45.904  57.913 -57.041  1.00  0.00     0.030 A 
HETATM    6  C   UNL     1     -46.688  58.589 -57.984  1.00  0.00     0.017 A 
ENDROOT
BRANCH   4   7
HETATM    7  N   UNL     1     -44.045  56.526 -56.438  1.00  0.00    -0.323 N 
HETATM    8  C   UNL     1     -42.841  56.837 -55.829  1.00  0.00     0.256 C 
HETATM    9  O   UNL     1     -42.207  57.878 -55.950  1.00  0.00    -0.267 OA
HETATM   10  H   UNL     1     -44.431  55.609 -56.263  1.00  0.00     0.169 HD
BRANCH   8  11
HETATM   11  C   UNL     1     -42.246  55.743 -55.007  1.00  0.00     0.032 A 
HETATM   12  C   UNL     1     -42.996  54.946 -54.144  1.00  0.00     0.019 A 
HETATM   13  C   UNL     1     -42.386  53.884 -53.454  1.00  0.00     0.031 A 
HETATM   14  C   UNL     1     -41.017  53.591 -53.597  1.00  0.00     0.045 A 
HETATM   15  C   UNL     1     -40.276  54.436 -54.440  1.00  0.00     0.031 A 
HETATM   16  C   UNL     1     -40.878  55.497 -55.132  1.00  0.00     0.019 A 
BRANCH  14  17
HETATM   17  N   UNL     1     -40.410  52.478 -52.927  1.00  0.00    -0.252 N 
HETATM   18  C   UNL     1     -40.039  51.301 -53.544  1.00  0.00     0.231 C 
HETATM   19  O   UNL     1     -40.076  50.996 -54.727  1.00  0.00    -0.273 OA
HETATM   20  C   UNL     1     -39.543  50.338 -52.507  1.00  0.00     0.113 C 
HETATM   21  C   UNL     1     -39.320  51.196 -51.292  1.00  0.00     0.113 C 
HETATM   22  C   UNL     1     -40.090  52.447 -51.586  1.00  0.00     0.231 C 
HETATM   23  O   UNL     1     -40.333  53.262 -50.705  1.00  0.00    -0.273 OA
ENDBRANCH  14  17
ENDBRANCH   8  11
ENDBRANCH   4   7
BRANCH   1  24
HETATM   24  C   UNL     1     -47.215  59.270 -60.302  1.00  0.00     0.139 A 
HETATM   25  N   UNL     1     -47.236  58.984 -61.650  1.00  0.00    -0.338 N 
HETATM   26  C   UNL     1     -48.279  59.656 -62.233  1.00  0.00     0.063 A 
HETATM   27  H   UNL     1     -46.623  58.340 -62.124  1.00  0.00     0.167 HD
HETATM   28  C   UNL     1     -48.844  60.374 -61.189  1.00  0.00     0.086 A 
HETATM   29  C   UNL     1     -48.770  59.686 -63.538  1.00  0.00     0.032 A 
HETATM   30  C   UNL     1     -49.963  61.181 -61.437  1.00  0.00     0.040 A 
HETATM   31  N   UNL     1     -48.173  60.137 -60.015  1.00  0.00    -0.228 NA
HETATM   32  C   UNL     1     -50.489  61.239 -62.740  1.00  0.00    -0.060 A 
HETATM   33  C   UNL     1     -51.712  62.061 -63.027  1.00  0.00     0.048 C 
HETATM   34  C   UNL     1     -49.893  60.490 -63.767  1.00  0.00     0.009 A 
ENDBRANCH   1  24
TORSDOF 4
ENDMDL
MODEL 9
REMARK VINA RESULT:      -7.3     18.850     21.320
REMARK  4 active torsions:
REMARK  status: ('A' for Active; 'I' for Inactive)
REMARK    1  A    between atoms: C_8  and  C_9 
REMARK    2  A    between atoms: C_12  and  N_13 
REMARK       I    between atoms: N_13  and  C_14 
REMARK    3  A    between atoms: C_14  and  C_15 
REMARK    4  A    between atoms: C_18  and  N_19 
ROOT
HETATM    1  C   UNL     1     -42.243  55.664 -55.452  1.00  0.00     0.010 A 
HETATM    2  C   UNL     1     -42.439  57.033 -55.232  1.00  0.00     0.017 A 
HETATM    3  C   UNL     1     -43.197  57.805 -56.126  1.00  0.00     0.030 A 
HETATM    4  C   UNL     1     -43.778  57.224 -57.253  1.00  0.00     0.035 A 
HETATM    5  C   UNL     1     -43.542  55.871 -57.506  1.00  0.00     0.030 A 
HETATM    6  C   UNL     1     -42.782  55.101 -56.616  1.00  0.00     0.017 A 
ENDROOT
BRANCH   4   7
HETATM    7  N   UNL     1     -44.642  57.904 -58.138  1.00  0.00    -0.323 N 
HETATM    8  C   UNL     1     -45.960  58.261 -57.909  1.00  0.00     0.256 C 
HETATM    9  O   UNL     1     -46.573  58.159 -56.853  1.00  0.00    -0.267 OA
HETATM   10  H   UNL     1     -44.285  58.020 -59.076  1.00  0.00     0.169 HD
BRANCH   8  11
HETATM   11  C   UNL     1     -46.701  58.749 -59.108  1.00  0.00     0.032 A 
HETATM   12  C   UNL     1     -46.533  58.204 -60.380  1.00  0.00     0.019 A 
HETATM   13  C   UNL     1     -47.317  58.662 -61.453  1.00  0.00     0.031 A 
HETATM   14  C   UNL     1     -48.281  59.675 -61.294  1.00  0.00     0.045 A 
HETATM   15  C   UNL     1     -48.399  60.236 -60.012  1.00  0.00     0.031 A 
HETATM   16  C   UNL     1     -47.621  59.784 -58.936  1.00  0.00     0.019 A 
BRANCH  14  17
HETATM   17  N   UNL     1     -49.110  60.104 -62.382  1.00  0.00    -0.252 N 
HETATM   18  C   UNL     1     -50.221  59.423 -62.836  1.00  0.00     0.231 C 
HETATM   19  O   UNL     1     -50.749  58.412 -62.396  1.00  0.00    -0.273 OA
HETATM   20  C   UNL     1     -50.761  60.118 -64.049  1.00  0.00     0.113 C 
HETATM   21  C   UNL     1     -50.082  61.459 -64.033  1.00  0.00     0.113 C 
HETATM   22  C   UNL     1     -48.926  61.268 -63.099  1.00  0.00     0.231 C 
HETATM   23  O   UNL     1     -48.015  62.084 -63.044  1.00  0.00    -0.273 OA
ENDBRANCH  14  17
ENDBRANCH   8  11
ENDBRANCH   4   7
BRANCH   1  24
HETATM   24  C   UNL     1     -41.545  54.795 -54.498  1.00  0.00     0.139 A 
HETATM   25  N   UNL     1     -41.306  55.116 -53.179  1.00  0.00    -0.338 N 
HETATM   26  C   UNL     1     -40.745  54.035 -52.550  1.00  0.00     0.063 A 
HETATM   27  H   UNL     1     -41.555  55.983 -52.730  1.00  0.00     0.167 HD
HETATM   28  C   UNL     1     -40.629  53.084 -53.553  1.00  0.00     0.086 A 
HETATM   29  C   UNL     1     -40.355  53.808 -51.231  1.00  0.00     0.032 A 
HETATM   30  C   UNL     1     -40.091  51.826 -53.249  1.00  0.00     0.040 A 
HETATM   31  N   UNL     1     -41.112  53.569 -54.743  1.00  0.00    -0.228 NA
HETATM   32  C   UNL     1     -39.685  51.557 -51.929  1.00  0.00    -0.060 A 
HETATM   33  C   UNL     1     -39.144  50.205 -51.563  1.00  0.00     0.048 C 
HETATM   34  C   UNL     1     -39.827  52.544 -50.940  1.00  0.00     0.009 A 
ENDBRANCH   1  24
TORSDOF 4
ENDMDL
MODEL 10
REMARK VINA RESULT:      -7.2     21.877     23.215
REMARK  4 active torsions:
REMARK  status: ('A' for Active; 'I' for Inactive)
REMARK    1  A    between atoms: C_8  and  C_9 
REMARK    2  A    between atoms: C_12  and  N_13 
REMARK       I    between atoms: N_13  and  C_14 
REMARK    3  A    between atoms: C_14  and  C_15 
REMARK    4  A    between atoms: C_18  and  N_19 
ROOT
HETATM    1  C   UNL     1     -45.014  61.541 -48.268  1.00  0.00     0.010 A 
HETATM    2  C   UNL     1     -45.769  60.386 -48.500  1.00  0.00     0.017 A 
HETATM    3  C   UNL     1     -45.712  59.723 -49.736  1.00  0.00     0.030 A 
HETATM    4  C   UNL     1     -44.895  60.200 -50.762  1.00  0.00     0.035 A 
HETATM    5  C   UNL     1     -44.180  61.382 -50.554  1.00  0.00     0.030 A 
HETATM    6  C   UNL     1     -44.241  62.045 -49.322  1.00  0.00     0.017 A 
ENDROOT
BRANCH   4   7
HETATM    7  N   UNL     1     -44.695  59.534 -51.990  1.00  0.00    -0.323 N 
HETATM    8  C   UNL     1     -43.951  58.387 -52.208  1.00  0.00     0.256 C 
HETATM    9  O   UNL     1     -43.432  57.678 -51.354  1.00  0.00    -0.267 OA
HETATM   10  H   UNL     1     -45.033  60.030 -52.803  1.00  0.00     0.169 HD
BRANCH   8  11
HETATM   11  C   UNL     1     -43.714  58.049 -53.642  1.00  0.00     0.032 A 
HETATM   12  C   UNL     1     -44.651  58.291 -54.645  1.00  0.00     0.019 A 
HETATM   13  C   UNL     1     -44.335  58.016 -55.987  1.00  0.00     0.031 A 
HETATM   14  C   UNL     1     -43.087  57.487 -56.366  1.00  0.00     0.045 A 
HETATM   15  C   UNL     1     -42.178  57.212 -55.331  1.00  0.00     0.031 A 
HETATM   16  C   UNL     1     -42.486  57.485 -53.990  1.00  0.00     0.019 A 
BRANCH  14  17
HETATM   17  N   UNL     1     -42.754  57.252 -57.740  1.00  0.00    -0.252 N 
HETATM   18  C   UNL     1     -43.066  56.102 -58.436  1.00  0.00     0.231 C 
HETATM   19  O   UNL     1     -43.713  55.128 -58.080  1.00  0.00    -0.273 OA
HETATM   20  C   UNL     1     -42.462  56.177 -59.805  1.00  0.00     0.113 C 
HETATM   21  C   UNL     1     -42.088  57.626 -59.959  1.00  0.00     0.113 C 
HETATM   22  C   UNL     1     -42.104  58.154 -58.557  1.00  0.00     0.231 C 
HETATM   23  O   UNL     1     -41.604  59.237 -58.283  1.00  0.00    -0.273 OA
ENDBRANCH  14  17
ENDBRANCH   8  11
ENDBRANCH   4   7
BRANCH   1  24
HETATM   24  C   UNL     1     -44.963  62.211 -46.964  1.00  0.00     0.139 A 
HETATM   25  N   UNL     1     -45.553  63.426 -46.686  1.00  0.00    -0.338 N 
HETATM   26  C   UNL     1     -45.413  63.695 -45.349  1.00  0.00     0.063 A 
HETATM   27  H   UNL     1     -46.057  63.999 -47.344  1.00  0.00     0.167 HD
HETATM   28  C   UNL     1     -44.690  62.617 -44.861  1.00  0.00     0.086 A 
HETATM   29  C   UNL     1     -45.855  64.747 -44.548  1.00  0.00     0.032 A 
HETATM   30  C   UNL     1     -44.371  62.563 -43.497  1.00  0.00     0.040 A 
HETATM   31  N   UNL     1     -44.410  61.723 -45.865  1.00  0.00    -0.228 NA
HETATM   32  C   UNL     1     -44.798  63.605 -42.654  1.00  0.00    -0.060 A 
HETATM   33  C   UNL     1     -44.509  63.556 -41.182  1.00  0.00     0.048 C 
HETATM   34  C   UNL     1     -45.536  64.675 -43.185  1.00  0.00     0.009 A 
ENDBRANCH   1  24
TORSDOF 4
ENDMDL
