MODEL 1
REMARK VINA RESULT:      -7.4      0.000      0.000
REMARK  4 active torsions:
REMARK  status: ('A' for Active; 'I' for Inactive)
REMARK    1  A    between atoms: S_2  and  N_3 
REMARK    2  A    between atoms: N_3  and  N_4 
REMARK    3  A    between atoms: C_10  and  C_11 
REMARK    4  A    between atoms: C_13  and  O_14 
ROOT
HETATM    1  N   UNL     1     -41.277  54.695 -53.549  1.00  0.00    -0.241 N 
HETATM    2  C   UNL     1     -40.542  53.556 -53.872  1.00  0.00     0.272 C 
HETATM    3  O   UNL     1     -40.210  53.242 -55.013  1.00  0.00    -0.266 OA
HETATM    4  C   UNL     1     -40.230  52.662 -52.728  1.00  0.00     0.054 A 
HETATM    5  C   UNL     1     -40.739  52.989 -51.461  1.00  0.00     0.026 A 
HETATM    6  N   UNL     1     -41.511  54.152 -51.261  1.00  0.00    -0.265 NA
HETATM    7  C   UNL     1     -41.154  55.222 -52.192  1.00  0.00     0.217 C 
HETATM    8  C   UNL     1     -39.490  51.490 -52.928  1.00  0.00     0.019 A 
HETATM    9  C   UNL     1     -39.296  50.609 -51.866  1.00  0.00     0.001 A 
HETATM   10  C   UNL     1     -39.860  50.887 -50.622  1.00  0.00     0.002 A 
HETATM   11  C   UNL     1     -40.589  52.063 -50.424  1.00  0.00     0.024 A 
HETATM   12  H   UNL     1     -41.483  54.466 -50.295  1.00  0.00     0.130 HD
ENDROOT
BRANCH   7  13
HETATM   13  C   UNL     1     -42.006  56.447 -51.912  1.00  0.00    -0.017 A 
HETATM   14  C   UNL     1     -43.369  56.287 -51.598  1.00  0.00     0.047 A 
HETATM   15  C   UNL     1     -44.151  57.397 -51.299  1.00  0.00     0.066 A 
HETATM   16  C   UNL     1     -43.609  58.675 -51.318  1.00  0.00     0.036 A 
HETATM   17  C   UNL     1     -42.259  58.850 -51.620  1.00  0.00     0.003 A 
HETATM   18  C   UNL     1     -41.460  57.743 -51.907  1.00  0.00     0.011 A 
BRANCH  15  19
HETATM   19  O   UNL     1     -45.467  57.267 -50.972  1.00  0.00    -0.361 OA
HETATM   20  H   UNL     1     -45.540  57.135 -50.012  1.00  0.00     0.217 HD
ENDBRANCH  15  19
ENDBRANCH   7  13
BRANCH   1  21
HETATM   21  N   UNL     1     -41.518  55.693 -54.641  1.00  0.00    -0.123 NA
HETATM   22  H   UNL     1     -40.798  55.699 -55.375  1.00  0.00     0.165 HD
BRANCH  21  23
HETATM   23  S   UNL     1     -43.024  55.621 -55.435  1.00  0.00     0.222 S 
HETATM   24  C   UNL     1     -43.643  57.280 -55.236  1.00  0.00     0.181 C 
HETATM   25  O   UNL     1     -43.868  54.669 -54.743  1.00  0.00    -0.210 OA
HETATM   26  O   UNL     1     -42.695  55.418 -56.831  1.00  0.00    -0.210 OA
ENDBRANCH  21  23
ENDBRANCH   1  21
TORSDOF 4
ENDMDL
MODEL 2
REMARK VINA RESULT:      -7.3      2.519      4.067
REMARK  4 active torsions:
REMARK  status: ('A' for Active; 'I' for Inactive)
REMARK    1  A    between atoms: S_2  and  N_3 
REMARK    2  A    between atoms: N_3  and  N_4 
REMARK    3  A    between atoms: C_10  and  C_11 
REMARK    4  A    between atoms: C_13  and  O_14 
ROOT
HETATM    1  N   UNL     1     -41.516  55.554 -52.585  1.00  0.00    -0.241 N 
HETATM    2  C   UNL     1     -40.925  54.671 -51.683  1.00  0.00     0.272 C 
HETATM    3  O   UNL     1     -40.660  54.943 -50.514  1.00  0.00    -0.266 OA
HETATM    4  C   UNL     1     -40.545  53.351 -52.249  1.00  0.00     0.054 A 
HETATM    5  C   UNL     1     -40.746  53.125 -53.620  1.00  0.00     0.026 A 
HETATM    6  N   UNL     1     -41.316  54.114 -54.449  1.00  0.00    -0.265 NA
HETATM    7  C   UNL     1     -42.238  54.984 -53.719  1.00  0.00     0.217 C 
HETATM    8  C   UNL     1     -39.951  52.378 -51.437  1.00  0.00     0.019 A 
HETATM    9  C   UNL     1     -39.505  51.186 -52.005  1.00  0.00     0.001 A 
HETATM   10  C   UNL     1     -39.631  50.982 -53.378  1.00  0.00     0.002 A 
HETATM   11  C   UNL     1     -40.236  51.952 -54.184  1.00  0.00     0.024 A 
HETATM   12  H   UNL     1     -41.748  53.714 -55.277  1.00  0.00     0.130 HD
ENDROOT
BRANCH   7  13
HETATM   13  C   UNL     1     -42.830  56.011 -54.670  1.00  0.00    -0.017 A 
HETATM   14  C   UNL     1     -42.138  56.343 -55.849  1.00  0.00     0.047 A 
HETATM   15  C   UNL     1     -42.687  57.251 -56.748  1.00  0.00     0.066 A 
HETATM   16  C   UNL     1     -43.913  57.852 -56.494  1.00  0.00     0.036 A 
HETATM   17  C   UNL     1     -44.614  57.528 -55.333  1.00  0.00     0.003 A 
HETATM   18  C   UNL     1     -44.081  56.607 -54.429  1.00  0.00     0.011 A 
BRANCH  15  19
HETATM   19  O   UNL     1     -42.047  57.574 -57.907  1.00  0.00    -0.361 OA
HETATM   20  H   UNL     1     -41.522  56.810 -58.198  1.00  0.00     0.217 HD
ENDBRANCH  15  19
ENDBRANCH   7  13
BRANCH   1  21
HETATM   21  N   UNL     1     -42.027  56.854 -52.043  1.00  0.00    -0.123 NA
HETATM   22  H   UNL     1     -42.330  56.813 -51.061  1.00  0.00     0.165 HD
BRANCH  21  23
HETATM   23  S   UNL     1     -41.000  58.207 -52.181  1.00  0.00     0.222 S 
HETATM   24  C   UNL     1     -42.157  59.556 -52.302  1.00  0.00     0.181 C 
HETATM   25  O   UNL     1     -40.227  58.079 -53.399  1.00  0.00    -0.210 OA
HETATM   26  O   UNL     1     -40.328  58.291 -50.901  1.00  0.00    -0.210 OA
ENDBRANCH  21  23
ENDBRANCH   1  21
TORSDOF 4
ENDMDL
MODEL 3
REMARK VINA RESULT:      -7.2      3.150      5.626
REMARK  4 active torsions:
REMARK  status: ('A' for Active; 'I' for Inactive)
REMARK    1  A    between atoms: S_2  and  N_3 
REMARK    2  A    between atoms: N_3  and  N_4 
REMARK    3  A    between atoms: C_10  and  C_11 
REMARK    4  A    between atoms: C_13  and  O_14 
ROOT
HETATM    1  N   UNL     1     -43.438  56.276 -55.447  1.00  0.00    -0.241 N 
HETATM    2  C   UNL     1     -43.397  55.700 -54.179  1.00  0.00     0.272 C 
HETATM    3  O   UNL     1     -44.130  56.020 -53.244  1.00  0.00    -0.266 OA
HETATM    4  C   UNL     1     -42.328  54.689 -53.979  1.00  0.00     0.054 A 
HETATM    5  C   UNL     1     -41.429  54.446 -55.029  1.00  0.00     0.026 A 
HETATM    6  N   UNL     1     -41.542  55.124 -56.261  1.00  0.00    -0.265 NA
HETATM    7  C   UNL     1     -42.924  55.491 -56.566  1.00  0.00     0.217 C 
HETATM    8  C   UNL     1     -42.193  54.035 -52.748  1.00  0.00     0.019 A 
HETATM    9  C   UNL     1     -41.122  53.168 -52.543  1.00  0.00     0.001 A 
HETATM   10  C   UNL     1     -40.180  52.977 -53.553  1.00  0.00     0.002 A 
HETATM   11  C   UNL     1     -40.326  53.622 -54.785  1.00  0.00     0.024 A 
HETATM   12  H   UNL     1     -41.111  54.606 -57.022  1.00  0.00     0.130 HD
ENDROOT
BRANCH   7  13
HETATM   13  C   UNL     1     -42.979  56.199 -57.909  1.00  0.00    -0.017 A 
HETATM   14  C   UNL     1     -43.730  55.638 -58.958  1.00  0.00     0.047 A 
HETATM   15  C   UNL     1     -43.822  56.297 -60.180  1.00  0.00     0.066 A 
HETATM   16  C   UNL     1     -43.169  57.504 -60.389  1.00  0.00     0.036 A 
HETATM   17  C   UNL     1     -42.426  58.076 -59.357  1.00  0.00     0.003 A 
HETATM   18  C   UNL     1     -42.338  57.433 -58.121  1.00  0.00     0.011 A 
BRANCH  15  19
HETATM   19  O   UNL     1     -44.560  55.785 -61.205  1.00  0.00    -0.361 OA
HETATM   20  H   UNL     1     -45.502  55.849 -60.976  1.00  0.00     0.217 HD
ENDBRANCH  15  19
ENDBRANCH   7  13
BRANCH   1  21
HETATM   21  N   UNL     1     -44.569  57.215 -55.742  1.00  0.00    -0.123 NA
HETATM   22  H   UNL     1     -45.477  56.915 -55.364  1.00  0.00     0.165 HD
BRANCH  21  23
HETATM   23  S   UNL     1     -44.363  58.843 -55.284  1.00  0.00     0.222 S 
HETATM   24  C   UNL     1     -44.960  59.722 -56.714  1.00  0.00     0.181 C 
HETATM   25  O   UNL     1     -42.950  59.091 -55.078  1.00  0.00    -0.210 OA
HETATM   26  O   UNL     1     -45.299  59.041 -54.198  1.00  0.00    -0.210 OA
ENDBRANCH  21  23
ENDBRANCH   1  21
TORSDOF 4
ENDMDL
MODEL 4
REMARK VINA RESULT:      -7.0      3.118      6.159
REMARK  4 active torsions:
REMARK  status: ('A' for Active; 'I' for Inactive)
REMARK    1  A    between atoms: S_2  and  N_3 
REMARK    2  A    between atoms: N_3  and  N_4 
REMARK    3  A    between atoms: C_10  and  C_11 
REMARK    4  A    between atoms: C_13  and  O_14 
ROOT
HETATM    1  N   UNL     1     -42.304  57.097 -55.723  1.00  0.00    -0.241 N 
HETATM    2  C   UNL     1     -42.446  57.794 -56.921  1.00  0.00     0.272 C 
HETATM    3  O   UNL     1     -42.254  59.002 -57.051  1.00  0.00    -0.266 OA
HETATM    4  C   UNL     1     -42.937  56.987 -58.066  1.00  0.00     0.054 A 
HETATM    5  C   UNL     1     -43.270  55.641 -57.845  1.00  0.00     0.026 A 
HETATM    6  N   UNL     1     -43.124  55.051 -56.573  1.00  0.00    -0.265 NA
HETATM    7  C   UNL     1     -42.044  55.662 -55.799  1.00  0.00     0.217 C 
HETATM    8  C   UNL     1     -43.112  57.577 -59.324  1.00  0.00     0.019 A 
HETATM    9  C   UNL     1     -43.672  56.833 -60.361  1.00  0.00     0.001 A 
HETATM   10  C   UNL     1     -44.077  55.518 -60.132  1.00  0.00     0.002 A 
HETATM   11  C   UNL     1     -43.889  54.930 -58.878  1.00  0.00     0.024 A 
HETATM   12  H   UNL     1     -43.024  54.041 -56.631  1.00  0.00     0.130 HD
ENDROOT
BRANCH   7  13
HETATM   13  C   UNL     1     -41.929  54.970 -54.451  1.00  0.00    -0.017 A 
HETATM   14  C   UNL     1     -43.077  54.810 -53.654  1.00  0.00     0.047 A 
HETATM   15  C   UNL     1     -42.993  54.142 -52.436  1.00  0.00     0.066 A 
HETATM   16  C   UNL     1     -41.782  53.638 -51.983  1.00  0.00     0.036 A 
HETATM   17  C   UNL     1     -40.637  53.782 -52.766  1.00  0.00     0.003 A 
HETATM   18  C   UNL     1     -40.710  54.437 -53.996  1.00  0.00     0.011 A 
BRANCH  15  19
HETATM   19  O   UNL     1     -44.094  53.956 -51.655  1.00  0.00    -0.361 OA
HETATM   20  H   UNL     1     -44.723  54.678 -51.823  1.00  0.00     0.217 HD
ENDBRANCH  15  19
ENDBRANCH   7  13
BRANCH   1  21
HETATM   21  N   UNL     1     -41.700  57.832 -54.564  1.00  0.00    -0.123 NA
HETATM   22  H   UNL     1     -40.974  58.511 -54.826  1.00  0.00     0.165 HD
BRANCH  21  23
HETATM   23  S   UNL     1     -42.773  58.644 -53.519  1.00  0.00     0.222 S 
HETATM   24  C   UNL     1     -42.286  58.033 -51.918  1.00  0.00     0.181 C 
HETATM   25  O   UNL     1     -44.127  58.237 -53.837  1.00  0.00    -0.210 OA
HETATM   26  O   UNL     1     -42.395  60.039 -53.615  1.00  0.00    -0.210 OA
ENDBRANCH  21  23
ENDBRANCH   1  21
TORSDOF 4
ENDMDL
MODEL 5
REMARK VINA RESULT:      -6.9      2.847      4.330
REMARK  4 active torsions:
REMARK  status: ('A' for Active; 'I' for Inactive)
REMARK    1  A    between atoms: S_2  and  N_3 
REMARK    2  A    between atoms: N_3  and  N_4 
REMARK    3  A    between atoms: C_10  and  C_11 
REMARK    4  A    between atoms: C_13  and  O_14 
ROOT
HETATM    1  N   UNL     1     -42.009  56.834 -53.188  1.00  0.00    -0.241 N 
HETATM    2  C   UNL     1     -41.477  55.964 -52.239  1.00  0.00     0.272 C 
HETATM    3  O   UNL     1     -41.295  56.248 -51.056  1.00  0.00    -0.266 OA
HETATM    4  C   UNL     1     -41.050  54.642 -52.764  1.00  0.00     0.054 A 
HETATM    5  C   UNL     1     -41.153  54.402 -54.144  1.00  0.00     0.026 A 
HETATM    6  N   UNL     1     -41.671  55.379 -55.019  1.00  0.00    -0.265 NA
HETATM    7  C   UNL     1     -42.647  56.249 -54.364  1.00  0.00     0.217 C 
HETATM    8  C   UNL     1     -40.508  53.680 -51.903  1.00  0.00     0.019 A 
HETATM    9  C   UNL     1     -40.016  52.486 -52.427  1.00  0.00     0.001 A 
HETATM   10  C   UNL     1     -40.044  52.269 -53.804  1.00  0.00     0.002 A 
HETATM   11  C   UNL     1     -40.598  53.227 -54.659  1.00  0.00     0.024 A 
HETATM   12  H   UNL     1     -42.041  54.968 -55.872  1.00  0.00     0.130 HD
ENDROOT
BRANCH   7  13
HETATM   13  C   UNL     1     -43.177  57.263 -55.363  1.00  0.00    -0.017 A 
HETATM   14  C   UNL     1     -44.550  57.571 -55.376  1.00  0.00     0.047 A 
HETATM   15  C   UNL     1     -45.043  58.528 -56.257  1.00  0.00     0.066 A 
HETATM   16  C   UNL     1     -44.197  59.182 -57.142  1.00  0.00     0.036 A 
HETATM   17  C   UNL     1     -42.833  58.893 -57.137  1.00  0.00     0.003 A 
HETATM   18  C   UNL     1     -42.323  57.946 -56.248  1.00  0.00     0.011 A 
BRANCH  15  19
HETATM   19  O   UNL     1     -46.364  58.859 -56.275  1.00  0.00    -0.361 OA
HETATM   20  H   UNL     1     -46.787  58.416 -57.030  1.00  0.00     0.217 HD
ENDBRANCH  15  19
ENDBRANCH   7  13
BRANCH   1  21
HETATM   21  N   UNL     1     -42.565  58.136 -52.695  1.00  0.00    -0.123 NA
HETATM   22  H   UNL     1     -42.948  58.098 -51.742  1.00  0.00     0.165 HD
BRANCH  21  23
HETATM   23  S   UNL     1     -41.531  59.489 -52.752  1.00  0.00     0.222 S 
HETATM   24  C   UNL     1     -42.499  60.672 -53.668  1.00  0.00     0.181 C 
HETATM   25  O   UNL     1     -40.334  59.128 -53.482  1.00  0.00    -0.210 OA
HETATM   26  O   UNL     1     -41.435  59.938 -51.379  1.00  0.00    -0.210 OA
ENDBRANCH  21  23
ENDBRANCH   1  21
TORSDOF 4
ENDMDL
MODEL 6
REMARK VINA RESULT:      -6.8      1.393      1.758
REMARK  4 active torsions:
REMARK  status: ('A' for Active; 'I' for Inactive)
REMARK    1  A    between atoms: S_2  and  N_3 
REMARK    2  A    between atoms: N_3  and  N_4 
REMARK    3  A    between atoms: C_10  and  C_11 
REMARK    4  A    between atoms: C_13  and  O_14 
ROOT
HETATM    1  N   UNL     1     -41.898  56.173 -54.144  1.00  0.00    -0.241 N 
HETATM    2  C   UNL     1     -41.348  55.064 -54.784  1.00  0.00     0.272 C 
HETATM    3  O   UNL     1     -41.370  54.879 -56.000  1.00  0.00    -0.266 OA
HETATM    4  C   UNL     1     -40.776  54.034 -53.881  1.00  0.00     0.054 A 
HETATM    5  C   UNL     1     -40.887  54.220 -52.493  1.00  0.00     0.026 A 
HETATM    6  N   UNL     1     -41.506  55.369 -51.957  1.00  0.00    -0.265 NA
HETATM    7  C   UNL     1     -41.367  56.533 -52.832  1.00  0.00     0.217 C 
HETATM    8  C   UNL     1     -40.188  52.878 -54.408  1.00  0.00     0.019 A 
HETATM    9  C   UNL     1     -39.751  51.873 -53.547  1.00  0.00     0.001 A 
HETATM   10  C   UNL     1     -39.925  52.015 -52.171  1.00  0.00     0.002 A 
HETATM   11  C   UNL     1     -40.501  53.176 -51.648  1.00  0.00     0.024 A 
HETATM   12  H   UNL     1     -41.189  55.566 -51.012  1.00  0.00     0.130 HD
ENDROOT
BRANCH   7  13
HETATM   13  C   UNL     1     -42.037  57.735 -52.190  1.00  0.00    -0.017 A 
HETATM   14  C   UNL     1     -43.286  57.579 -51.561  1.00  0.00     0.047 A 
HETATM   15  C   UNL     1     -43.891  58.663 -50.933  1.00  0.00     0.066 A 
HETATM   16  C   UNL     1     -43.285  59.912 -50.927  1.00  0.00     0.036 A 
HETATM   17  C   UNL     1     -42.044  60.081 -51.540  1.00  0.00     0.003 A 
HETATM   18  C   UNL     1     -41.419  58.998 -52.160  1.00  0.00     0.011 A 
BRANCH  15  19
HETATM   19  O   UNL     1     -45.091  58.534 -50.299  1.00  0.00    -0.361 OA
HETATM   20  H   UNL     1     -45.520  59.405 -50.261  1.00  0.00     0.217 HD
ENDBRANCH  15  19
ENDBRANCH   7  13
BRANCH   1  21
HETATM   21  N   UNL     1     -42.382  57.298 -55.008  1.00  0.00    -0.123 NA
HETATM   22  H   UNL     1     -41.915  57.362 -55.921  1.00  0.00     0.165 HD
BRANCH  21  23
HETATM   23  S   UNL     1     -44.057  57.374 -55.311  1.00  0.00     0.222 S 
HETATM   24  C   UNL     1     -44.464  59.032 -54.800  1.00  0.00     0.181 C 
HETATM   25  O   UNL     1     -44.725  56.398 -54.475  1.00  0.00    -0.210 OA
HETATM   26  O   UNL     1     -44.175  57.295 -56.752  1.00  0.00    -0.210 OA
ENDBRANCH  21  23
ENDBRANCH   1  21
TORSDOF 4
ENDMDL
MODEL 7
REMARK VINA RESULT:      -6.8      3.072      5.527
REMARK  4 active torsions:
REMARK  status: ('A' for Active; 'I' for Inactive)
REMARK    1  A    between atoms: S_2  and  N_3 
REMARK    2  A    between atoms: N_3  and  N_4 
REMARK    3  A    between atoms: C_10  and  C_11 
REMARK    4  A    between atoms: C_13  and  O_14 
ROOT
HETATM    1  N   UNL     1     -43.416  56.161 -55.324  1.00  0.00    -0.241 N 
HETATM    2  C   UNL     1     -43.299  55.617 -54.047  1.00  0.00     0.272 C 
HETATM    3  O   UNL     1     -43.984  55.950 -53.082  1.00  0.00    -0.266 OA
HETATM    4  C   UNL     1     -42.206  54.626 -53.881  1.00  0.00     0.054 A 
HETATM    5  C   UNL     1     -41.361  54.368 -54.973  1.00  0.00     0.026 A 
HETATM    6  N   UNL     1     -41.551  55.013 -56.212  1.00  0.00    -0.265 NA
HETATM    7  C   UNL     1     -42.953  55.354 -56.451  1.00  0.00     0.217 C 
HETATM    8  C   UNL     1     -41.995  54.005 -52.644  1.00  0.00     0.019 A 
HETATM    9  C   UNL     1     -40.901  53.158 -52.476  1.00  0.00     0.001 A 
HETATM   10  C   UNL     1     -40.013  52.954 -53.532  1.00  0.00     0.002 A 
HETATM   11  C   UNL     1     -40.235  53.565 -54.769  1.00  0.00     0.024 A 
HETATM   12  H   UNL     1     -41.155  54.482 -56.983  1.00  0.00     0.130 HD
ENDROOT
BRANCH   7  13
HETATM   13  C   UNL     1     -43.091  56.028 -57.806  1.00  0.00    -0.017 A 
HETATM   14  C   UNL     1     -42.420  57.241 -58.048  1.00  0.00     0.047 A 
HETATM   15  C   UNL     1     -42.504  57.847 -59.298  1.00  0.00     0.066 A 
HETATM   16  C   UNL     1     -43.257  57.277 -60.316  1.00  0.00     0.036 A 
HETATM   17  C   UNL     1     -43.921  56.071 -60.093  1.00  0.00     0.003 A 
HETATM   18  C   UNL     1     -43.833  55.445 -58.849  1.00  0.00     0.011 A 
BRANCH  15  19
HETATM   19  O   UNL     1     -41.848  59.010 -59.564  1.00  0.00    -0.361 OA
HETATM   20  H   UNL     1     -40.965  58.971 -59.162  1.00  0.00     0.217 HD
ENDBRANCH  15  19
ENDBRANCH   7  13
BRANCH   1  21
HETATM   21  N   UNL     1     -44.575  57.076 -55.580  1.00  0.00    -0.123 NA
HETATM   22  H   UNL     1     -45.457  56.776 -55.144  1.00  0.00     0.165 HD
BRANCH  21  23
HETATM   23  S   UNL     1     -44.367  58.718 -55.178  1.00  0.00     0.222 S 
HETATM   24  C   UNL     1     -42.613  58.823 -54.887  1.00  0.00     0.181 C 
HETATM   25  O   UNL     1     -45.108  58.996 -53.964  1.00  0.00    -0.210 OA
HETATM   26  O   UNL     1     -44.675  59.438 -56.395  1.00  0.00    -0.210 OA
ENDBRANCH  21  23
ENDBRANCH   1  21
TORSDOF 4
ENDMDL
MODEL 8
REMARK VINA RESULT:      -6.7      3.029      6.269
REMARK  4 active torsions:
REMARK  status: ('A' for Active; 'I' for Inactive)
REMARK    1  A    between atoms: S_2  and  N_3 
REMARK    2  A    between atoms: N_3  and  N_4 
REMARK    3  A    between atoms: C_10  and  C_11 
REMARK    4  A    between atoms: C_13  and  O_14 
ROOT
HETATM    1  N   UNL     1     -42.286  57.248 -55.503  1.00  0.00    -0.241 N 
HETATM    2  C   UNL     1     -42.275  57.979 -56.689  1.00  0.00     0.272 C 
HETATM    3  O   UNL     1     -41.994  59.174 -56.768  1.00  0.00    -0.266 OA
HETATM    4  C   UNL     1     -42.713  57.232 -57.895  1.00  0.00     0.054 A 
HETATM    5  C   UNL     1     -43.150  55.906 -57.742  1.00  0.00     0.026 A 
HETATM    6  N   UNL     1     -43.157  55.280 -56.479  1.00  0.00    -0.265 NA
HETATM    7  C   UNL     1     -42.114  55.801 -55.596  1.00  0.00     0.217 C 
HETATM    8  C   UNL     1     -42.736  57.859 -59.147  1.00  0.00     0.019 A 
HETATM    9  C   UNL     1     -43.247  57.177 -60.249  1.00  0.00     0.001 A 
HETATM   10  C   UNL     1     -43.755  55.888 -60.094  1.00  0.00     0.002 A 
HETATM   11  C   UNL     1     -43.718  55.261 -58.845  1.00  0.00     0.024 A 
HETATM   12  H   UNL     1     -43.117  54.267 -56.555  1.00  0.00     0.130 HD
ENDROOT
BRANCH   7  13
HETATM   13  C   UNL     1     -42.164  55.074 -54.263  1.00  0.00    -0.017 A 
HETATM   14  C   UNL     1     -40.978  54.557 -53.710  1.00  0.00     0.047 A 
HETATM   15  C   UNL     1     -41.002  53.926 -52.471  1.00  0.00     0.066 A 
HETATM   16  C   UNL     1     -42.192  53.783 -51.768  1.00  0.00     0.036 A 
HETATM   17  C   UNL     1     -43.374  54.296 -52.300  1.00  0.00     0.003 A 
HETATM   18  C   UNL     1     -43.361  54.945 -53.535  1.00  0.00     0.011 A 
BRANCH  15  19
HETATM   19  O   UNL     1     -39.865  53.435 -51.904  1.00  0.00    -0.361 OA
HETATM   20  H   UNL     1     -39.189  53.335 -52.596  1.00  0.00     0.217 HD
ENDBRANCH  15  19
ENDBRANCH   7  13
BRANCH   1  21
HETATM   21  N   UNL     1     -41.742  57.916 -54.276  1.00  0.00    -0.123 NA
HETATM   22  H   UNL     1     -41.012  58.615 -54.463  1.00  0.00     0.165 HD
BRANCH  21  23
HETATM   23  S   UNL     1     -42.869  58.655 -53.234  1.00  0.00     0.222 S 
HETATM   24  C   UNL     1     -42.436  60.378 -53.360  1.00  0.00     0.181 C 
HETATM   25  O   UNL     1     -42.648  58.165 -51.888  1.00  0.00    -0.210 OA
HETATM   26  O   UNL     1     -44.152  58.454 -53.875  1.00  0.00    -0.210 OA
ENDBRANCH  21  23
ENDBRANCH   1  21
TORSDOF 4
ENDMDL
MODEL 9
REMARK VINA RESULT:      -6.5     15.552     17.085
REMARK  4 active torsions:
REMARK  status: ('A' for Active; 'I' for Inactive)
REMARK    1  A    between atoms: S_2  and  N_3 
REMARK    2  A    between atoms: N_3  and  N_4 
REMARK    3  A    between atoms: C_10  and  C_11 
REMARK    4  A    between atoms: C_13  and  O_14 
ROOT
HETATM    1  N   UNL     1     -33.701  40.109 -55.489  1.00  0.00    -0.241 N 
HETATM    2  C   UNL     1     -32.663  40.089 -54.560  1.00  0.00     0.272 C 
HETATM    3  O   UNL     1     -31.510  39.741 -54.811  1.00  0.00    -0.266 OA
HETATM    4  C   UNL     1     -33.050  40.450 -53.173  1.00  0.00     0.054 A 
HETATM    5  C   UNL     1     -34.402  40.714 -52.900  1.00  0.00     0.026 A 
HETATM    6  N   UNL     1     -35.377  40.663 -53.918  1.00  0.00    -0.265 NA
HETATM    7  C   UNL     1     -34.827  41.002 -55.230  1.00  0.00     0.217 C 
HETATM    8  C   UNL     1     -32.091  40.473 -52.153  1.00  0.00     0.019 A 
HETATM    9  C   UNL     1     -32.489  40.712 -50.839  1.00  0.00     0.001 A 
HETATM   10  C   UNL     1     -33.839  40.900 -50.546  1.00  0.00     0.002 A 
HETATM   11  C   UNL     1     -34.792  40.889 -51.569  1.00  0.00     0.024 A 
HETATM   12  H   UNL     1     -36.193  41.225 -53.693  1.00  0.00     0.130 HD
ENDROOT
BRANCH   7  13
HETATM   13  C   UNL     1     -35.929  40.946 -56.275  1.00  0.00    -0.017 A 
HETATM   14  C   UNL     1     -35.920  41.864 -57.341  1.00  0.00     0.047 A 
HETATM   15  C   UNL     1     -36.899  41.798 -58.327  1.00  0.00     0.066 A 
HETATM   16  C   UNL     1     -37.902  40.840 -58.270  1.00  0.00     0.036 A 
HETATM   17  C   UNL     1     -37.920  39.919 -57.224  1.00  0.00     0.003 A 
HETATM   18  C   UNL     1     -36.935  39.965 -56.236  1.00  0.00     0.011 A 
BRANCH  15  19
HETATM   19  O   UNL     1     -36.901  42.662 -59.380  1.00  0.00    -0.361 OA
HETATM   20  H   UNL     1     -35.992  42.755 -59.711  1.00  0.00     0.217 HD
ENDBRANCH  15  19
ENDBRANCH   7  13
BRANCH   1  21
HETATM   21  N   UNL     1     -33.346  39.868 -56.925  1.00  0.00    -0.123 NA
HETATM   22  H   UNL     1     -32.362  40.057 -57.155  1.00  0.00     0.165 HD
BRANCH  21  23
HETATM   23  S   UNL     1     -33.711  38.332 -57.566  1.00  0.00     0.222 S 
HETATM   24  C   UNL     1     -32.140  37.805 -58.219  1.00  0.00     0.181 C 
HETATM   25  O   UNL     1     -34.684  38.492 -58.628  1.00  0.00    -0.210 OA
HETATM   26  O   UNL     1     -34.027  37.517 -56.411  1.00  0.00    -0.210 OA
ENDBRANCH  21  23
ENDBRANCH   1  21
TORSDOF 4
ENDMDL
MODEL 10
REMARK VINA RESULT:      -6.3      3.948      6.015
REMARK  4 active torsions:
REMARK  status: ('A' for Active; 'I' for Inactive)
REMARK    1  A    between atoms: S_2  and  N_3 
REMARK    2  A    between atoms: N_3  and  N_4 
REMARK    3  A    between atoms: C_10  and  C_11 
REMARK    4  A    between atoms: C_13  and  O_14 
ROOT
HETATM    1  N   UNL     1     -42.130  58.773 -55.329  1.00  0.00    -0.241 N 
HETATM    2  C   UNL     1     -41.953  59.085 -56.676  1.00  0.00     0.272 C 
HETATM    3  O   UNL     1     -41.635  60.196 -57.098  1.00  0.00    -0.266 OA
HETATM    4  C   UNL     1     -42.255  57.983 -57.624  1.00  0.00     0.054 A 
HETATM    5  C   UNL     1     -42.741  56.770 -57.111  1.00  0.00     0.026 A 
HETATM    6  N   UNL     1     -42.921  56.582 -55.725  1.00  0.00    -0.265 NA
HETATM    7  C   UNL     1     -41.983  57.376 -54.931  1.00  0.00     0.217 C 
HETATM    8  C   UNL     1     -42.106  58.175 -59.003  1.00  0.00     0.019 A 
HETATM    9  C   UNL     1     -42.493  57.167 -59.884  1.00  0.00     0.001 A 
HETATM   10  C   UNL     1     -43.048  55.987 -59.389  1.00  0.00     0.002 A 
HETATM   11  C   UNL     1     -43.183  55.795 -58.011  1.00  0.00     0.024 A 
HETATM   12  H   UNL     1     -42.897  55.599 -55.467  1.00  0.00     0.130 HD
ENDROOT
BRANCH   7  13
HETATM   13  C   UNL     1     -42.217  57.114 -53.453  1.00  0.00    -0.017 A 
HETATM   14  C   UNL     1     -43.534  57.020 -52.966  1.00  0.00     0.047 A 
HETATM   15  C   UNL     1     -43.763  56.740 -51.623  1.00  0.00     0.066 A 
HETATM   16  C   UNL     1     -42.704  56.563 -50.743  1.00  0.00     0.036 A 
HETATM   17  C   UNL     1     -41.394  56.646 -51.212  1.00  0.00     0.003 A 
HETATM   18  C   UNL     1     -41.151  56.911 -52.560  1.00  0.00     0.011 A 
BRANCH  15  19
HETATM   19  O   UNL     1     -45.028  56.624 -51.131  1.00  0.00    -0.361 OA
HETATM   20  H   UNL     1     -45.597  56.235 -51.816  1.00  0.00     0.217 HD
ENDBRANCH  15  19
ENDBRANCH   7  13
BRANCH   1  21
HETATM   21  N   UNL     1     -41.727  59.808 -54.323  1.00  0.00    -0.123 NA
HETATM   22  H   UNL     1     -41.021  60.475 -54.661  1.00  0.00     0.165 HD
BRANCH  21  23
HETATM   23  S   UNL     1     -42.975  60.733 -53.623  1.00  0.00     0.222 S 
HETATM   24  C   UNL     1     -42.691  60.503 -51.879  1.00  0.00     0.181 C 
HETATM   25  O   UNL     1     -44.249  60.167 -54.017  1.00  0.00    -0.210 OA
HETATM   26  O   UNL     1     -42.654  62.103 -53.964  1.00  0.00    -0.210 OA
ENDBRANCH  21  23
ENDBRANCH   1  21
TORSDOF 4
ENDMDL
