MODEL 1
REMARK VINA RESULT:      -9.1      0.000      0.000
REMARK  6 active torsions:
REMARK  status: ('A' for Active; 'I' for Inactive)
REMARK    1  A    between atoms: C_2  and  O_3 
REMARK    2  A    between atoms: C_2  and  C_4 
REMARK    3  A    between atoms: C_6  and  N_7 
REMARK       I    between atoms: N_7  and  C_8 
REMARK    4  A    between atoms: C_8  and  C_9 
REMARK    5  A    between atoms: C_14  and  C_15 
REMARK    6  A    between atoms: C_23  and  C_24 
ROOT
HETATM    1  C   UNL     1     -41.967  58.013 -51.740  1.00  0.00     0.148 A 
HETATM    2  N   UNL     1     -41.452  58.080 -52.992  1.00  0.00    -0.165 NA
HETATM    3  N   UNL     1     -41.623  56.830 -53.461  1.00  0.00    -0.240 N 
HETATM    4  C   UNL     1     -42.143  55.957 -52.547  1.00  0.00     0.123 A 
HETATM    5  N   UNL     1     -42.251  54.642 -52.823  1.00  0.00    -0.366 N 
HETATM    6  C   UNL     1     -41.562  54.019 -53.954  1.00  0.00     0.118 C 
HETATM    7  C   UNL     1     -40.570  54.988 -54.632  1.00  0.00     0.066 C 
HETATM    8  C   UNL     1     -41.138  56.409 -54.760  1.00  0.00     0.221 C 
HETATM    9  C   UNL     1     -42.442  56.705 -51.442  1.00  0.00     0.089 A 
HETATM   10  H   UNL     1     -42.652  53.994 -52.144  1.00  0.00     0.161 HD
ENDROOT
BRANCH   1  11
HETATM   11  C   UNL     1     -41.962  59.167 -50.823  1.00  0.00     0.276 C 
HETATM   12  N   UNL     1     -43.172  59.834 -50.825  1.00  0.00    -0.322 N 
HETATM   13  H   UNL     1     -43.875  59.394 -51.415  1.00  0.00     0.169 HD
HETATM   14  O   UNL     1     -40.965  59.457 -50.172  1.00  0.00    -0.266 OA
BRANCH  12  15
HETATM   15  C   UNL     1     -43.522  61.003 -50.131  1.00  0.00     0.035 A 
HETATM   16  C   UNL     1     -44.369  61.020 -49.019  1.00  0.00     0.039 A 
HETATM   17  C   UNL     1     -44.681  62.223 -48.362  1.00  0.00    -0.028 A 
HETATM   18  C   UNL     1     -44.143  63.421 -48.852  1.00  0.00     0.010 A 
HETATM   19  C   UNL     1     -43.290  63.412 -49.953  1.00  0.00     0.003 A 
HETATM   20  C   UNL     1     -42.977  62.207 -50.586  1.00  0.00     0.029 A 
BRANCH  17  21
HETATM   21  C   UNL     1     -45.617  62.202 -47.172  1.00  0.00     0.147 C 
HETATM   22  C   UNL     1     -45.063  61.363 -46.029  1.00  0.00     0.044 C 
BRANCH  21  23
HETATM   23  O   UNL     1     -46.895  61.690 -47.545  1.00  0.00    -0.391 OA
HETATM   24  H   UNL     1     -46.882  60.739 -47.342  1.00  0.00     0.210 HD
ENDBRANCH  21  23
ENDBRANCH  17  21
ENDBRANCH  12  15
ENDBRANCH   1  11
BRANCH   8  25
HETATM   25  C   UNL     1     -42.241  56.512 -55.787  1.00  0.00     0.409 C 
HETATM   26  F   UNL     1     -43.456  56.683 -55.220  1.00  0.00    -0.169 F 
HETATM   27  F   UNL     1     -42.027  57.598 -56.577  1.00  0.00    -0.169 F 
HETATM   28  F   UNL     1     -42.316  55.447 -56.611  1.00  0.00    -0.169 F 
ENDBRANCH   8  25
BRANCH   6  29
HETATM   29  C   UNL     1     -40.839  52.771 -53.467  1.00  0.00    -0.035 A 
HETATM   30  C   UNL     1     -40.342  52.704 -52.155  1.00  0.00     0.012 A 
HETATM   31  C   UNL     1     -39.684  51.556 -51.707  1.00  0.00     0.043 A 
HETATM   32  C   UNL     1     -39.521  50.474 -52.564  1.00  0.00     0.116 A 
HETATM   33  F   UNL     1     -38.887  49.377 -52.130  1.00  0.00    -0.206 F 
HETATM   34  C   UNL     1     -40.005  50.514 -53.865  1.00  0.00     0.043 A 
HETATM   35  C   UNL     1     -40.666  51.658 -54.314  1.00  0.00     0.012 A 
ENDBRANCH   6  29
TORSDOF 6
ENDMDL
MODEL 2
REMARK VINA RESULT:      -9.1      4.705      7.518
REMARK  6 active torsions:
REMARK  status: ('A' for Active; 'I' for Inactive)
REMARK    1  A    between atoms: C_2  and  O_3 
REMARK    2  A    between atoms: C_2  and  C_4 
REMARK    3  A    between atoms: C_6  and  N_7 
REMARK       I    between atoms: N_7  and  C_8 
REMARK    4  A    between atoms: C_8  and  C_9 
REMARK    5  A    between atoms: C_14  and  C_15 
REMARK    6  A    between atoms: C_23  and  C_24 
ROOT
HETATM    1  C   UNL     1     -43.099  56.841 -55.864  1.00  0.00     0.148 A 
HETATM    2  N   UNL     1     -43.821  56.660 -54.731  1.00  0.00    -0.165 NA
HETATM    3  N   UNL     1     -42.947  56.053 -53.905  1.00  0.00    -0.240 N 
HETATM    4  C   UNL     1     -41.740  55.770 -54.479  1.00  0.00     0.123 A 
HETATM    5  N   UNL     1     -40.808  55.050 -53.823  1.00  0.00    -0.366 N 
HETATM    6  C   UNL     1     -41.119  54.279 -52.618  1.00  0.00     0.118 C 
HETATM    7  C   UNL     1     -42.636  54.234 -52.334  1.00  0.00     0.066 C 
HETATM    8  C   UNL     1     -43.316  55.589 -52.583  1.00  0.00     0.221 C 
HETATM    9  C   UNL     1     -41.778  56.328 -55.727  1.00  0.00     0.089 A 
HETATM   10  H   UNL     1     -39.903  54.851 -54.249  1.00  0.00     0.161 HD
ENDROOT
BRANCH   1  11
HETATM   11  C   UNL     1     -43.674  57.453 -57.075  1.00  0.00     0.276 C 
HETATM   12  N   UNL     1     -45.055  57.462 -57.044  1.00  0.00    -0.322 N 
HETATM   13  H   UNL     1     -45.442  57.094 -56.178  1.00  0.00     0.169 HD
HETATM   14  O   UNL     1     -42.956  57.875 -57.975  1.00  0.00    -0.266 OA
BRANCH  12  15
HETATM   15  C   UNL     1     -45.945  57.906 -58.036  1.00  0.00     0.035 A 
HETATM   16  C   UNL     1     -46.099  57.279 -59.275  1.00  0.00     0.039 A 
HETATM   17  C   UNL     1     -47.009  57.767 -60.228  1.00  0.00    -0.028 A 
HETATM   18  C   UNL     1     -47.754  58.915 -59.927  1.00  0.00     0.010 A 
HETATM   19  C   UNL     1     -47.615  59.541 -58.689  1.00  0.00     0.003 A 
HETATM   20  C   UNL     1     -46.718  59.034 -57.747  1.00  0.00     0.029 A 
BRANCH  17  21
HETATM   21  C   UNL     1     -47.134  57.070 -61.567  1.00  0.00     0.147 C 
HETATM   22  C   UNL     1     -48.587  56.829 -61.949  1.00  0.00     0.044 C 
BRANCH  21  23
HETATM   23  O   UNL     1     -46.446  55.820 -61.550  1.00  0.00    -0.391 OA
HETATM   24  H   UNL     1     -46.837  55.279 -62.257  1.00  0.00     0.210 HD
ENDBRANCH  21  23
ENDBRANCH  17  21
ENDBRANCH  12  15
ENDBRANCH   1  11
BRANCH   8  25
HETATM   25  C   UNL     1     -42.957  56.626 -51.546  1.00  0.00     0.409 C 
HETATM   26  F   UNL     1     -43.981  57.471 -51.290  1.00  0.00    -0.169 F 
HETATM   27  F   UNL     1     -42.661  56.011 -50.370  1.00  0.00    -0.169 F 
HETATM   28  F   UNL     1     -41.880  57.369 -51.871  1.00  0.00    -0.169 F 
ENDBRANCH   8  25
BRANCH   6  29
HETATM   29  C   UNL     1     -40.565  52.870 -52.775  1.00  0.00    -0.035 A 
HETATM   30  C   UNL     1     -40.016  52.196 -51.672  1.00  0.00     0.012 A 
HETATM   31  C   UNL     1     -39.514  50.900 -51.815  1.00  0.00     0.043 A 
HETATM   32  C   UNL     1     -39.559  50.274 -53.057  1.00  0.00     0.116 A 
HETATM   33  F   UNL     1     -39.074  49.033 -53.188  1.00  0.00    -0.206 F 
HETATM   34  C   UNL     1     -40.099  50.918 -54.161  1.00  0.00     0.043 A 
HETATM   35  C   UNL     1     -40.604  52.212 -54.021  1.00  0.00     0.012 A 
ENDBRANCH   6  29
TORSDOF 6
ENDMDL
MODEL 3
REMARK VINA RESULT:      -9.1      1.666      2.035
REMARK  6 active torsions:
REMARK  status: ('A' for Active; 'I' for Inactive)
REMARK    1  A    between atoms: C_2  and  O_3 
REMARK    2  A    between atoms: C_2  and  C_4 
REMARK    3  A    between atoms: C_6  and  N_7 
REMARK       I    between atoms: N_7  and  C_8 
REMARK    4  A    between atoms: C_8  and  C_9 
REMARK    5  A    between atoms: C_14  and  C_15 
REMARK    6  A    between atoms: C_23  and  C_24 
ROOT
HETATM    1  C   UNL     1     -44.250  58.209 -51.507  1.00  0.00     0.148 A 
HETATM    2  N   UNL     1     -43.321  58.638 -52.396  1.00  0.00    -0.165 NA
HETATM    3  N   UNL     1     -42.944  57.503 -53.015  1.00  0.00    -0.240 N 
HETATM    4  C   UNL     1     -43.523  56.373 -52.511  1.00  0.00     0.123 A 
HETATM    5  N   UNL     1     -43.149  55.150 -52.937  1.00  0.00    -0.366 N 
HETATM    6  C   UNL     1     -41.927  54.928 -53.710  1.00  0.00     0.118 C 
HETATM    7  C   UNL     1     -41.053  56.199 -53.788  1.00  0.00     0.066 C 
HETATM    8  C   UNL     1     -41.889  57.469 -54.008  1.00  0.00     0.221 C 
HETATM    9  C   UNL     1     -44.427  56.800 -51.578  1.00  0.00     0.089 A 
HETATM   10  H   UNL     1     -43.592  54.308 -52.568  1.00  0.00     0.161 HD
ENDROOT
BRANCH   1  11
HETATM   11  C   UNL     1     -44.924  59.125 -50.570  1.00  0.00     0.276 C 
HETATM   12  N   UNL     1     -44.118  60.191 -50.217  1.00  0.00    -0.322 N 
HETATM   13  H   UNL     1     -43.220  60.193 -50.694  1.00  0.00     0.169 HD
HETATM   14  O   UNL     1     -46.065  58.906 -50.177  1.00  0.00    -0.266 OA
BRANCH  12  15
HETATM   15  C   UNL     1     -44.392  61.225 -49.308  1.00  0.00     0.035 A 
HETATM   16  C   UNL     1     -44.694  61.014 -47.960  1.00  0.00     0.039 A 
HETATM   17  C   UNL     1     -44.956  62.092 -47.096  1.00  0.00    -0.028 A 
HETATM   18  C   UNL     1     -44.932  63.394 -47.612  1.00  0.00     0.010 A 
HETATM   19  C   UNL     1     -44.622  63.615 -48.953  1.00  0.00     0.003 A 
HETATM   20  C   UNL     1     -44.349  62.535 -49.795  1.00  0.00     0.029 A 
BRANCH  17  21
HETATM   21  C   UNL     1     -45.296  61.819 -45.646  1.00  0.00     0.147 C 
HETATM   22  C   UNL     1     -44.969  63.007 -44.753  1.00  0.00     0.044 C 
BRANCH  21  23
HETATM   23  O   UNL     1     -44.592  60.673 -45.170  1.00  0.00    -0.391 OA
HETATM   24  H   UNL     1     -45.242  60.125 -44.698  1.00  0.00     0.210 HD
ENDBRANCH  21  23
ENDBRANCH  17  21
ENDBRANCH  12  15
ENDBRANCH   1  11
BRANCH   8  25
HETATM   25  C   UNL     1     -42.476  57.554 -55.397  1.00  0.00     0.409 C 
HETATM   26  F   UNL     1     -43.802  57.290 -55.410  1.00  0.00    -0.169 F 
HETATM   27  F   UNL     1     -42.330  58.818 -55.877  1.00  0.00    -0.169 F 
HETATM   28  F   UNL     1     -41.883  56.734 -56.288  1.00  0.00    -0.169 F 
ENDBRANCH   8  25
BRANCH   6  29
HETATM   29  C   UNL     1     -41.145  53.783 -53.085  1.00  0.00    -0.035 A 
HETATM   30  C   UNL     1     -40.597  52.772 -53.892  1.00  0.00     0.012 A 
HETATM   31  C   UNL     1     -39.874  51.724 -53.317  1.00  0.00     0.043 A 
HETATM   32  C   UNL     1     -39.694  51.682 -51.939  1.00  0.00     0.116 A 
HETATM   33  F   UNL     1     -39.002  50.674 -51.394  1.00  0.00    -0.206 F 
HETATM   34  C   UNL     1     -40.223  52.670 -51.120  1.00  0.00     0.043 A 
HETATM   35  C   UNL     1     -40.944  53.720 -51.691  1.00  0.00     0.012 A 
ENDBRANCH   6  29
TORSDOF 6
ENDMDL
MODEL 4
REMARK VINA RESULT:      -8.9      4.493      7.053
REMARK  6 active torsions:
REMARK  status: ('A' for Active; 'I' for Inactive)
REMARK    1  A    between atoms: C_2  and  O_3 
REMARK    2  A    between atoms: C_2  and  C_4 
REMARK    3  A    between atoms: C_6  and  N_7 
REMARK       I    between atoms: N_7  and  C_8 
REMARK    4  A    between atoms: C_8  and  C_9 
REMARK    5  A    between atoms: C_14  and  C_15 
REMARK    6  A    between atoms: C_23  and  C_24 
ROOT
HETATM    1  C   UNL     1     -42.602  57.049 -55.194  1.00  0.00     0.148 A 
HETATM    2  N   UNL     1     -43.475  56.735 -54.206  1.00  0.00    -0.165 NA
HETATM    3  N   UNL     1     -42.727  56.006 -53.357  1.00  0.00    -0.240 N 
HETATM    4  C   UNL     1     -41.452  55.775 -53.793  1.00  0.00     0.123 A 
HETATM    5  N   UNL     1     -40.623  54.954 -53.118  1.00  0.00    -0.366 N 
HETATM    6  C   UNL     1     -41.100  54.037 -52.082  1.00  0.00     0.118 C 
HETATM    7  C   UNL     1     -42.642  53.987 -52.017  1.00  0.00     0.066 C 
HETATM    8  C   UNL     1     -43.277  55.378 -52.173  1.00  0.00     0.221 C 
HETATM    9  C   UNL     1     -41.315  56.495 -54.947  1.00  0.00     0.089 A 
HETATM   10  H   UNL     1     -39.668  54.793 -53.438  1.00  0.00     0.161 HD
ENDROOT
BRANCH   1  11
HETATM   11  C   UNL     1     -43.001  57.829 -56.379  1.00  0.00     0.276 C 
HETATM   12  N   UNL     1     -41.909  58.263 -57.106  1.00  0.00    -0.322 N 
HETATM   13  H   UNL     1     -41.020  57.934 -56.733  1.00  0.00     0.169 HD
HETATM   14  O   UNL     1     -44.182  58.043 -56.630  1.00  0.00    -0.266 OA
BRANCH  12  15
HETATM   15  C   UNL     1     -41.893  59.073 -58.252  1.00  0.00     0.035 A 
HETATM   16  C   UNL     1     -41.501  60.414 -58.248  1.00  0.00     0.039 A 
HETATM   17  C   UNL     1     -41.502  61.175 -59.430  1.00  0.00    -0.028 A 
HETATM   18  C   UNL     1     -41.924  60.573 -60.622  1.00  0.00     0.010 A 
HETATM   19  C   UNL     1     -42.306  59.233 -60.639  1.00  0.00     0.003 A 
HETATM   20  C   UNL     1     -42.285  58.486 -59.459  1.00  0.00     0.029 A 
BRANCH  17  21
HETATM   21  C   UNL     1     -41.088  62.631 -59.379  1.00  0.00     0.147 C 
HETATM   22  C   UNL     1     -40.096  62.978 -60.480  1.00  0.00     0.044 C 
BRANCH  21  23
HETATM   23  O   UNL     1     -40.506  62.947 -58.115  1.00  0.00    -0.391 OA
HETATM   24  H   UNL     1     -39.957  63.737 -58.253  1.00  0.00     0.210 HD
ENDBRANCH  21  23
ENDBRANCH  17  21
ENDBRANCH  12  15
ENDBRANCH   1  11
BRANCH   8  25
HETATM   25  C   UNL     1     -43.062  56.260 -50.966  1.00  0.00     0.409 C 
HETATM   26  F   UNL     1     -42.213  57.280 -51.222  1.00  0.00    -0.169 F 
HETATM   27  F   UNL     1     -44.243  56.825 -50.599  1.00  0.00    -0.169 F 
HETATM   28  F   UNL     1     -42.601  55.600 -49.885  1.00  0.00    -0.169 F 
ENDBRANCH   8  25
BRANCH   6  29
HETATM   29  C   UNL     1     -40.534  52.650 -52.349  1.00  0.00    -0.035 A 
HETATM   30  C   UNL     1     -40.478  52.145 -53.658  1.00  0.00     0.012 A 
HETATM   31  C   UNL     1     -39.953  50.874 -53.904  1.00  0.00     0.043 A 
HETATM   32  C   UNL     1     -39.481  50.105 -52.845  1.00  0.00     0.116 A 
HETATM   33  F   UNL     1     -38.980  48.887 -53.086  1.00  0.00    -0.206 F 
HETATM   34  C   UNL     1     -39.523  50.582 -51.542  1.00  0.00     0.043 A 
HETATM   35  C   UNL     1     -40.045  51.852 -51.295  1.00  0.00     0.012 A 
ENDBRANCH   6  29
TORSDOF 6
ENDMDL
MODEL 5
REMARK VINA RESULT:      -8.7      4.685      7.122
REMARK  6 active torsions:
REMARK  status: ('A' for Active; 'I' for Inactive)
REMARK    1  A    between atoms: C_2  and  O_3 
REMARK    2  A    between atoms: C_2  and  C_4 
REMARK    3  A    between atoms: C_6  and  N_7 
REMARK       I    between atoms: N_7  and  C_8 
REMARK    4  A    between atoms: C_8  and  C_9 
REMARK    5  A    between atoms: C_14  and  C_15 
REMARK    6  A    between atoms: C_23  and  C_24 
ROOT
HETATM    1  C   UNL     1     -43.090  56.924 -56.009  1.00  0.00     0.148 A 
HETATM    2  N   UNL     1     -43.835  56.738 -54.892  1.00  0.00    -0.165 NA
HETATM    3  N   UNL     1     -42.978  56.126 -54.052  1.00  0.00    -0.240 N 
HETATM    4  C   UNL     1     -41.761  55.844 -54.603  1.00  0.00     0.123 A 
HETATM    5  N   UNL     1     -40.843  55.120 -53.933  1.00  0.00    -0.366 N 
HETATM    6  C   UNL     1     -41.178  54.343 -52.738  1.00  0.00     0.118 C 
HETATM    7  C   UNL     1     -42.700  54.299 -52.484  1.00  0.00     0.066 C 
HETATM    8  C   UNL     1     -43.374  55.656 -52.740  1.00  0.00     0.221 C 
HETATM    9  C   UNL     1     -41.774  56.409 -55.849  1.00  0.00     0.089 A 
HETATM   10  H   UNL     1     -39.930  54.922 -54.341  1.00  0.00     0.161 HD
ENDROOT
BRANCH   1  11
HETATM   11  C   UNL     1     -43.641  57.542 -57.228  1.00  0.00     0.276 C 
HETATM   12  N   UNL     1     -44.995  57.305 -57.362  1.00  0.00    -0.322 N 
HETATM   13  H   UNL     1     -45.394  56.790 -56.581  1.00  0.00     0.169 HD
HETATM   14  O   UNL     1     -42.925  58.172 -58.000  1.00  0.00    -0.266 OA
BRANCH  12  15
HETATM   15  C   UNL     1     -45.844  57.682 -58.416  1.00  0.00     0.035 A 
HETATM   16  C   UNL     1     -46.600  58.857 -58.419  1.00  0.00     0.039 A 
HETATM   17  C   UNL     1     -47.431  59.183 -59.506  1.00  0.00    -0.028 A 
HETATM   18  C   UNL     1     -47.509  58.297 -60.588  1.00  0.00     0.010 A 
HETATM   19  C   UNL     1     -46.750  57.128 -60.598  1.00  0.00     0.003 A 
HETATM   20  C   UNL     1     -45.918  56.825 -59.518  1.00  0.00     0.029 A 
BRANCH  17  21
HETATM   21  C   UNL     1     -48.248  60.457 -59.463  1.00  0.00     0.147 C 
HETATM   22  C   UNL     1     -48.702  60.794 -58.050  1.00  0.00     0.044 C 
BRANCH  21  23
HETATM   23  O   UNL     1     -49.395  60.349 -60.305  1.00  0.00    -0.391 OA
HETATM   24  H   UNL     1     -49.288  59.528 -60.815  1.00  0.00     0.210 HD
ENDBRANCH  21  23
ENDBRANCH  17  21
ENDBRANCH  12  15
ENDBRANCH   1  11
BRANCH   8  25
HETATM   25  C   UNL     1     -43.034  56.688 -51.690  1.00  0.00     0.409 C 
HETATM   26  F   UNL     1     -42.053  57.526 -52.094  1.00  0.00    -0.169 F 
HETATM   27  F   UNL     1     -44.124  57.461 -51.443  1.00  0.00    -0.169 F 
HETATM   28  F   UNL     1     -42.662  56.158 -50.508  1.00  0.00    -0.169 F 
ENDBRANCH   8  25
BRANCH   6  29
HETATM   29  C   UNL     1     -40.623  52.935 -52.891  1.00  0.00    -0.035 A 
HETATM   30  C   UNL     1     -40.007  52.292 -51.805  1.00  0.00     0.012 A 
HETATM   31  C   UNL     1     -39.503  50.996 -51.944  1.00  0.00     0.043 A 
HETATM   32  C   UNL     1     -39.614  50.339 -53.164  1.00  0.00     0.116 A 
HETATM   33  F   UNL     1     -39.128  49.098 -53.292  1.00  0.00    -0.206 F 
HETATM   34  C   UNL     1     -40.221  50.951 -54.252  1.00  0.00     0.043 A 
HETATM   35  C   UNL     1     -40.727  52.244 -54.115  1.00  0.00     0.012 A 
ENDBRANCH   6  29
TORSDOF 6
ENDMDL
MODEL 6
REMARK VINA RESULT:      -8.7      5.754      9.942
REMARK  6 active torsions:
REMARK  status: ('A' for Active; 'I' for Inactive)
REMARK    1  A    between atoms: C_2  and  O_3 
REMARK    2  A    between atoms: C_2  and  C_4 
REMARK    3  A    between atoms: C_6  and  N_7 
REMARK       I    between atoms: N_7  and  C_8 
REMARK    4  A    between atoms: C_8  and  C_9 
REMARK    5  A    between atoms: C_14  and  C_15 
REMARK    6  A    between atoms: C_23  and  C_24 
ROOT
HETATM    1  C   UNL     1     -43.187  55.907 -55.927  1.00  0.00     0.148 A 
HETATM    2  N   UNL     1     -42.995  55.570 -57.226  1.00  0.00    -0.165 NA
HETATM    3  N   UNL     1     -43.361  56.684 -57.887  1.00  0.00    -0.240 N 
HETATM    4  C   UNL     1     -43.848  57.676 -57.084  1.00  0.00     0.123 A 
HETATM    5  N   UNL     1     -44.376  58.801 -57.608  1.00  0.00    -0.366 N 
HETATM    6  C   UNL     1     -44.741  58.911 -59.021  1.00  0.00     0.118 C 
HETATM    7  C   UNL     1     -44.641  57.555 -59.753  1.00  0.00     0.066 C 
HETATM    8  C   UNL     1     -43.397  56.757 -59.334  1.00  0.00     0.221 C 
HETATM    9  C   UNL     1     -43.686  57.234 -55.801  1.00  0.00     0.089 A 
HETATM   10  H   UNL     1     -44.727  59.546 -57.006  1.00  0.00     0.161 HD
ENDROOT
BRANCH   1  11
HETATM   11  C   UNL     1     -42.941  54.961 -54.824  1.00  0.00     0.276 C 
HETATM   12  N   UNL     1     -41.592  54.766 -54.599  1.00  0.00    -0.322 N 
HETATM   13  H   UNL     1     -40.997  55.339 -55.194  1.00  0.00     0.169 HD
HETATM   14  O   UNL     1     -43.870  54.432 -54.222  1.00  0.00    -0.266 OA
BRANCH  12  15
HETATM   15  C   UNL     1     -40.979  53.900 -53.680  1.00  0.00     0.035 A 
HETATM   16  C   UNL     1     -40.508  52.626 -54.010  1.00  0.00     0.039 A 
HETATM   17  C   UNL     1     -39.899  51.805 -53.046  1.00  0.00    -0.028 A 
HETATM   18  C   UNL     1     -39.786  52.274 -51.730  1.00  0.00     0.010 A 
HETATM   19  C   UNL     1     -40.243  53.546 -51.394  1.00  0.00     0.003 A 
HETATM   20  C   UNL     1     -40.832  54.357 -52.366  1.00  0.00     0.029 A 
BRANCH  17  21
HETATM   21  C   UNL     1     -39.418  50.424 -53.440  1.00  0.00     0.147 C 
HETATM   22  C   UNL     1     -40.104  49.922 -54.702  1.00  0.00     0.044 C 
BRANCH  21  23
HETATM   23  O   UNL     1     -39.646  49.490 -52.386  1.00  0.00    -0.391 OA
HETATM   24  H   UNL     1     -38.989  48.781 -52.497  1.00  0.00     0.210 HD
ENDBRANCH  21  23
ENDBRANCH  17  21
ENDBRANCH  12  15
ENDBRANCH   1  11
BRANCH   8  25
HETATM   25  C   UNL     1     -42.112  57.353 -59.859  1.00  0.00     0.409 C 
HETATM   26  F   UNL     1     -41.437  58.036 -58.907  1.00  0.00    -0.169 F 
HETATM   27  F   UNL     1     -41.287  56.358 -60.279  1.00  0.00    -0.169 F 
HETATM   28  F   UNL     1     -42.286  58.177 -60.912  1.00  0.00    -0.169 F 
ENDBRANCH   8  25
BRANCH   6  29
HETATM   29  C   UNL     1     -46.153  59.469 -59.127  1.00  0.00    -0.035 A 
HETATM   30  C   UNL     1     -46.627  59.978 -60.347  1.00  0.00     0.012 A 
HETATM   31  C   UNL     1     -47.925  60.484 -60.444  1.00  0.00     0.043 A 
HETATM   32  C   UNL     1     -48.753  60.484 -59.327  1.00  0.00     0.116 A 
HETATM   33  F   UNL     1     -49.995  60.972 -59.426  1.00  0.00    -0.206 F 
HETATM   34  C   UNL     1     -48.309  59.984 -58.110  1.00  0.00     0.043 A 
HETATM   35  C   UNL     1     -47.014  59.475 -58.011  1.00  0.00     0.012 A 
ENDBRANCH   6  29
TORSDOF 6
ENDMDL
MODEL 7
REMARK VINA RESULT:      -8.6      5.703      9.561
REMARK  6 active torsions:
REMARK  status: ('A' for Active; 'I' for Inactive)
REMARK    1  A    between atoms: C_2  and  O_3 
REMARK    2  A    between atoms: C_2  and  C_4 
REMARK    3  A    between atoms: C_6  and  N_7 
REMARK       I    between atoms: N_7  and  C_8 
REMARK    4  A    between atoms: C_8  and  C_9 
REMARK    5  A    between atoms: C_14  and  C_15 
REMARK    6  A    between atoms: C_23  and  C_24 
ROOT
HETATM    1  C   UNL     1     -43.100  56.407 -55.396  1.00  0.00     0.148 A 
HETATM    2  N   UNL     1     -44.214  57.177 -55.454  1.00  0.00    -0.165 NA
HETATM    3  N   UNL     1     -44.085  57.811 -56.635  1.00  0.00    -0.240 N 
HETATM    4  C   UNL     1     -42.914  57.546 -57.287  1.00  0.00     0.123 A 
HETATM    5  N   UNL     1     -42.580  58.203 -58.416  1.00  0.00    -0.366 N 
HETATM    6  C   UNL     1     -43.266  59.423 -58.844  1.00  0.00     0.118 C 
HETATM    7  C   UNL     1     -44.239  59.949 -57.767  1.00  0.00     0.066 C 
HETATM    8  C   UNL     1     -45.025  58.817 -57.088  1.00  0.00     0.221 C 
HETATM    9  C   UNL     1     -42.282  56.586 -56.546  1.00  0.00     0.089 A 
HETATM   10  H   UNL     1     -41.711  57.994 -58.907  1.00  0.00     0.161 HD
ENDROOT
BRANCH   1  11
HETATM   11  C   UNL     1     -42.798  55.547 -54.237  1.00  0.00     0.276 C 
HETATM   12  N   UNL     1     -41.556  54.951 -54.345  1.00  0.00    -0.322 N 
HETATM   13  H   UNL     1     -41.041  55.239 -55.175  1.00  0.00     0.169 HD
HETATM   14  O   UNL     1     -43.602  55.410 -53.321  1.00  0.00    -0.266 OA
BRANCH  12  15
HETATM   15  C   UNL     1     -40.955  54.029 -53.473  1.00  0.00     0.035 A 
HETATM   16  C   UNL     1     -40.530  52.757 -53.863  1.00  0.00     0.039 A 
HETATM   17  C   UNL     1     -39.929  51.878 -52.944  1.00  0.00    -0.028 A 
HETATM   18  C   UNL     1     -39.779  52.289 -51.614  1.00  0.00     0.010 A 
HETATM   19  C   UNL     1     -40.190  53.561 -51.218  1.00  0.00     0.003 A 
HETATM   20  C   UNL     1     -40.770  54.428 -52.146  1.00  0.00     0.029 A 
BRANCH  17  21
HETATM   21  C   UNL     1     -39.499  50.500 -53.403  1.00  0.00     0.147 C 
HETATM   22  C   UNL     1     -40.346  49.998 -54.564  1.00  0.00     0.044 C 
BRANCH  21  23
HETATM   23  O   UNL     1     -39.581  49.563 -52.330  1.00  0.00    -0.391 OA
HETATM   24  H   UNL     1     -39.771  48.698 -52.732  1.00  0.00     0.210 HD
ENDBRANCH  21  23
ENDBRANCH  17  21
ENDBRANCH  12  15
ENDBRANCH   1  11
BRANCH   8  25
HETATM   25  C   UNL     1     -46.060  58.194 -57.995  1.00  0.00     0.409 C 
HETATM   26  F   UNL     1     -45.595  57.089 -58.620  1.00  0.00    -0.169 F 
HETATM   27  F   UNL     1     -47.132  57.798 -57.258  1.00  0.00    -0.169 F 
HETATM   28  F   UNL     1     -46.532  59.034 -58.938  1.00  0.00    -0.169 F 
ENDBRANCH   8  25
BRANCH   6  29
HETATM   29  C   UNL     1     -42.227  60.482 -59.185  1.00  0.00    -0.035 A 
HETATM   30  C   UNL     1     -42.069  60.921 -60.509  1.00  0.00     0.012 A 
HETATM   31  C   UNL     1     -41.120  61.898 -60.821  1.00  0.00     0.043 A 
HETATM   32  C   UNL     1     -40.328  62.438 -59.813  1.00  0.00     0.116 A 
HETATM   33  F   UNL     1     -39.419  63.372 -60.118  1.00  0.00    -0.206 F 
HETATM   34  C   UNL     1     -40.468  62.023 -58.496  1.00  0.00     0.043 A 
HETATM   35  C   UNL     1     -41.417  61.049 -58.182  1.00  0.00     0.012 A 
ENDBRANCH   6  29
TORSDOF 6
ENDMDL
MODEL 8
REMARK VINA RESULT:      -8.4      1.682      2.156
REMARK  6 active torsions:
REMARK  status: ('A' for Active; 'I' for Inactive)
REMARK    1  A    between atoms: C_2  and  O_3 
REMARK    2  A    between atoms: C_2  and  C_4 
REMARK    3  A    between atoms: C_6  and  N_7 
REMARK       I    between atoms: N_7  and  C_8 
REMARK    4  A    between atoms: C_8  and  C_9 
REMARK    5  A    between atoms: C_14  and  C_15 
REMARK    6  A    between atoms: C_23  and  C_24 
ROOT
HETATM    1  C   UNL     1     -43.152  58.738 -51.772  1.00  0.00     0.148 A 
HETATM    2  N   UNL     1     -42.558  58.805 -52.988  1.00  0.00    -0.165 NA
HETATM    3  N   UNL     1     -42.519  57.518 -53.381  1.00  0.00    -0.240 N 
HETATM    4  C   UNL     1     -42.982  56.634 -52.447  1.00  0.00     0.123 A 
HETATM    5  N   UNL     1     -42.887  55.303 -52.639  1.00  0.00    -0.366 N 
HETATM    6  C   UNL     1     -42.034  54.720 -53.676  1.00  0.00     0.118 C 
HETATM    7  C   UNL     1     -41.135  55.780 -54.350  1.00  0.00     0.066 C 
HETATM    8  C   UNL     1     -41.882  57.096 -54.612  1.00  0.00     0.221 C 
HETATM    9  C   UNL     1     -43.465  57.395 -51.419  1.00  0.00     0.089 A 
HETATM   10  H   UNL     1     -43.245  54.646 -51.947  1.00  0.00     0.161 HD
ENDROOT
BRANCH   1  11
HETATM   11  C   UNL     1     -43.377  59.932 -50.939  1.00  0.00     0.276 C 
HETATM   12  N   UNL     1     -44.631  59.930 -50.359  1.00  0.00    -0.322 N 
HETATM   13  H   UNL     1     -45.169  59.090 -50.562  1.00  0.00     0.169 HD
HETATM   14  O   UNL     1     -42.516  60.797 -50.823  1.00  0.00    -0.266 OA
BRANCH  12  15
HETATM   15  C   UNL     1     -45.220  60.920 -49.555  1.00  0.00     0.035 A 
HETATM   16  C   UNL     1     -46.165  61.837 -50.023  1.00  0.00     0.039 A 
HETATM   17  C   UNL     1     -46.723  62.805 -49.169  1.00  0.00    -0.028 A 
HETATM   18  C   UNL     1     -46.301  62.853 -47.834  1.00  0.00     0.010 A 
HETATM   19  C   UNL     1     -45.368  61.935 -47.356  1.00  0.00     0.003 A 
HETATM   20  C   UNL     1     -44.834  60.970 -48.212  1.00  0.00     0.029 A 
BRANCH  17  21
HETATM   21  C   UNL     1     -47.730  63.793 -49.719  1.00  0.00     0.147 C 
HETATM   22  C   UNL     1     -48.962  63.901 -48.832  1.00  0.00     0.044 C 
BRANCH  21  23
HETATM   23  O   UNL     1     -48.138  63.418 -51.034  1.00  0.00    -0.391 OA
HETATM   24  H   UNL     1     -47.980  62.461 -51.110  1.00  0.00     0.210 HD
ENDBRANCH  21  23
ENDBRANCH  17  21
ENDBRANCH  12  15
ENDBRANCH   1  11
BRANCH   8  25
HETATM   25  C   UNL     1     -42.906  56.981 -55.717  1.00  0.00     0.409 C 
HETATM   26  F   UNL     1     -42.961  58.093 -56.483  1.00  0.00    -0.169 F 
HETATM   27  F   UNL     1     -42.567  55.958 -56.547  1.00  0.00    -0.169 F 
HETATM   28  F   UNL     1     -44.153  56.720 -55.277  1.00  0.00    -0.169 F 
ENDBRANCH   8  25
BRANCH   6  29
HETATM   29  C   UNL     1     -41.185  53.619 -53.057  1.00  0.00    -0.035 A 
HETATM   30  C   UNL     1     -41.035  53.536 -51.663  1.00  0.00     0.012 A 
HETATM   31  C   UNL     1     -40.261  52.520 -51.096  1.00  0.00     0.043 A 
HETATM   32  C   UNL     1     -39.637  51.586 -51.916  1.00  0.00     0.116 A 
HETATM   33  F   UNL     1     -38.895  50.617 -51.366  1.00  0.00    -0.206 F 
HETATM   34  C   UNL     1     -39.773  51.645 -53.296  1.00  0.00     0.043 A 
HETATM   35  C   UNL     1     -40.547  52.656 -53.866  1.00  0.00     0.012 A 
ENDBRANCH   6  29
TORSDOF 6
ENDMDL
MODEL 9
REMARK VINA RESULT:      -8.2      3.424      9.594
REMARK  6 active torsions:
REMARK  status: ('A' for Active; 'I' for Inactive)
REMARK    1  A    between atoms: C_2  and  O_3 
REMARK    2  A    between atoms: C_2  and  C_4 
REMARK    3  A    between atoms: C_6  and  N_7 
REMARK       I    between atoms: N_7  and  C_8 
REMARK    4  A    between atoms: C_8  and  C_9 
REMARK    5  A    between atoms: C_14  and  C_15 
REMARK    6  A    between atoms: C_23  and  C_24 
ROOT
HETATM    1  C   UNL     1     -43.254  56.896 -51.901  1.00  0.00     0.148 A 
HETATM    2  N   UNL     1     -44.375  57.355 -52.509  1.00  0.00    -0.165 NA
HETATM    3  N   UNL     1     -44.380  58.663 -52.192  1.00  0.00    -0.240 N 
HETATM    4  C   UNL     1     -43.370  59.039 -51.353  1.00  0.00     0.123 A 
HETATM    5  N   UNL     1     -43.316  60.285 -50.841  1.00  0.00    -0.366 N 
HETATM    6  C   UNL     1     -44.455  61.203 -50.890  1.00  0.00     0.118 C 
HETATM    7  C   UNL     1     -45.737  60.507 -51.396  1.00  0.00     0.066 C 
HETATM    8  C   UNL     1     -45.460  59.553 -52.568  1.00  0.00     0.221 C 
HETATM    9  C   UNL     1     -42.580  57.933 -51.199  1.00  0.00     0.089 A 
HETATM   10  H   UNL     1     -42.553  60.567 -50.225  1.00  0.00     0.161 HD
ENDROOT
BRANCH   1  11
HETATM   11  C   UNL     1     -42.855  55.478 -51.952  1.00  0.00     0.276 C 
HETATM   12  N   UNL     1     -41.662  55.298 -52.625  1.00  0.00    -0.322 N 
HETATM   13  H   UNL     1     -41.236  56.171 -52.930  1.00  0.00     0.169 HD
HETATM   14  O   UNL     1     -43.552  54.604 -51.446  1.00  0.00    -0.266 OA
BRANCH  12  15
HETATM   15  C   UNL     1     -41.004  54.095 -52.923  1.00  0.00     0.035 A 
HETATM   16  C   UNL     1     -40.613  53.165 -51.956  1.00  0.00     0.039 A 
HETATM   17  C   UNL     1     -39.959  51.974 -52.316  1.00  0.00    -0.028 A 
HETATM   18  C   UNL     1     -39.682  51.735 -53.668  1.00  0.00     0.010 A 
HETATM   19  C   UNL     1     -40.077  52.652 -54.641  1.00  0.00     0.003 A 
HETATM   20  C   UNL     1     -40.740  53.823 -54.269  1.00  0.00     0.029 A 
BRANCH  17  21
HETATM   21  C   UNL     1     -39.536  51.000 -51.235  1.00  0.00     0.147 C 
HETATM   22  C   UNL     1     -39.595  49.557 -51.716  1.00  0.00     0.044 C 
BRANCH  21  23
HETATM   23  O   UNL     1     -40.362  51.138 -50.081  1.00  0.00    -0.391 OA
HETATM   24  H   UNL     1     -40.134  50.402 -49.487  1.00  0.00     0.210 HD
ENDBRANCH  21  23
ENDBRANCH  17  21
ENDBRANCH  12  15
ENDBRANCH   1  11
BRANCH   8  25
HETATM   25  C   UNL     1     -45.117  60.279 -53.848  1.00  0.00     0.409 C 
HETATM   26  F   UNL     1     -43.783  60.428 -54.011  1.00  0.00    -0.169 F 
HETATM   27  F   UNL     1     -45.558  59.558 -54.912  1.00  0.00    -0.169 F 
HETATM   28  F   UNL     1     -45.684  61.498 -53.949  1.00  0.00    -0.169 F 
ENDBRANCH   8  25
BRANCH   6  29
HETATM   29  C   UNL     1     -44.679  61.789 -49.504  1.00  0.00    -0.035 A 
HETATM   30  C   UNL     1     -44.364  63.132 -49.241  1.00  0.00     0.012 A 
HETATM   31  C   UNL     1     -44.576  63.672 -47.970  1.00  0.00     0.043 A 
HETATM   32  C   UNL     1     -45.103  62.875 -46.960  1.00  0.00     0.116 A 
HETATM   33  F   UNL     1     -45.303  63.397 -45.744  1.00  0.00    -0.206 F 
HETATM   34  C   UNL     1     -45.426  61.545 -47.196  1.00  0.00     0.043 A 
HETATM   35  C   UNL     1     -45.218  61.004 -48.465  1.00  0.00     0.012 A 
ENDBRANCH   6  29
TORSDOF 6
ENDMDL
MODEL 10
REMARK VINA RESULT:      -8.2      2.474      4.607
REMARK  6 active torsions:
REMARK  status: ('A' for Active; 'I' for Inactive)
REMARK    1  A    between atoms: C_2  and  O_3 
REMARK    2  A    between atoms: C_2  and  C_4 
REMARK    3  A    between atoms: C_6  and  N_7 
REMARK       I    between atoms: N_7  and  C_8 
REMARK    4  A    between atoms: C_8  and  C_9 
REMARK    5  A    between atoms: C_14  and  C_15 
REMARK    6  A    between atoms: C_23  and  C_24 
ROOT
HETATM    1  C   UNL     1     -42.224  58.553 -51.709  1.00  0.00     0.148 A 
HETATM    2  N   UNL     1     -42.963  57.421 -51.609  1.00  0.00    -0.165 NA
HETATM    3  N   UNL     1     -42.644  56.748 -52.731  1.00  0.00    -0.240 N 
HETATM    4  C   UNL     1     -41.808  57.428 -53.572  1.00  0.00     0.123 A 
HETATM    5  N   UNL     1     -41.503  56.944 -54.792  1.00  0.00    -0.366 N 
HETATM    6  C   UNL     1     -42.255  55.854 -55.414  1.00  0.00     0.118 C 
HETATM    7  C   UNL     1     -43.522  55.492 -54.609  1.00  0.00     0.066 C 
HETATM    8  C   UNL     1     -43.271  55.493 -53.094  1.00  0.00     0.221 C 
HETATM    9  C   UNL     1     -41.460  58.572 -52.909  1.00  0.00     0.089 A 
HETATM   10  H   UNL     1     -40.868  57.447 -55.412  1.00  0.00     0.161 HD
ENDROOT
BRANCH   1  11
HETATM   11  C   UNL     1     -42.281  59.621 -50.695  1.00  0.00     0.276 C 
HETATM   12  N   UNL     1     -43.561  60.116 -50.537  1.00  0.00    -0.322 N 
HETATM   13  H   UNL     1     -44.254  59.633 -51.104  1.00  0.00     0.169 HD
HETATM   14  O   UNL     1     -41.272  59.991 -50.105  1.00  0.00    -0.266 OA
BRANCH  12  15
HETATM   15  C   UNL     1     -43.991  61.169 -49.713  1.00  0.00     0.035 A 
HETATM   16  C   UNL     1     -44.820  60.995 -48.601  1.00  0.00     0.039 A 
HETATM   17  C   UNL     1     -45.215  62.089 -47.811  1.00  0.00    -0.028 A 
HETATM   18  C   UNL     1     -44.780  63.373 -48.167  1.00  0.00     0.010 A 
HETATM   19  C   UNL     1     -43.945  63.555 -49.268  1.00  0.00     0.003 A 
HETATM   20  C   UNL     1     -43.549  62.457 -50.033  1.00  0.00     0.029 A 
BRANCH  17  21
HETATM   21  C   UNL     1     -46.128  61.860 -46.625  1.00  0.00     0.147 C 
HETATM   22  C   UNL     1     -45.781  60.579 -45.880  1.00  0.00     0.044 C 
BRANCH  21  23
HETATM   23  O   UNL     1     -47.491  61.799 -47.042  1.00  0.00    -0.391 OA
HETATM   24  H   UNL     1     -47.909  62.624 -46.743  1.00  0.00     0.210 HD
ENDBRANCH  21  23
ENDBRANCH  17  21
ENDBRANCH  12  15
ENDBRANCH   1  11
BRANCH   8  25
HETATM   25  C   UNL     1     -42.416  54.333 -52.639  1.00  0.00     0.409 C 
HETATM   26  F   UNL     1     -42.921  53.722 -51.544  1.00  0.00    -0.169 F 
HETATM   27  F   UNL     1     -42.369  53.391 -53.619  1.00  0.00    -0.169 F 
HETATM   28  F   UNL     1     -41.139  54.671 -52.372  1.00  0.00    -0.169 F 
ENDBRANCH   8  25
BRANCH   6  29
HETATM   29  C   UNL     1     -42.624  56.254 -56.835  1.00  0.00    -0.035 A 
HETATM   30  C   UNL     1     -42.444  57.577 -57.270  1.00  0.00     0.012 A 
HETATM   31  C   UNL     1     -42.777  57.943 -58.577  1.00  0.00     0.043 A 
HETATM   32  C   UNL     1     -43.289  56.990 -59.452  1.00  0.00     0.116 A 
HETATM   33  F   UNL     1     -43.608  57.347 -60.702  1.00  0.00    -0.206 F 
HETATM   34  C   UNL     1     -43.474  55.676 -59.047  1.00  0.00     0.043 A 
HETATM   35  C   UNL     1     -43.140  55.307 -57.743  1.00  0.00     0.012 A 
ENDBRANCH   6  29
TORSDOF 6
ENDMDL
