MODEL 1
REMARK VINA RESULT:      -7.9      0.000      0.000
REMARK  4 active torsions:
REMARK  status: ('A' for Active; 'I' for Inactive)
REMARK    1  A    between atoms: C_2  and  C_3 
REMARK    2  A    between atoms: C_6  and  C_7 
REMARK    3  A    between atoms: C_10  and  N_11 
REMARK    4  A    between atoms: N_11  and  C_12 
ROOT
HETATM    1  C   UNL     1     -41.610  56.807 -51.275  1.00  0.00     0.076 C 
HETATM    2  C   UNL     1     -42.831  57.439 -51.909  1.00  0.00     0.144 C 
HETATM    3  S   UNL     1     -42.620  59.195 -52.242  1.00  0.00    -0.087 SA
HETATM    4  C   UNL     1     -41.883  59.645 -50.754  1.00  0.00     0.157 C 
HETATM    5  N   UNL     1     -41.149  58.758 -50.097  1.00  0.00    -0.257 N 
HETATM    6  H   UNL     1     -40.681  59.122 -49.273  1.00  0.00     0.191 HD
HETATM    7  N   UNL     1     -40.849  57.405 -50.402  1.00  0.00    -0.176 NA
ENDROOT
BRANCH   1   8
HETATM    8  C   UNL     1     -41.311  55.393 -51.534  1.00  0.00     0.019 A 
HETATM    9  C   UNL     1     -40.922  54.757 -52.772  1.00  0.00     0.005 A 
HETATM   10  C   UNL     1     -40.677  53.407 -52.500  1.00  0.00     0.049 A 
HETATM   11  C   UNL     1     -40.741  55.204 -54.100  1.00  0.00     0.014 A 
HETATM   12  C   UNL     1     -40.234  52.482 -53.468  1.00  0.00    -0.031 A 
HETATM   13  N   UNL     1     -40.947  53.214 -51.166  1.00  0.00    -0.364 N 
HETATM   14  C   UNL     1     -40.074  52.975 -54.774  1.00  0.00     0.009 A 
HETATM   15  C   UNL     1     -40.323  54.307 -55.087  1.00  0.00     0.002 A 
HETATM   16  C   UNL     1     -41.318  54.392 -50.577  1.00  0.00     0.102 A 
HETATM   17  H   UNL     1     -40.867  52.322 -50.694  1.00  0.00     0.165 HD
BRANCH  12  18
HETATM   18  C   UNL     1     -39.951  51.029 -53.173  1.00  0.00     0.036 C 
HETATM   19  C   UNL     1     -39.947  50.184 -54.437  1.00  0.00     0.010 C 
ENDBRANCH  12  18
ENDBRANCH   1   8
BRANCH   4  20
HETATM   20  N   UNL     1     -42.103  60.889 -50.374  1.00  0.00    -0.365 N 
HETATM   21  H   UNL     1     -41.266  61.348 -50.026  1.00  0.00     0.162 HD
BRANCH  20  22
HETATM   22  C   UNL     1     -43.373  61.619 -50.380  1.00  0.00     0.083 C 
HETATM   23  C   UNL     1     -44.204  61.224 -49.165  1.00  0.00     0.025 C 
HETATM   24  C   UNL     1     -45.140  62.407 -48.997  1.00  0.00     0.002 C 
HETATM   25  C   UNL     1     -44.252  63.613 -49.270  1.00  0.00     0.002 C 
HETATM   26  C   UNL     1     -43.161  63.124 -50.224  1.00  0.00     0.025 C 
ENDBRANCH  20  22
ENDBRANCH   4  20
TORSDOF 4
ENDMDL
MODEL 2
REMARK VINA RESULT:      -7.7      4.887      7.075
REMARK  4 active torsions:
REMARK  status: ('A' for Active; 'I' for Inactive)
REMARK    1  A    between atoms: C_2  and  C_3 
REMARK    2  A    between atoms: C_6  and  C_7 
REMARK    3  A    between atoms: C_10  and  N_11 
REMARK    4  A    between atoms: N_11  and  C_12 
ROOT
HETATM    1  C   UNL     1     -42.408  55.435 -55.366  1.00  0.00     0.076 C 
HETATM    2  C   UNL     1     -41.743  56.698 -55.869  1.00  0.00     0.144 C 
HETATM    3  S   UNL     1     -42.739  57.584 -57.078  1.00  0.00    -0.087 SA
HETATM    4  C   UNL     1     -43.241  56.237 -58.024  1.00  0.00     0.157 C 
HETATM    5  N   UNL     1     -43.367  55.049 -57.449  1.00  0.00    -0.257 N 
HETATM    6  H   UNL     1     -43.746  54.325 -58.050  1.00  0.00     0.191 HD
HETATM    7  N   UNL     1     -43.132  54.645 -56.108  1.00  0.00    -0.176 NA
ENDROOT
BRANCH   1   8
HETATM    8  C   UNL     1     -42.138  54.970 -53.999  1.00  0.00     0.019 A 
HETATM    9  C   UNL     1     -41.293  53.884 -53.557  1.00  0.00     0.005 A 
HETATM   10  C   UNL     1     -41.301  53.878 -52.159  1.00  0.00     0.049 A 
HETATM   11  C   UNL     1     -40.508  52.911 -54.215  1.00  0.00     0.014 A 
HETATM   12  C   UNL     1     -40.551  52.978 -51.376  1.00  0.00    -0.031 A 
HETATM   13  N   UNL     1     -42.148  54.886 -51.761  1.00  0.00    -0.364 N 
HETATM   14  C   UNL     1     -39.791  52.026 -52.077  1.00  0.00     0.009 A 
HETATM   15  C   UNL     1     -39.769  51.990 -53.467  1.00  0.00     0.002 A 
HETATM   16  C   UNL     1     -42.647  55.550 -52.849  1.00  0.00     0.102 A 
HETATM   17  H   UNL     1     -42.356  55.104 -50.795  1.00  0.00     0.165 HD
BRANCH  12  18
HETATM   18  C   UNL     1     -40.542  52.981 -49.867  1.00  0.00     0.036 C 
HETATM   19  C   UNL     1     -39.735  54.141 -49.306  1.00  0.00     0.010 C 
ENDBRANCH  12  18
ENDBRANCH   1   8
BRANCH   4  20
HETATM   20  N   UNL     1     -43.484  56.503 -59.293  1.00  0.00    -0.365 N 
HETATM   21  H   UNL     1     -42.659  56.404 -59.879  1.00  0.00     0.162 HD
BRANCH  20  22
HETATM   22  C   UNL     1     -44.747  56.933 -59.895  1.00  0.00     0.083 C 
HETATM   23  C   UNL     1     -45.571  55.716 -60.297  1.00  0.00     0.025 C 
HETATM   24  C   UNL     1     -46.985  56.264 -60.343  1.00  0.00     0.002 C 
HETATM   25  C   UNL     1     -47.057  57.180 -59.129  1.00  0.00     0.002 C 
HETATM   26  C   UNL     1     -45.629  57.674 -58.891  1.00  0.00     0.025 C 
ENDBRANCH  20  22
ENDBRANCH   4  20
TORSDOF 4
ENDMDL
MODEL 3
REMARK VINA RESULT:      -7.6      4.308      6.109
REMARK  4 active torsions:
REMARK  status: ('A' for Active; 'I' for Inactive)
REMARK    1  A    between atoms: C_2  and  C_3 
REMARK    2  A    between atoms: C_6  and  C_7 
REMARK    3  A    between atoms: C_10  and  N_11 
REMARK    4  A    between atoms: N_11  and  C_12 
ROOT
HETATM    1  C   UNL     1     -42.453  55.966 -54.253  1.00  0.00     0.076 C 
HETATM    2  C   UNL     1     -41.643  57.232 -54.432  1.00  0.00     0.144 C 
HETATM    3  S   UNL     1     -42.638  58.635 -54.959  1.00  0.00    -0.087 SA
HETATM    4  C   UNL     1     -43.581  57.838 -56.157  1.00  0.00     0.157 C 
HETATM    5  N   UNL     1     -43.844  56.546 -56.024  1.00  0.00    -0.257 N 
HETATM    6  H   UNL     1     -44.473  56.166 -56.725  1.00  0.00     0.191 HD
HETATM    7  N   UNL     1     -43.453  55.625 -55.016  1.00  0.00    -0.176 NA
ENDROOT
BRANCH   1   8
HETATM    8  C   UNL     1     -42.036  54.975 -53.253  1.00  0.00     0.019 A 
HETATM    9  C   UNL     1     -41.203  53.806 -53.421  1.00  0.00     0.005 A 
HETATM   10  C   UNL     1     -41.032  53.219 -52.164  1.00  0.00     0.049 A 
HETATM   11  C   UNL     1     -40.564  53.198 -54.525  1.00  0.00     0.014 A 
HETATM   12  C   UNL     1     -40.238  52.076 -51.936  1.00  0.00    -0.031 A 
HETATM   13  N   UNL     1     -41.764  53.966 -51.272  1.00  0.00    -0.364 N 
HETATM   14  C   UNL     1     -39.628  51.505 -53.066  1.00  0.00     0.009 A 
HETATM   15  C   UNL     1     -39.787  52.051 -54.335  1.00  0.00     0.002 A 
HETATM   16  C   UNL     1     -42.360  55.021 -51.907  1.00  0.00     0.102 A 
HETATM   17  H   UNL     1     -41.833  53.761 -50.283  1.00  0.00     0.165 HD
BRANCH  12  18
HETATM   18  C   UNL     1     -40.036  51.451 -50.578  1.00  0.00     0.036 C 
HETATM   19  C   UNL     1     -39.749  49.961 -50.675  1.00  0.00     0.010 C 
ENDBRANCH  12  18
ENDBRANCH   1   8
BRANCH   4  20
HETATM   20  N   UNL     1     -43.995  58.606 -57.146  1.00  0.00    -0.365 N 
HETATM   21  H   UNL     1     -44.735  59.244 -56.865  1.00  0.00     0.162 HD
BRANCH  20  22
HETATM   22  C   UNL     1     -43.536  58.606 -58.536  1.00  0.00     0.083 C 
HETATM   23  C   UNL     1     -42.064  58.215 -58.597  1.00  0.00     0.025 C 
HETATM   24  C   UNL     1     -41.906  57.711 -60.020  1.00  0.00     0.002 C 
HETATM   25  C   UNL     1     -43.179  56.910 -60.262  1.00  0.00     0.002 C 
HETATM   26  C   UNL     1     -44.247  57.539 -59.367  1.00  0.00     0.025 C 
ENDBRANCH  20  22
ENDBRANCH   4  20
TORSDOF 4
ENDMDL
MODEL 4
REMARK VINA RESULT:      -7.6      1.504      2.121
REMARK  4 active torsions:
REMARK  status: ('A' for Active; 'I' for Inactive)
REMARK    1  A    between atoms: C_2  and  C_3 
REMARK    2  A    between atoms: C_6  and  C_7 
REMARK    3  A    between atoms: C_10  and  N_11 
REMARK    4  A    between atoms: N_11  and  C_12 
ROOT
HETATM    1  C   UNL     1     -41.553  56.815 -52.435  1.00  0.00     0.076 C 
HETATM    2  C   UNL     1     -40.804  58.077 -52.805  1.00  0.00     0.144 C 
HETATM    3  S   UNL     1     -40.642  59.227 -51.430  1.00  0.00    -0.087 SA
HETATM    4  C   UNL     1     -42.249  59.123 -50.825  1.00  0.00     0.157 C 
HETATM    5  N   UNL     1     -42.932  57.998 -50.984  1.00  0.00    -0.257 N 
HETATM    6  H   UNL     1     -43.839  57.985 -50.529  1.00  0.00     0.191 HD
HETATM    7  N   UNL     1     -42.568  56.781 -51.618  1.00  0.00    -0.176 NA
ENDROOT
BRANCH   1   8
HETATM    8  C   UNL     1     -41.229  55.555 -53.117  1.00  0.00     0.019 A 
HETATM    9  C   UNL     1     -40.717  54.324 -52.561  1.00  0.00     0.005 A 
HETATM   10  C   UNL     1     -40.639  53.387 -53.596  1.00  0.00     0.049 A 
HETATM   11  C   UNL     1     -40.324  53.910 -51.268  1.00  0.00     0.014 A 
HETATM   12  C   UNL     1     -40.220  52.053 -53.414  1.00  0.00    -0.031 A 
HETATM   13  N   UNL     1     -41.042  54.027 -54.744  1.00  0.00    -0.364 N 
HETATM   14  C   UNL     1     -39.835  51.693 -52.112  1.00  0.00     0.009 A 
HETATM   15  C   UNL     1     -39.883  52.600 -51.059  1.00  0.00     0.002 A 
HETATM   16  C   UNL     1     -41.405  55.318 -54.470  1.00  0.00     0.102 A 
HETATM   17  H   UNL     1     -41.074  53.590 -55.656  1.00  0.00     0.165 HD
BRANCH  12  18
HETATM   18  C   UNL     1     -40.153  51.035 -54.526  1.00  0.00     0.036 C 
HETATM   19  C   UNL     1     -39.431  49.769 -54.093  1.00  0.00     0.010 C 
ENDBRANCH  12  18
ENDBRANCH   1   8
BRANCH   4  20
HETATM   20  N   UNL     1     -42.689  60.208 -50.217  1.00  0.00    -0.365 N 
HETATM   21  H   UNL     1     -41.982  60.644 -49.632  1.00  0.00     0.162 HD
BRANCH  20  22
HETATM   22  C   UNL     1     -44.031  60.790 -50.280  1.00  0.00     0.083 C 
HETATM   23  C   UNL     1     -44.386  61.422 -48.940  1.00  0.00     0.025 C 
HETATM   24  C   UNL     1     -45.461  62.427 -49.313  1.00  0.00     0.002 C 
HETATM   25  C   UNL     1     -44.954  63.030 -50.616  1.00  0.00     0.002 C 
HETATM   26  C   UNL     1     -44.100  61.946 -51.276  1.00  0.00     0.025 C 
ENDBRANCH  20  22
ENDBRANCH   4  20
TORSDOF 4
ENDMDL
MODEL 5
REMARK VINA RESULT:      -7.3      4.732      8.815
REMARK  4 active torsions:
REMARK  status: ('A' for Active; 'I' for Inactive)
REMARK    1  A    between atoms: C_2  and  C_3 
REMARK    2  A    between atoms: C_6  and  C_7 
REMARK    3  A    between atoms: C_10  and  N_11 
REMARK    4  A    between atoms: N_11  and  C_12 
ROOT
HETATM    1  C   UNL     1     -42.390  55.690 -55.185  1.00  0.00     0.076 C 
HETATM    2  C   UNL     1     -43.254  54.654 -54.500  1.00  0.00     0.144 C 
HETATM    3  S   UNL     1     -42.635  54.183 -52.877  1.00  0.00    -0.087 SA
HETATM    4  C   UNL     1     -40.969  54.032 -53.279  1.00  0.00     0.157 C 
HETATM    5  N   UNL     1     -40.466  54.774 -54.255  1.00  0.00    -0.257 N 
HETATM    6  H   UNL     1     -39.462  54.689 -54.378  1.00  0.00     0.191 HD
HETATM    7  N   UNL     1     -41.089  55.725 -55.105  1.00  0.00    -0.176 NA
ENDROOT
BRANCH   1   8
HETATM    8  C   UNL     1     -43.007  56.650 -56.109  1.00  0.00     0.019 A 
HETATM    9  C   UNL     1     -43.292  56.504 -57.518  1.00  0.00     0.005 A 
HETATM   10  C   UNL     1     -43.950  57.662 -57.944  1.00  0.00     0.049 A 
HETATM   11  C   UNL     1     -43.067  55.487 -58.473  1.00  0.00     0.014 A 
HETATM   12  C   UNL     1     -44.422  57.856 -59.258  1.00  0.00    -0.031 A 
HETATM   13  N   UNL     1     -44.024  58.500 -56.857  1.00  0.00    -0.364 N 
HETATM   14  C   UNL     1     -44.167  56.818 -60.171  1.00  0.00     0.009 A 
HETATM   15  C   UNL     1     -43.503  55.657 -59.790  1.00  0.00     0.002 A 
HETATM   16  C   UNL     1     -43.473  57.905 -55.754  1.00  0.00     0.102 A 
HETATM   17  H   UNL     1     -44.442  59.422 -56.878  1.00  0.00     0.165 HD
BRANCH  12  18
HETATM   18  C   UNL     1     -45.149  59.096 -59.716  1.00  0.00     0.036 C 
HETATM   19  C   UNL     1     -46.594  58.804 -60.086  1.00  0.00     0.010 C 
ENDBRANCH  12  18
ENDBRANCH   1   8
BRANCH   4  20
HETATM   20  N   UNL     1     -40.293  53.167 -52.548  1.00  0.00    -0.365 N 
HETATM   21  H   UNL     1     -40.286  53.408 -51.560  1.00  0.00     0.162 HD
BRANCH  20  22
HETATM   22  C   UNL     1     -39.570  51.978 -53.004  1.00  0.00     0.083 C 
HETATM   23  C   UNL     1     -39.714  50.859 -51.980  1.00  0.00     0.025 C 
HETATM   24  C   UNL     1     -39.447  49.611 -52.803  1.00  0.00     0.002 C 
HETATM   25  C   UNL     1     -40.169  49.884 -54.116  1.00  0.00     0.002 C 
HETATM   26  C   UNL     1     -40.176  51.404 -54.284  1.00  0.00     0.025 C 
ENDBRANCH  20  22
ENDBRANCH   4  20
TORSDOF 4
ENDMDL
MODEL 6
REMARK VINA RESULT:      -7.2      1.865      2.330
REMARK  4 active torsions:
REMARK  status: ('A' for Active; 'I' for Inactive)
REMARK    1  A    between atoms: C_2  and  C_3 
REMARK    2  A    between atoms: C_6  and  C_7 
REMARK    3  A    between atoms: C_10  and  N_11 
REMARK    4  A    between atoms: N_11  and  C_12 
ROOT
HETATM    1  C   UNL     1     -41.929  56.701 -51.630  1.00  0.00     0.076 C 
HETATM    2  C   UNL     1     -41.036  57.819 -52.123  1.00  0.00     0.144 C 
HETATM    3  S   UNL     1     -41.221  59.337 -51.175  1.00  0.00    -0.087 SA
HETATM    4  C   UNL     1     -42.938  59.360 -51.072  1.00  0.00     0.157 C 
HETATM    5  N   UNL     1     -43.606  58.214 -51.080  1.00  0.00    -0.257 N 
HETATM    6  H   UNL     1     -44.606  58.305 -50.934  1.00  0.00     0.191 HD
HETATM    7  N   UNL     1     -43.140  56.877 -51.181  1.00  0.00    -0.176 NA
ENDROOT
BRANCH   1   8
HETATM    8  C   UNL     1     -41.489  55.307 -51.774  1.00  0.00     0.019 A 
HETATM    9  C   UNL     1     -41.030  54.614 -52.956  1.00  0.00     0.005 A 
HETATM   10  C   UNL     1     -40.655  53.322 -52.575  1.00  0.00     0.049 A 
HETATM   11  C   UNL     1     -40.883  54.968 -54.316  1.00  0.00     0.014 A 
HETATM   12  C   UNL     1     -40.115  52.370 -53.464  1.00  0.00    -0.031 A 
HETATM   13  N   UNL     1     -40.915  53.211 -51.229  1.00  0.00    -0.364 N 
HETATM   14  C   UNL     1     -39.994  52.769 -54.806  1.00  0.00     0.009 A 
HETATM   15  C   UNL     1     -40.371  54.039 -55.226  1.00  0.00     0.002 A 
HETATM   16  C   UNL     1     -41.404  54.391 -50.738  1.00  0.00     0.102 A 
HETATM   17  H   UNL     1     -40.750  52.373 -50.686  1.00  0.00     0.165 HD
BRANCH  12  18
HETATM   18  C   UNL     1     -39.692  50.981 -53.052  1.00  0.00     0.036 C 
HETATM   19  C   UNL     1     -39.748  50.002 -54.214  1.00  0.00     0.010 C 
ENDBRANCH  12  18
ENDBRANCH   1   8
BRANCH   4  20
HETATM   20  N   UNL     1     -43.478  60.560 -50.978  1.00  0.00    -0.365 N 
HETATM   21  H   UNL     1     -43.324  60.989 -50.069  1.00  0.00     0.162 HD
BRANCH  20  22
HETATM   22  C   UNL     1     -44.255  61.277 -51.990  1.00  0.00     0.083 C 
HETATM   23  C   UNL     1     -43.384  61.564 -53.207  1.00  0.00     0.025 C 
HETATM   24  C   UNL     1     -44.404  61.754 -54.316  1.00  0.00     0.002 C 
HETATM   25  C   UNL     1     -45.439  60.671 -54.043  1.00  0.00     0.002 C 
HETATM   26  C   UNL     1     -45.400  60.423 -52.534  1.00  0.00     0.025 C 
ENDBRANCH  20  22
ENDBRANCH   4  20
TORSDOF 4
ENDMDL
MODEL 7
REMARK VINA RESULT:      -7.0      2.091      2.650
REMARK  4 active torsions:
REMARK  status: ('A' for Active; 'I' for Inactive)
REMARK    1  A    between atoms: C_2  and  C_3 
REMARK    2  A    between atoms: C_6  and  C_7 
REMARK    3  A    between atoms: C_10  and  N_11 
REMARK    4  A    between atoms: N_11  and  C_12 
ROOT
HETATM    1  C   UNL     1     -41.638  56.095 -52.439  1.00  0.00     0.076 C 
HETATM    2  C   UNL     1     -42.968  56.564 -51.891  1.00  0.00     0.144 C 
HETATM    3  S   UNL     1     -43.900  57.561 -53.064  1.00  0.00    -0.087 SA
HETATM    4  C   UNL     1     -42.612  58.551 -53.630  1.00  0.00     0.157 C 
HETATM    5  N   UNL     1     -41.376  58.070 -53.637  1.00  0.00    -0.257 N 
HETATM    6  H   UNL     1     -40.686  58.681 -54.061  1.00  0.00     0.191 HD
HETATM    7  N   UNL     1     -40.877  56.808 -53.220  1.00  0.00    -0.176 NA
ENDROOT
BRANCH   1   8
HETATM    8  C   UNL     1     -41.077  54.817 -51.980  1.00  0.00     0.019 A 
HETATM    9  C   UNL     1     -40.738  53.643 -52.750  1.00  0.00     0.005 A 
HETATM   10  C   UNL     1     -40.169  52.709 -51.878  1.00  0.00     0.049 A 
HETATM   11  C   UNL     1     -40.846  53.288 -54.114  1.00  0.00     0.014 A 
HETATM   12  C   UNL     1     -39.676  51.454 -52.289  1.00  0.00    -0.031 A 
HETATM   13  N   UNL     1     -40.201  53.266 -50.622  1.00  0.00    -0.364 N 
HETATM   14  C   UNL     1     -39.812  51.147 -53.653  1.00  0.00     0.009 A 
HETATM   15  C   UNL     1     -40.386  52.042 -54.549  1.00  0.00     0.002 A 
HETATM   16  C   UNL     1     -40.732  54.527 -50.671  1.00  0.00     0.102 A 
HETATM   17  H   UNL     1     -39.863  52.804 -49.787  1.00  0.00     0.165 HD
BRANCH  12  18
HETATM   18  C   UNL     1     -39.045  50.452 -51.354  1.00  0.00     0.036 C 
HETATM   19  C   UNL     1     -40.087  49.596 -50.650  1.00  0.00     0.010 C 
ENDBRANCH  12  18
ENDBRANCH   1   8
BRANCH   4  20
HETATM   20  N   UNL     1     -42.968  59.753 -54.041  1.00  0.00    -0.365 N 
HETATM   21  H   UNL     1     -43.523  59.728 -54.893  1.00  0.00     0.162 HD
BRANCH  20  22
HETATM   22  C   UNL     1     -42.635  61.044 -53.436  1.00  0.00     0.083 C 
HETATM   23  C   UNL     1     -43.591  62.116 -53.942  1.00  0.00     0.025 C 
HETATM   24  C   UNL     1     -43.513  63.177 -52.859  1.00  0.00     0.002 C 
HETATM   25  C   UNL     1     -43.482  62.373 -51.567  1.00  0.00     0.002 C 
HETATM   26  C   UNL     1     -42.843  61.030 -51.923  1.00  0.00     0.025 C 
ENDBRANCH  20  22
ENDBRANCH   4  20
TORSDOF 4
ENDMDL
MODEL 8
REMARK VINA RESULT:      -6.9      5.360      6.266
REMARK  4 active torsions:
REMARK  status: ('A' for Active; 'I' for Inactive)
REMARK    1  A    between atoms: C_2  and  C_3 
REMARK    2  A    between atoms: C_6  and  C_7 
REMARK    3  A    between atoms: C_10  and  N_11 
REMARK    4  A    between atoms: N_11  and  C_12 
ROOT
HETATM    1  C   UNL     1     -42.102  58.123 -55.099  1.00  0.00     0.076 C 
HETATM    2  C   UNL     1     -42.849  57.787 -56.371  1.00  0.00     0.144 C 
HETATM    3  S   UNL     1     -42.202  58.645 -57.815  1.00  0.00    -0.087 SA
HETATM    4  C   UNL     1     -42.011  60.205 -57.114  1.00  0.00     0.157 C 
HETATM    5  N   UNL     1     -41.761  60.308 -55.816  1.00  0.00    -0.257 N 
HETATM    6  H   UNL     1     -41.580  61.253 -55.493  1.00  0.00     0.191 HD
HETATM    7  N   UNL     1     -41.628  59.305 -54.821  1.00  0.00    -0.176 NA
ENDROOT
BRANCH   1   8
HETATM    8  C   UNL     1     -41.998  57.117 -54.034  1.00  0.00     0.019 A 
HETATM    9  C   UNL     1     -41.411  55.798 -54.081  1.00  0.00     0.005 A 
HETATM   10  C   UNL     1     -41.490  55.248 -52.798  1.00  0.00     0.049 A 
HETATM   11  C   UNL     1     -40.803  55.021 -55.093  1.00  0.00     0.014 A 
HETATM   12  C   UNL     1     -40.975  53.981 -52.456  1.00  0.00    -0.031 A 
HETATM   13  N   UNL     1     -42.138  56.169 -52.009  1.00  0.00    -0.364 N 
HETATM   14  C   UNL     1     -40.385  53.247 -53.498  1.00  0.00     0.009 A 
HETATM   15  C   UNL     1     -40.301  53.752 -54.791  1.00  0.00     0.002 A 
HETATM   16  C   UNL     1     -42.438  57.292 -52.732  1.00  0.00     0.102 A 
HETATM   17  H   UNL     1     -42.346  56.031 -51.028  1.00  0.00     0.165 HD
BRANCH  12  18
HETATM   18  C   UNL     1     -41.041  53.394 -51.067  1.00  0.00     0.036 C 
HETATM   19  C   UNL     1     -39.874  53.843 -50.203  1.00  0.00     0.010 C 
ENDBRANCH  12  18
ENDBRANCH   1   8
BRANCH   4  20
HETATM   20  N   UNL     1     -42.120  61.214 -57.956  1.00  0.00    -0.365 N 
HETATM   21  H   UNL     1     -42.877  61.848 -57.713  1.00  0.00     0.162 HD
BRANCH  20  22
HETATM   22  C   UNL     1     -41.320  61.474 -59.154  1.00  0.00     0.083 C 
HETATM   23  C   UNL     1     -42.123  62.309 -60.143  1.00  0.00     0.025 C 
HETATM   24  C   UNL     1     -41.045  62.956 -60.994  1.00  0.00     0.002 C 
HETATM   25  C   UNL     1     -39.969  63.335 -59.986  1.00  0.00     0.002 C 
HETATM   26  C   UNL     1     -40.094  62.331 -58.840  1.00  0.00     0.025 C 
ENDBRANCH  20  22
ENDBRANCH   4  20
TORSDOF 4
ENDMDL
MODEL 9
REMARK VINA RESULT:      -6.9     16.722     19.025
REMARK  4 active torsions:
REMARK  status: ('A' for Active; 'I' for Inactive)
REMARK    1  A    between atoms: C_2  and  C_3 
REMARK    2  A    between atoms: C_6  and  C_7 
REMARK    3  A    between atoms: C_10  and  N_11 
REMARK    4  A    between atoms: N_11  and  C_12 
ROOT
HETATM    1  C   UNL     1     -35.653  40.223 -52.204  1.00  0.00     0.076 C 
HETATM    2  C   UNL     1     -35.080  39.745 -53.521  1.00  0.00     0.144 C 
HETATM    3  S   UNL     1     -34.793  41.083 -54.690  1.00  0.00    -0.087 SA
HETATM    4  C   UNL     1     -36.268  41.937 -54.458  1.00  0.00     0.157 C 
HETATM    5  N   UNL     1     -36.873  41.884 -53.280  1.00  0.00    -0.257 N 
HETATM    6  H   UNL     1     -37.691  42.478 -53.196  1.00  0.00     0.191 HD
HETATM    7  N   UNL     1     -36.517  41.192 -52.093  1.00  0.00    -0.176 NA
ENDROOT
BRANCH   1   8
HETATM    8  C   UNL     1     -35.340  39.490 -50.971  1.00  0.00     0.019 A 
HETATM    9  C   UNL     1     -34.109  39.463 -50.214  1.00  0.00     0.005 A 
HETATM   10  C   UNL     1     -34.323  38.678 -49.077  1.00  0.00     0.049 A 
HETATM   11  C   UNL     1     -32.833  40.047 -50.380  1.00  0.00     0.014 A 
HETATM   12  C   UNL     1     -33.350  38.462 -48.081  1.00  0.00    -0.031 A 
HETATM   13  N   UNL     1     -35.612  38.205 -49.156  1.00  0.00    -0.364 N 
HETATM   14  C   UNL     1     -32.096  39.059 -48.295  1.00  0.00     0.009 A 
HETATM   15  C   UNL     1     -31.839  39.834 -49.420  1.00  0.00     0.002 A 
HETATM   16  C   UNL     1     -36.232  38.689 -50.276  1.00  0.00     0.102 A 
HETATM   17  H   UNL     1     -36.036  37.596 -48.468  1.00  0.00     0.165 HD
BRANCH  12  18
HETATM   18  C   UNL     1     -33.583  37.630 -46.843  1.00  0.00     0.036 C 
HETATM   19  C   UNL     1     -32.566  37.933 -45.755  1.00  0.00     0.010 C 
ENDBRANCH  12  18
ENDBRANCH   1   8
BRANCH   4  20
HETATM   20  N   UNL     1     -36.693  42.615 -55.507  1.00  0.00    -0.365 N 
HETATM   21  H   UNL     1     -36.362  43.576 -55.514  1.00  0.00     0.162 HD
BRANCH  20  22
HETATM   22  C   UNL     1     -37.570  42.148 -56.583  1.00  0.00     0.083 C 
HETATM   23  C   UNL     1     -36.772  41.991 -57.872  1.00  0.00     0.025 C 
HETATM   24  C   UNL     1     -37.608  41.007 -58.670  1.00  0.00     0.002 C 
HETATM   25  C   UNL     1     -38.063  39.993 -57.629  1.00  0.00     0.002 C 
HETATM   26  C   UNL     1     -38.116  40.750 -56.301  1.00  0.00     0.025 C 
ENDBRANCH  20  22
ENDBRANCH   4  20
TORSDOF 4
ENDMDL
MODEL 10
REMARK VINA RESULT:      -6.8      4.791      6.683
REMARK  4 active torsions:
REMARK  status: ('A' for Active; 'I' for Inactive)
REMARK    1  A    between atoms: C_2  and  C_3 
REMARK    2  A    between atoms: C_6  and  C_7 
REMARK    3  A    between atoms: C_10  and  N_11 
REMARK    4  A    between atoms: N_11  and  C_12 
ROOT
HETATM    1  C   UNL     1     -42.282  56.457 -54.555  1.00  0.00     0.076 C 
HETATM    2  C   UNL     1     -43.212  55.509 -55.280  1.00  0.00     0.144 C 
HETATM    3  S   UNL     1     -43.029  55.575 -57.069  1.00  0.00    -0.087 SA
HETATM    4  C   UNL     1     -42.953  57.284 -57.251  1.00  0.00     0.157 C 
HETATM    5  N   UNL     1     -42.459  58.021 -56.266  1.00  0.00    -0.257 N 
HETATM    6  H   UNL     1     -42.372  59.010 -56.480  1.00  0.00     0.191 HD
HETATM    7  N   UNL     1     -41.961  57.642 -54.992  1.00  0.00    -0.176 NA
ENDROOT
BRANCH   1   8
HETATM    8  C   UNL     1     -41.796  56.109 -53.214  1.00  0.00     0.019 A 
HETATM    9  C   UNL     1     -41.184  54.883 -52.756  1.00  0.00     0.005 A 
HETATM   10  C   UNL     1     -40.828  55.058 -51.415  1.00  0.00     0.049 A 
HETATM   11  C   UNL     1     -40.884  53.642 -53.361  1.00  0.00     0.014 A 
HETATM   12  C   UNL     1     -40.164  54.078 -50.648  1.00  0.00    -0.031 A 
HETATM   13  N   UNL     1     -41.244  56.317 -51.052  1.00  0.00    -0.364 N 
HETATM   14  C   UNL     1     -39.893  52.860 -51.294  1.00  0.00     0.009 A 
HETATM   15  C   UNL     1     -40.246  52.642 -52.621  1.00  0.00     0.002 A 
HETATM   16  C   UNL     1     -41.815  56.957 -52.118  1.00  0.00     0.102 A 
HETATM   17  H   UNL     1     -41.126  56.708 -50.127  1.00  0.00     0.165 HD
BRANCH  12  18
HETATM   18  C   UNL     1     -39.761  54.270 -49.207  1.00  0.00     0.036 C 
HETATM   19  C   UNL     1     -40.688  53.531 -48.255  1.00  0.00     0.010 C 
ENDBRANCH  12  18
ENDBRANCH   1   8
BRANCH   4  20
HETATM   20  N   UNL     1     -43.398  57.744 -58.404  1.00  0.00    -0.365 N 
HETATM   21  H   UNL     1     -44.084  57.129 -58.834  1.00  0.00     0.162 HD
BRANCH  20  22
HETATM   22  C   UNL     1     -42.999  58.971 -59.096  1.00  0.00     0.083 C 
HETATM   23  C   UNL     1     -42.008  58.643 -60.205  1.00  0.00     0.025 C 
HETATM   24  C   UNL     1     -42.142  59.830 -61.141  1.00  0.00     0.002 C 
HETATM   25  C   UNL     1     -43.640  60.101 -61.168  1.00  0.00     0.002 C 
HETATM   26  C   UNL     1     -44.178  59.622 -59.818  1.00  0.00     0.025 C 
ENDBRANCH  20  22
ENDBRANCH   4  20
TORSDOF 4
ENDMDL
