MODEL 1
REMARK VINA RESULT:      -8.6      0.000      0.000
REMARK  5 active torsions:
REMARK  status: ('A' for Active; 'I' for Inactive)
REMARK    1  A    between atoms: C_2  and  O_3 
REMARK    2  A    between atoms: O_3  and  C_4 
REMARK    3  A    between atoms: C_7  and  C_8 
REMARK       I    between atoms: N_11  and  C_12 
REMARK    4  A    between atoms: C_12  and  C_13 
REMARK    5  A    between atoms: C_15  and  C_16 
ROOT
HETATM    1  C   UNL     1     -42.192  56.064 -52.548  1.00  0.00    -0.049 C 
HETATM    2  C   UNL     1     -43.410  56.195 -53.432  1.00  0.00     0.059 C 
HETATM    3  C   UNL     1     -43.776  57.651 -53.702  1.00  0.00     0.131 C 
HETATM    4  N   UNL     1     -43.763  58.454 -52.482  1.00  0.00    -0.344 N 
HETATM    5  C   UNL     1     -44.657  59.531 -52.445  1.00  0.00     0.254 C 
HETATM    6  O   UNL     1     -45.512  59.729 -53.305  1.00  0.00    -0.267 OA
HETATM    7  C   UNL     1     -42.514  58.441 -51.724  1.00  0.00     0.154 C 
HETATM    8  C   UNL     1     -41.817  57.108 -51.783  1.00  0.00     0.001 C 
ENDROOT
BRANCH   5   9
HETATM    9  C   UNL     1     -44.580  60.514 -51.343  1.00  0.00     0.033 A 
HETATM   10  C   UNL     1     -45.007  60.113 -50.071  1.00  0.00     0.032 A 
HETATM   11  C   UNL     1     -44.896  60.983 -48.978  1.00  0.00     0.014 A 
HETATM   12  C   UNL     1     -44.349  62.258 -49.185  1.00  0.00     0.015 A 
HETATM   13  C   UNL     1     -43.902  62.651 -50.450  1.00  0.00     0.002 A 
HETATM   14  C   UNL     1     -44.002  61.774 -51.530  1.00  0.00     0.017 A 
BRANCH  11  15
HETATM   15  C   UNL     1     -45.318  60.562 -47.645  1.00  0.00     0.181 A 
HETATM   16  N   UNL     1     -44.798  61.045 -46.505  1.00  0.00    -0.152 NA
HETATM   17  N   UNL     1     -45.511  60.401 -45.573  1.00  0.00    -0.263 N 
HETATM   18  H   UNL     1     -45.333  60.591 -44.594  1.00  0.00     0.190 HD
HETATM   19  C   UNL     1     -46.415  59.549 -46.134  1.00  0.00     0.118 A 
HETATM   20  C   UNL     1     -47.332  58.704 -45.343  1.00  0.00     0.093 C 
HETATM   21  N   UNL     1     -46.309  59.624 -47.443  1.00  0.00    -0.212 NA
ENDBRANCH  11  15
ENDBRANCH   5   9
BRANCH   1  22
HETATM   22  C   UNL     1     -41.461  54.769 -52.558  1.00  0.00    -0.030 A 
HETATM   23  C   UNL     1     -41.211  54.092 -53.763  1.00  0.00     0.014 A 
HETATM   24  C   UNL     1     -40.477  52.898 -53.796  1.00  0.00     0.037 A 
HETATM   25  C   UNL     1     -39.978  52.349 -52.618  1.00  0.00     0.068 A 
HETATM   26  C   UNL     1     -40.231  53.000 -51.412  1.00  0.00     0.037 A 
HETATM   27  C   UNL     1     -40.955  54.199 -51.382  1.00  0.00     0.014 A 
BRANCH  25  28
HETATM   28  O   UNL     1     -39.245  51.200 -52.512  1.00  0.00    -0.352 OA
BRANCH  28  29
HETATM   29  C   UNL     1     -39.861  49.999 -52.976  1.00  0.00     0.171 C 
HETATM   30  C   UNL     1     -39.490  49.816 -54.438  1.00  0.00     0.034 C 
ENDBRANCH  28  29
ENDBRANCH  25  28
ENDBRANCH   1  22
TORSDOF 5
ENDMDL
MODEL 2
REMARK VINA RESULT:      -8.6      4.931      8.822
REMARK  5 active torsions:
REMARK  status: ('A' for Active; 'I' for Inactive)
REMARK    1  A    between atoms: C_2  and  O_3 
REMARK    2  A    between atoms: O_3  and  C_4 
REMARK    3  A    between atoms: C_7  and  C_8 
REMARK       I    between atoms: N_11  and  C_12 
REMARK    4  A    between atoms: C_12  and  C_13 
REMARK    5  A    between atoms: C_15  and  C_16 
ROOT
HETATM    1  C   UNL     1     -42.587  56.465 -55.252  1.00  0.00    -0.049 C 
HETATM    2  C   UNL     1     -42.603  57.713 -54.401  1.00  0.00     0.059 C 
HETATM    3  C   UNL     1     -41.553  57.674 -53.295  1.00  0.00     0.131 C 
HETATM    4  N   UNL     1     -41.553  56.397 -52.586  1.00  0.00    -0.344 N 
HETATM    5  C   UNL     1     -41.175  56.442 -51.238  1.00  0.00     0.254 C 
HETATM    6  O   UNL     1     -40.990  57.490 -50.623  1.00  0.00    -0.267 OA
HETATM    7  C   UNL     1     -41.372  55.207 -53.415  1.00  0.00     0.154 C 
HETATM    8  C   UNL     1     -42.019  55.344 -54.767  1.00  0.00     0.001 C 
ENDROOT
BRANCH   5   9
HETATM    9  C   UNL     1     -40.953  55.184 -50.493  1.00  0.00     0.033 A 
HETATM   10  C   UNL     1     -40.638  54.032 -51.224  1.00  0.00     0.032 A 
HETATM   11  C   UNL     1     -40.355  52.829 -50.566  1.00  0.00     0.014 A 
HETATM   12  C   UNL     1     -40.392  52.803 -49.163  1.00  0.00     0.015 A 
HETATM   13  C   UNL     1     -40.684  53.959 -48.431  1.00  0.00     0.002 A 
HETATM   14  C   UNL     1     -40.950  55.156 -49.095  1.00  0.00     0.017 A 
BRANCH  11  15
HETATM   15  C   UNL     1     -40.003  51.630 -51.321  1.00  0.00     0.181 A 
HETATM   16  N   UNL     1     -39.759  50.434 -50.763  1.00  0.00    -0.152 NA
HETATM   17  N   UNL     1     -39.522  49.664 -51.832  1.00  0.00    -0.263 N 
HETATM   18  H   UNL     1     -39.319  48.681 -51.699  1.00  0.00     0.190 HD
HETATM   19  C   UNL     1     -39.606  50.378 -52.991  1.00  0.00     0.118 A 
HETATM   20  C   UNL     1     -39.386  49.785 -54.325  1.00  0.00     0.093 C 
HETATM   21  N   UNL     1     -39.900  51.626 -52.698  1.00  0.00    -0.212 NA
ENDBRANCH  11  15
ENDBRANCH   5   9
BRANCH   1  22
HETATM   22  C   UNL     1     -43.214  56.533 -56.599  1.00  0.00    -0.030 A 
HETATM   23  C   UNL     1     -43.996  57.638 -56.974  1.00  0.00     0.014 A 
HETATM   24  C   UNL     1     -44.550  57.743 -58.258  1.00  0.00     0.037 A 
HETATM   25  C   UNL     1     -44.336  56.740 -59.198  1.00  0.00     0.068 A 
HETATM   26  C   UNL     1     -43.576  55.629 -58.837  1.00  0.00     0.037 A 
HETATM   27  C   UNL     1     -43.014  55.531 -57.558  1.00  0.00     0.014 A 
BRANCH  25  28
HETATM   28  O   UNL     1     -44.812  56.723 -60.480  1.00  0.00    -0.352 OA
BRANCH  28  29
HETATM   29  C   UNL     1     -45.756  55.703 -60.802  1.00  0.00     0.171 C 
HETATM   30  C   UNL     1     -47.149  56.269 -60.588  1.00  0.00     0.034 C 
ENDBRANCH  28  29
ENDBRANCH  25  28
ENDBRANCH   1  22
TORSDOF 5
ENDMDL
MODEL 3
REMARK VINA RESULT:      -8.6     18.357     20.943
REMARK  5 active torsions:
REMARK  status: ('A' for Active; 'I' for Inactive)
REMARK    1  A    between atoms: C_2  and  O_3 
REMARK    2  A    between atoms: O_3  and  C_4 
REMARK    3  A    between atoms: C_7  and  C_8 
REMARK       I    between atoms: N_11  and  C_12 
REMARK    4  A    between atoms: C_12  and  C_13 
REMARK    5  A    between atoms: C_15  and  C_16 
ROOT
HETATM    1  C   UNL     1     -35.023  40.235 -52.736  1.00  0.00    -0.049 C 
HETATM    2  C   UNL     1     -36.343  40.852 -52.338  1.00  0.00     0.059 C 
HETATM    3  C   UNL     1     -37.463  40.504 -53.315  1.00  0.00     0.131 C 
HETATM    4  N   UNL     1     -37.050  40.678 -54.705  1.00  0.00    -0.344 N 
HETATM    5  C   UNL     1     -38.060  41.036 -55.606  1.00  0.00     0.254 C 
HETATM    6  O   UNL     1     -39.201  41.333 -55.258  1.00  0.00    -0.267 OA
HETATM    7  C   UNL     1     -35.856  39.941 -55.113  1.00  0.00     0.154 C 
HETATM    8  C   UNL     1     -34.839  39.835 -54.009  1.00  0.00     0.001 C 
ENDROOT
BRANCH   5   9
HETATM    9  C   UNL     1     -37.784  41.042 -57.058  1.00  0.00     0.033 A 
HETATM   10  C   UNL     1     -38.256  39.968 -57.823  1.00  0.00     0.032 A 
HETATM   11  C   UNL     1     -38.079  39.953 -59.212  1.00  0.00     0.014 A 
HETATM   12  C   UNL     1     -37.422  41.035 -59.820  1.00  0.00     0.015 A 
HETATM   13  C   UNL     1     -36.971  42.119 -59.059  1.00  0.00     0.002 A 
HETATM   14  C   UNL     1     -37.165  42.132 -57.678  1.00  0.00     0.017 A 
BRANCH  11  15
HETATM   15  C   UNL     1     -38.590  38.848 -60.018  1.00  0.00     0.181 A 
HETATM   16  N   UNL     1     -39.196  37.764 -59.509  1.00  0.00    -0.152 NA
HETATM   17  N   UNL     1     -39.509  37.070 -60.610  1.00  0.00    -0.263 N 
HETATM   18  H   UNL     1     -40.002  36.190 -60.518  1.00  0.00     0.190 HD
HETATM   19  C   UNL     1     -39.090  37.709 -61.740  1.00  0.00     0.118 A 
HETATM   20  C   UNL     1     -39.296  37.170 -63.099  1.00  0.00     0.093 C 
HETATM   21  N   UNL     1     -38.498  38.831 -61.395  1.00  0.00    -0.212 NA
ENDBRANCH  11  15
ENDBRANCH   5   9
BRANCH   1  22
HETATM   22  C   UNL     1     -33.973  40.107 -51.690  1.00  0.00    -0.030 A 
HETATM   23  C   UNL     1     -34.302  39.712 -50.384  1.00  0.00     0.014 A 
HETATM   24  C   UNL     1     -33.318  39.533 -49.400  1.00  0.00     0.037 A 
HETATM   25  C   UNL     1     -31.977  39.751 -49.703  1.00  0.00     0.068 A 
HETATM   26  C   UNL     1     -31.635  40.158 -50.991  1.00  0.00     0.037 A 
HETATM   27  C   UNL     1     -32.618  40.325 -51.975  1.00  0.00     0.014 A 
BRANCH  25  28
HETATM   28  O   UNL     1     -30.924  39.607 -48.843  1.00  0.00    -0.352 OA
BRANCH  28  29
HETATM   29  C   UNL     1     -31.240  39.364 -47.473  1.00  0.00     0.171 C 
HETATM   30  C   UNL     1     -30.348  40.252 -46.622  1.00  0.00     0.034 C 
ENDBRANCH  28  29
ENDBRANCH  25  28
ENDBRANCH   1  22
TORSDOF 5
ENDMDL
MODEL 4
REMARK VINA RESULT:      -8.2      4.639      8.910
REMARK  5 active torsions:
REMARK  status: ('A' for Active; 'I' for Inactive)
REMARK    1  A    between atoms: C_2  and  O_3 
REMARK    2  A    between atoms: O_3  and  C_4 
REMARK    3  A    between atoms: C_7  and  C_8 
REMARK       I    between atoms: N_11  and  C_12 
REMARK    4  A    between atoms: C_12  and  C_13 
REMARK    5  A    between atoms: C_15  and  C_16 
ROOT
HETATM    1  C   UNL     1     -42.912  57.125 -55.318  1.00  0.00    -0.049 C 
HETATM    2  C   UNL     1     -44.228  57.127 -54.577  1.00  0.00     0.059 C 
HETATM    3  C   UNL     1     -44.040  57.206 -53.064  1.00  0.00     0.131 C 
HETATM    4  N   UNL     1     -43.023  56.273 -52.589  1.00  0.00    -0.344 N 
HETATM    5  C   UNL     1     -43.203  55.774 -51.294  1.00  0.00     0.254 C 
HETATM    6  O   UNL     1     -44.216  55.975 -50.627  1.00  0.00    -0.267 OA
HETATM    7  C   UNL     1     -41.705  56.397 -53.209  1.00  0.00     0.154 C 
HETATM    8  C   UNL     1     -41.786  56.784 -54.661  1.00  0.00     0.001 C 
ENDROOT
BRANCH   5   9
HETATM    9  C   UNL     1     -42.130  54.983 -50.653  1.00  0.00     0.033 A 
HETATM   10  C   UNL     1     -41.697  53.818 -51.297  1.00  0.00     0.032 A 
HETATM   11  C   UNL     1     -40.640  53.065 -50.768  1.00  0.00     0.014 A 
HETATM   12  C   UNL     1     -40.026  53.504 -49.585  1.00  0.00     0.015 A 
HETATM   13  C   UNL     1     -40.443  54.680 -48.954  1.00  0.00     0.002 A 
HETATM   14  C   UNL     1     -41.487  55.431 -49.495  1.00  0.00     0.017 A 
BRANCH  11  15
HETATM   15  C   UNL     1     -40.168  51.862 -51.448  1.00  0.00     0.181 A 
HETATM   16  N   UNL     1     -39.812  50.733 -50.815  1.00  0.00    -0.152 NA
HETATM   17  N   UNL     1     -39.494  49.925 -51.835  1.00  0.00    -0.263 N 
HETATM   18  H   UNL     1     -39.197  48.976 -51.641  1.00  0.00     0.190 HD
HETATM   19  C   UNL     1     -39.640  50.553 -53.035  1.00  0.00     0.118 A 
HETATM   20  C   UNL     1     -39.355  49.904 -54.330  1.00  0.00     0.093 C 
HETATM   21  N   UNL     1     -40.056  51.782 -52.821  1.00  0.00    -0.212 NA
ENDBRANCH  11  15
ENDBRANCH   5   9
BRANCH   1  22
HETATM   22  C   UNL     1     -42.925  57.494 -56.759  1.00  0.00    -0.030 A 
HETATM   23  C   UNL     1     -43.336  56.571 -57.735  1.00  0.00     0.014 A 
HETATM   24  C   UNL     1     -43.405  56.920 -59.092  1.00  0.00     0.037 A 
HETATM   25  C   UNL     1     -43.060  58.204 -59.504  1.00  0.00     0.068 A 
HETATM   26  C   UNL     1     -42.634  59.126 -58.550  1.00  0.00     0.037 A 
HETATM   27  C   UNL     1     -42.576  58.780 -57.194  1.00  0.00     0.014 A 
BRANCH  25  28
HETATM   28  O   UNL     1     -43.089  58.672 -60.788  1.00  0.00    -0.352 OA
BRANCH  28  29
HETATM   29  C   UNL     1     -42.756  60.046 -60.980  1.00  0.00     0.171 C 
HETATM   30  C   UNL     1     -43.752  60.637 -61.963  1.00  0.00     0.034 C 
ENDBRANCH  28  29
ENDBRANCH  25  28
ENDBRANCH   1  22
TORSDOF 5
ENDMDL
MODEL 5
REMARK VINA RESULT:      -8.2      5.552      8.097
REMARK  5 active torsions:
REMARK  status: ('A' for Active; 'I' for Inactive)
REMARK    1  A    between atoms: C_2  and  O_3 
REMARK    2  A    between atoms: O_3  and  C_4 
REMARK    3  A    between atoms: C_7  and  C_8 
REMARK       I    between atoms: N_11  and  C_12 
REMARK    4  A    between atoms: C_12  and  C_13 
REMARK    5  A    between atoms: C_15  and  C_16 
ROOT
HETATM    1  C   UNL     1     -42.166  54.925 -54.520  1.00  0.00    -0.049 C 
HETATM    2  C   UNL     1     -43.141  55.745 -53.709  1.00  0.00     0.059 C 
HETATM    3  C   UNL     1     -44.264  56.323 -54.566  1.00  0.00     0.131 C 
HETATM    4  N   UNL     1     -43.758  56.931 -55.794  1.00  0.00    -0.344 N 
HETATM    5  C   UNL     1     -44.500  58.006 -56.298  1.00  0.00     0.254 C 
HETATM    6  O   UNL     1     -45.437  58.522 -55.694  1.00  0.00    -0.267 OA
HETATM    7  C   UNL     1     -42.946  56.066 -56.647  1.00  0.00     0.154 C 
HETATM    8  C   UNL     1     -42.105  55.101 -55.854  1.00  0.00     0.001 C 
ENDROOT
BRANCH   5   9
HETATM    9  C   UNL     1     -44.183  58.557 -57.633  1.00  0.00     0.033 A 
HETATM   10  C   UNL     1     -43.165  59.514 -57.727  1.00  0.00     0.032 A 
HETATM   11  C   UNL     1     -42.780  60.022 -58.974  1.00  0.00     0.014 A 
HETATM   12  C   UNL     1     -43.433  59.552 -60.124  1.00  0.00     0.015 A 
HETATM   13  C   UNL     1     -44.434  58.580 -60.034  1.00  0.00     0.002 A 
HETATM   14  C   UNL     1     -44.801  58.069 -58.788  1.00  0.00     0.017 A 
BRANCH  11  15
HETATM   15  C   UNL     1     -41.703  61.003 -59.081  1.00  0.00     0.181 A 
HETATM   16  N   UNL     1     -40.928  61.382 -58.052  1.00  0.00    -0.152 NA
HETATM   17  N   UNL     1     -40.087  62.246 -58.635  1.00  0.00    -0.263 N 
HETATM   18  H   UNL     1     -39.365  62.686 -58.078  1.00  0.00     0.190 HD
HETATM   19  C   UNL     1     -40.359  62.390 -59.963  1.00  0.00     0.118 A 
HETATM   20  C   UNL     1     -39.593  63.284 -60.854  1.00  0.00     0.093 C 
HETATM   21  N   UNL     1     -41.381  61.623 -60.271  1.00  0.00    -0.212 NA
ENDBRANCH  11  15
ENDBRANCH   5   9
BRANCH   1  22
HETATM   22  C   UNL     1     -41.301  53.956 -53.795  1.00  0.00    -0.030 A 
HETATM   23  C   UNL     1     -41.013  54.129 -52.431  1.00  0.00     0.014 A 
HETATM   24  C   UNL     1     -40.245  53.196 -51.719  1.00  0.00     0.037 A 
HETATM   25  C   UNL     1     -39.742  52.067 -52.360  1.00  0.00     0.068 A 
HETATM   26  C   UNL     1     -40.005  51.890 -53.717  1.00  0.00     0.037 A 
HETATM   27  C   UNL     1     -40.782  52.816 -54.424  1.00  0.00     0.014 A 
BRANCH  25  28
HETATM   28  O   UNL     1     -38.988  51.083 -51.784  1.00  0.00    -0.352 OA
BRANCH  28  29
HETATM   29  C   UNL     1     -39.461  49.745 -51.923  1.00  0.00     0.171 C 
HETATM   30  C   UNL     1     -40.195  49.371 -50.647  1.00  0.00     0.034 C 
ENDBRANCH  28  29
ENDBRANCH  25  28
ENDBRANCH   1  22
TORSDOF 5
ENDMDL
MODEL 6
REMARK VINA RESULT:      -8.0      5.411      8.559
REMARK  5 active torsions:
REMARK  status: ('A' for Active; 'I' for Inactive)
REMARK    1  A    between atoms: C_2  and  O_3 
REMARK    2  A    between atoms: O_3  and  C_4 
REMARK    3  A    between atoms: C_7  and  C_8 
REMARK       I    between atoms: N_11  and  C_12 
REMARK    4  A    between atoms: C_12  and  C_13 
REMARK    5  A    between atoms: C_15  and  C_16 
ROOT
HETATM    1  C   UNL     1     -42.236  54.914 -54.418  1.00  0.00    -0.049 C 
HETATM    2  C   UNL     1     -42.933  55.965 -53.587  1.00  0.00     0.059 C 
HETATM    3  C   UNL     1     -44.152  56.549 -54.295  1.00  0.00     0.131 C 
HETATM    4  N   UNL     1     -43.864  56.897 -55.684  1.00  0.00    -0.344 N 
HETATM    5  C   UNL     1     -44.590  57.971 -56.212  1.00  0.00     0.254 C 
HETATM    6  O   UNL     1     -45.323  58.689 -55.536  1.00  0.00    -0.267 OA
HETATM    7  C   UNL     1     -43.340  55.816 -56.516  1.00  0.00     0.154 C 
HETATM    8  C   UNL     1     -42.446  54.880 -55.749  1.00  0.00     0.001 C 
ENDROOT
BRANCH   5   9
HETATM    9  C   UNL     1     -44.514  58.271 -57.658  1.00  0.00     0.033 A 
HETATM   10  C   UNL     1     -45.571  57.849 -58.474  1.00  0.00     0.032 A 
HETATM   11  C   UNL     1     -45.582  58.162 -59.840  1.00  0.00     0.014 A 
HETATM   12  C   UNL     1     -44.517  58.907 -60.370  1.00  0.00     0.015 A 
HETATM   13  C   UNL     1     -43.473  59.349 -59.551  1.00  0.00     0.002 A 
HETATM   14  C   UNL     1     -43.477  59.045 -58.189  1.00  0.00     0.017 A 
BRANCH  11  15
HETATM   15  C   UNL     1     -46.692  57.744 -60.692  1.00  0.00     0.181 A 
HETATM   16  N   UNL     1     -46.971  56.466 -60.990  1.00  0.00    -0.152 NA
HETATM   17  N   UNL     1     -48.068  56.584 -61.748  1.00  0.00    -0.263 N 
HETATM   18  H   UNL     1     -48.514  55.749 -62.109  1.00  0.00     0.190 HD
HETATM   19  C   UNL     1     -48.425  57.890 -61.912  1.00  0.00     0.118 A 
HETATM   20  C   UNL     1     -49.593  58.317 -62.707  1.00  0.00     0.093 C 
HETATM   21  N   UNL     1     -47.567  58.646 -61.262  1.00  0.00    -0.212 NA
ENDBRANCH  11  15
ENDBRANCH   5   9
BRANCH   1  22
HETATM   22  C   UNL     1     -41.334  53.960 -53.719  1.00  0.00    -0.030 A 
HETATM   23  C   UNL     1     -41.028  54.124 -52.358  1.00  0.00     0.014 A 
HETATM   24  C   UNL     1     -40.223  53.205 -51.670  1.00  0.00     0.037 A 
HETATM   25  C   UNL     1     -39.701  52.097 -52.333  1.00  0.00     0.068 A 
HETATM   26  C   UNL     1     -39.982  51.929 -53.687  1.00  0.00     0.037 A 
HETATM   27  C   UNL     1     -40.795  52.842 -54.370  1.00  0.00     0.014 A 
BRANCH  25  28
HETATM   28  O   UNL     1     -38.911  51.128 -51.781  1.00  0.00    -0.352 OA
BRANCH  28  29
HETATM   29  C   UNL     1     -39.492  49.834 -51.629  1.00  0.00     0.171 C 
HETATM   30  C   UNL     1     -40.154  49.773 -50.264  1.00  0.00     0.034 C 
ENDBRANCH  28  29
ENDBRANCH  25  28
ENDBRANCH   1  22
TORSDOF 5
ENDMDL
MODEL 7
REMARK VINA RESULT:      -8.0      1.614      2.164
REMARK  5 active torsions:
REMARK  status: ('A' for Active; 'I' for Inactive)
REMARK    1  A    between atoms: C_2  and  O_3 
REMARK    2  A    between atoms: O_3  and  C_4 
REMARK    3  A    between atoms: C_7  and  C_8 
REMARK       I    between atoms: N_11  and  C_12 
REMARK    4  A    between atoms: C_12  and  C_13 
REMARK    5  A    between atoms: C_15  and  C_16 
ROOT
HETATM    1  C   UNL     1     -41.487  56.792 -53.026  1.00  0.00    -0.049 C 
HETATM    2  C   UNL     1     -40.884  57.985 -53.728  1.00  0.00     0.059 C 
HETATM    3  C   UNL     1     -41.041  59.272 -52.923  1.00  0.00     0.131 C 
HETATM    4  N   UNL     1     -42.397  59.432 -52.407  1.00  0.00    -0.344 N 
HETATM    5  C   UNL     1     -42.847  60.750 -52.257  1.00  0.00     0.254 C 
HETATM    6  O   UNL     1     -42.220  61.727 -52.660  1.00  0.00    -0.267 OA
HETATM    7  C   UNL     1     -42.903  58.330 -51.591  1.00  0.00     0.154 C 
HETATM    8  C   UNL     1     -42.405  56.990 -52.060  1.00  0.00     0.001 C 
ENDROOT
BRANCH   5   9
HETATM    9  C   UNL     1     -44.123  61.018 -51.559  1.00  0.00     0.033 A 
HETATM   10  C   UNL     1     -44.191  60.752 -50.186  1.00  0.00     0.032 A 
HETATM   11  C   UNL     1     -45.354  61.048 -49.463  1.00  0.00     0.014 A 
HETATM   12  C   UNL     1     -46.444  61.616 -50.141  1.00  0.00     0.015 A 
HETATM   13  C   UNL     1     -46.367  61.903 -51.508  1.00  0.00     0.002 A 
HETATM   14  C   UNL     1     -45.200  61.619 -52.217  1.00  0.00     0.017 A 
BRANCH  11  15
HETATM   15  C   UNL     1     -45.424  60.795 -48.027  1.00  0.00     0.181 A 
HETATM   16  N   UNL     1     -46.224  59.876 -47.464  1.00  0.00    -0.152 NA
HETATM   17  N   UNL     1     -45.916  59.988 -46.166  1.00  0.00    -0.263 N 
HETATM   18  H   UNL     1     -46.373  59.384 -45.493  1.00  0.00     0.190 HD
HETATM   19  C   UNL     1     -44.975  60.953 -45.957  1.00  0.00     0.118 A 
HETATM   20  C   UNL     1     -44.451  61.297 -44.620  1.00  0.00     0.093 C 
HETATM   21  N   UNL     1     -44.652  61.486 -47.115  1.00  0.00    -0.212 NA
ENDBRANCH  11  15
ENDBRANCH   5   9
BRANCH   1  22
HETATM   22  C   UNL     1     -41.040  55.437 -53.447  1.00  0.00    -0.030 A 
HETATM   23  C   UNL     1     -41.105  54.350 -52.561  1.00  0.00     0.014 A 
HETATM   24  C   UNL     1     -40.738  53.056 -52.959  1.00  0.00     0.037 A 
HETATM   25  C   UNL     1     -40.291  52.821 -54.256  1.00  0.00     0.068 A 
HETATM   26  C   UNL     1     -40.205  53.893 -55.142  1.00  0.00     0.037 A 
HETATM   27  C   UNL     1     -40.583  55.183 -54.747  1.00  0.00     0.014 A 
BRANCH  25  28
HETATM   28  O   UNL     1     -39.911  51.614 -54.770  1.00  0.00    -0.352 OA
BRANCH  28  29
HETATM   29  C   UNL     1     -40.476  50.450 -54.169  1.00  0.00     0.171 C 
HETATM   30  C   UNL     1     -39.352  49.462 -53.910  1.00  0.00     0.034 C 
ENDBRANCH  28  29
ENDBRANCH  25  28
ENDBRANCH   1  22
TORSDOF 5
ENDMDL
MODEL 8
REMARK VINA RESULT:      -7.9     18.203     20.767
REMARK  5 active torsions:
REMARK  status: ('A' for Active; 'I' for Inactive)
REMARK    1  A    between atoms: C_2  and  O_3 
REMARK    2  A    between atoms: O_3  and  C_4 
REMARK    3  A    between atoms: C_7  and  C_8 
REMARK       I    between atoms: N_11  and  C_12 
REMARK    4  A    between atoms: C_12  and  C_13 
REMARK    5  A    between atoms: C_15  and  C_16 
ROOT
HETATM    1  C   UNL     1     -34.462  39.657 -50.569  1.00  0.00    -0.049 C 
HETATM    2  C   UNL     1     -35.858  40.144 -50.258  1.00  0.00     0.059 C 
HETATM    3  C   UNL     1     -36.806  39.981 -51.443  1.00  0.00     0.131 C 
HETATM    4  N   UNL     1     -36.209  40.452 -52.690  1.00  0.00    -0.344 N 
HETATM    5  C   UNL     1     -37.099  40.966 -53.641  1.00  0.00     0.254 C 
HETATM    6  O   UNL     1     -38.292  41.156 -53.417  1.00  0.00    -0.267 OA
HETATM    7  C   UNL     1     -34.931  39.846 -53.054  1.00  0.00     0.154 C 
HETATM    8  C   UNL     1     -34.077  39.536 -51.854  1.00  0.00     0.001 C 
ENDROOT
BRANCH   5   9
HETATM    9  C   UNL     1     -36.619  41.282 -55.003  1.00  0.00     0.033 A 
HETATM   10  C   UNL     1     -37.206  40.609 -56.082  1.00  0.00     0.032 A 
HETATM   11  C   UNL     1     -36.836  40.916 -57.397  1.00  0.00     0.014 A 
HETATM   12  C   UNL     1     -35.868  41.910 -57.611  1.00  0.00     0.015 A 
HETATM   13  C   UNL     1     -35.298  42.598 -56.536  1.00  0.00     0.002 A 
HETATM   14  C   UNL     1     -35.684  42.297 -55.229  1.00  0.00     0.017 A 
BRANCH  11  15
HETATM   15  C   UNL     1     -37.461  40.234 -58.527  1.00  0.00     0.181 A 
HETATM   16  N   UNL     1     -37.221  40.534 -59.813  1.00  0.00    -0.152 NA
HETATM   17  N   UNL     1     -37.978  39.639 -60.459  1.00  0.00    -0.263 N 
HETATM   18  H   UNL     1     -37.976  39.628 -61.473  1.00  0.00     0.190 HD
HETATM   19  C   UNL     1     -38.660  38.840 -59.591  1.00  0.00     0.118 A 
HETATM   20  C   UNL     1     -39.576  37.767 -60.026  1.00  0.00     0.093 C 
HETATM   21  N   UNL     1     -38.360  39.199 -58.362  1.00  0.00    -0.212 NA
ENDBRANCH  11  15
ENDBRANCH   5   9
BRANCH   1  22
HETATM   22  C   UNL     1     -33.566  39.338 -49.425  1.00  0.00    -0.030 A 
HETATM   23  C   UNL     1     -33.884  38.305 -48.529  1.00  0.00     0.014 A 
HETATM   24  C   UNL     1     -33.024  37.955 -47.477  1.00  0.00     0.037 A 
HETATM   25  C   UNL     1     -31.824  38.638 -47.296  1.00  0.00     0.068 A 
HETATM   26  C   UNL     1     -31.502  39.677 -48.168  1.00  0.00     0.037 A 
HETATM   27  C   UNL     1     -32.357  40.017 -49.224  1.00  0.00     0.014 A 
BRANCH  25  28
HETATM   28  O   UNL     1     -30.899  38.394 -46.320  1.00  0.00    -0.352 OA
BRANCH  28  29
HETATM   29  C   UNL     1     -30.016  39.465 -45.988  1.00  0.00     0.171 C 
HETATM   30  C   UNL     1     -30.394  39.974 -44.608  1.00  0.00     0.034 C 
ENDBRANCH  28  29
ENDBRANCH  25  28
ENDBRANCH   1  22
TORSDOF 5
ENDMDL
MODEL 9
REMARK VINA RESULT:      -7.9     18.137     20.327
REMARK  5 active torsions:
REMARK  status: ('A' for Active; 'I' for Inactive)
REMARK    1  A    between atoms: C_2  and  O_3 
REMARK    2  A    between atoms: O_3  and  C_4 
REMARK    3  A    between atoms: C_7  and  C_8 
REMARK       I    between atoms: N_11  and  C_12 
REMARK    4  A    between atoms: C_12  and  C_13 
REMARK    5  A    between atoms: C_15  and  C_16 
ROOT
HETATM    1  C   UNL     1     -37.045  40.206 -57.102  1.00  0.00    -0.049 C 
HETATM    2  C   UNL     1     -37.048  41.688 -56.811  1.00  0.00     0.059 C 
HETATM    3  C   UNL     1     -36.111  42.056 -55.665  1.00  0.00     0.131 C 
HETATM    4  N   UNL     1     -36.270  41.164 -54.520  1.00  0.00    -0.344 N 
HETATM    5  C   UNL     1     -36.016  41.725 -53.263  1.00  0.00     0.254 C 
HETATM    6  O   UNL     1     -35.811  42.924 -53.087  1.00  0.00    -0.267 OA
HETATM    7  C   UNL     1     -36.102  39.738 -54.794  1.00  0.00     0.154 C 
HETATM    8  C   UNL     1     -36.609  39.350 -56.157  1.00  0.00     0.001 C 
ENDROOT
BRANCH   5   9
HETATM    9  C   UNL     1     -35.957  40.857 -52.067  1.00  0.00     0.033 A 
HETATM   10  C   UNL     1     -34.710  40.654 -51.461  1.00  0.00     0.032 A 
HETATM   11  C   UNL     1     -34.606  39.894 -50.289  1.00  0.00     0.014 A 
HETATM   12  C   UNL     1     -35.772  39.345 -49.736  1.00  0.00     0.015 A 
HETATM   13  C   UNL     1     -37.020  39.566 -50.327  1.00  0.00     0.002 A 
HETATM   14  C   UNL     1     -37.117  40.336 -51.486  1.00  0.00     0.017 A 
BRANCH  11  15
HETATM   15  C   UNL     1     -33.312  39.699 -49.640  1.00  0.00     0.181 A 
HETATM   16  N   UNL     1     -32.159  40.213 -50.093  1.00  0.00    -0.152 NA
HETATM   17  N   UNL     1     -31.282  39.801 -49.169  1.00  0.00    -0.263 N 
HETATM   18  H   UNL     1     -30.308  40.066 -49.256  1.00  0.00     0.190 HD
HETATM   19  C   UNL     1     -31.887  39.053 -48.203  1.00  0.00     0.118 A 
HETATM   20  C   UNL     1     -31.161  38.462 -47.061  1.00  0.00     0.093 C 
HETATM   21  N   UNL     1     -33.170  38.964 -48.480  1.00  0.00    -0.212 NA
ENDBRANCH  11  15
ENDBRANCH   5   9
BRANCH   1  22
HETATM   22  C   UNL     1     -37.539  39.757 -58.431  1.00  0.00    -0.030 A 
HETATM   23  C   UNL     1     -37.198  40.457 -59.600  1.00  0.00     0.014 A 
HETATM   24  C   UNL     1     -37.610  40.016 -60.866  1.00  0.00     0.037 A 
HETATM   25  C   UNL     1     -38.379  38.863 -60.991  1.00  0.00     0.068 A 
HETATM   26  C   UNL     1     -38.740  38.166 -59.839  1.00  0.00     0.037 A 
HETATM   27  C   UNL     1     -38.318  38.601 -58.576  1.00  0.00     0.014 A 
BRANCH  25  28
HETATM   28  O   UNL     1     -38.839  38.324 -62.160  1.00  0.00    -0.352 OA
BRANCH  28  29
HETATM   29  C   UNL     1     -39.959  37.445 -62.068  1.00  0.00     0.171 C 
HETATM   30  C   UNL     1     -41.063  37.998 -62.952  1.00  0.00     0.034 C 
ENDBRANCH  28  29
ENDBRANCH  25  28
ENDBRANCH   1  22
TORSDOF 5
ENDMDL
MODEL 10
REMARK VINA RESULT:      -7.5      3.739     10.089
REMARK  5 active torsions:
REMARK  status: ('A' for Active; 'I' for Inactive)
REMARK    1  A    between atoms: C_2  and  O_3 
REMARK    2  A    between atoms: O_3  and  C_4 
REMARK    3  A    between atoms: C_7  and  C_8 
REMARK       I    between atoms: N_11  and  C_12 
REMARK    4  A    between atoms: C_12  and  C_13 
REMARK    5  A    between atoms: C_15  and  C_16 
ROOT
HETATM    1  C   UNL     1     -44.639  59.715 -51.881  1.00  0.00    -0.049 C 
HETATM    2  C   UNL     1     -43.600  59.906 -52.961  1.00  0.00     0.059 C 
HETATM    3  C   UNL     1     -43.016  58.582 -53.445  1.00  0.00     0.131 C 
HETATM    4  N   UNL     1     -42.653  57.706 -52.335  1.00  0.00    -0.344 N 
HETATM    5  C   UNL     1     -41.578  56.838 -52.563  1.00  0.00     0.254 C 
HETATM    6  O   UNL     1     -40.872  56.887 -53.568  1.00  0.00    -0.267 OA
HETATM    7  C   UNL     1     -43.723  57.402 -51.387  1.00  0.00     0.154 C 
HETATM    8  C   UNL     1     -44.660  58.561 -51.185  1.00  0.00     0.001 C 
ENDROOT
BRANCH   5   9
HETATM    9  C   UNL     1     -41.263  55.781 -51.578  1.00  0.00     0.033 A 
HETATM   10  C   UNL     1     -40.893  54.520 -52.062  1.00  0.00     0.032 A 
HETATM   11  C   UNL     1     -40.522  53.500 -51.176  1.00  0.00     0.014 A 
HETATM   12  C   UNL     1     -40.528  53.769 -49.798  1.00  0.00     0.015 A 
HETATM   13  C   UNL     1     -40.875  55.035 -49.316  1.00  0.00     0.002 A 
HETATM   14  C   UNL     1     -41.229  56.049 -50.207  1.00  0.00     0.017 A 
BRANCH  11  15
HETATM   15  C   UNL     1     -40.112  52.190 -51.674  1.00  0.00     0.181 A 
HETATM   16  N   UNL     1     -39.843  51.137 -50.887  1.00  0.00    -0.152 NA
HETATM   17  N   UNL     1     -39.555  50.182 -51.780  1.00  0.00    -0.263 N 
HETATM   18  H   UNL     1     -39.323  49.252 -51.453  1.00  0.00     0.190 HD
HETATM   19  C   UNL     1     -39.633  50.651 -53.058  1.00  0.00     0.118 A 
HETATM   20  C   UNL     1     -39.361  49.818 -54.246  1.00  0.00     0.093 C 
HETATM   21  N   UNL     1     -39.975  51.921 -53.021  1.00  0.00    -0.212 NA
ENDBRANCH  11  15
ENDBRANCH   5   9
BRANCH   1  22
HETATM   22  C   UNL     1     -45.593  60.827 -51.630  1.00  0.00    -0.030 A 
HETATM   23  C   UNL     1     -45.400  61.712 -50.557  1.00  0.00     0.014 A 
HETATM   24  C   UNL     1     -46.260  62.798 -50.337  1.00  0.00     0.037 A 
HETATM   25  C   UNL     1     -47.340  63.021 -51.187  1.00  0.00     0.068 A 
HETATM   26  C   UNL     1     -47.554  62.142 -52.247  1.00  0.00     0.037 A 
HETATM   27  C   UNL     1     -46.688  61.064 -52.472  1.00  0.00     0.014 A 
BRANCH  25  28
HETATM   28  O   UNL     1     -48.245  64.040 -51.089  1.00  0.00    -0.352 OA
BRANCH  28  29
HETATM   29  C   UNL     1     -49.579  63.684 -50.729  1.00  0.00     0.171 C 
HETATM   30  C   UNL     1     -49.685  63.734 -49.214  1.00  0.00     0.034 C 
ENDBRANCH  28  29
ENDBRANCH  25  28
ENDBRANCH   1  22
TORSDOF 5
ENDMDL
