MODEL 1
REMARK VINA RESULT:      -9.3      0.000      0.000
REMARK  5 active torsions:
REMARK  status: ('A' for Active; 'I' for Inactive)
REMARK    1  A    between atoms: C_4  and  N_5 
REMARK       I    between atoms: C_6  and  N_7 
REMARK       I    between atoms: C_6  and  N_14 
REMARK       I    between atoms: N_7  and  C_8 
REMARK    2  A    between atoms: C_8  and  C_9 
REMARK    3  A    between atoms: N_14  and  C_15 
REMARK    4  A    between atoms: C_15  and  C_16 
REMARK    5  A    between atoms: C_16  and  C_17 
ROOT
HETATM    1  N   UNL     1     -41.890  58.762 -54.084  1.00  0.00     0.130 NA
HETATM    2  C   UNL     1     -42.274  57.554 -54.326  1.00  0.00     0.718 C 
HETATM    3  N   UNL     1     -42.604  57.214 -55.626  1.00  0.00    -0.157 N 
HETATM    4  C   UNL     1     -42.558  57.999 -56.780  1.00  0.00     0.243 C 
HETATM    5  O   UNL     1     -42.100  59.135 -56.852  1.00  0.00    -0.272 OA
HETATM    6  N   UNL     1     -42.405  56.559 -53.388  1.00  0.00    -0.223 N 
HETATM    7  H   UNL     1     -42.974  56.288 -55.730  1.00  0.00     0.187 HD
HETATM    8  H   UNL     1     -41.929  56.832 -52.523  1.00  0.00     0.177 HD
ENDROOT
BRANCH   1   9
HETATM    9  C   UNL     1     -41.560  59.197 -52.806  1.00  0.00     0.764 A 
HETATM   10  N   UNL     1     -40.293  59.043 -52.369  1.00  0.00    -0.065 NA
HETATM   11  C   UNL     1     -40.021  59.516 -51.136  1.00  0.00     0.051 A 
HETATM   12  C   UNL     1     -38.615  59.372 -50.640  1.00  0.00     0.071 C 
HETATM   13  C   UNL     1     -40.981  60.111 -50.342  1.00  0.00     0.054 A 
HETATM   14  C   UNL     1     -42.251  60.212 -50.875  1.00  0.00     0.051 A 
HETATM   15  N   UNL     1     -42.554  59.761 -52.107  1.00  0.00    -0.065 NA
HETATM   16  C   UNL     1     -43.358  60.839 -50.084  1.00  0.00     0.071 C 
ENDBRANCH   1   9
BRANCH   6  17
HETATM   17  C   UNL     1     -42.413  55.126 -53.619  1.00  0.00     0.142 C 
BRANCH  17  18
HETATM   18  C   UNL     1     -40.988  54.623 -53.880  1.00  0.00     0.061 C 
BRANCH  18  19
HETATM   19  C   UNL     1     -40.545  53.618 -52.867  1.00  0.00    -0.029 A 
HETATM   20  C   UNL     1     -40.257  52.236 -53.108  1.00  0.00    -0.002 A 
HETATM   21  C   UNL     1     -39.889  51.666 -51.890  1.00  0.00     0.042 A 
HETATM   22  C   UNL     1     -40.281  51.414 -54.255  1.00  0.00     0.014 A 
HETATM   23  C   UNL     1     -39.544  50.315 -51.758  1.00  0.00     0.030 A 
HETATM   24  N   UNL     1     -39.949  52.661 -50.943  1.00  0.00    -0.365 N 
HETATM   25  C   UNL     1     -39.578  49.523 -52.909  1.00  0.00     0.002 A 
HETATM   26  C   UNL     1     -39.940  50.062 -54.141  1.00  0.00     0.001 A 
HETATM   27  H   UNL     1     -39.738  52.532 -49.963  1.00  0.00     0.165 HD
HETATM   28  C   UNL     1     -40.340  53.840 -51.519  1.00  0.00     0.096 A 
ENDBRANCH  18  19
ENDBRANCH  17  18
ENDBRANCH   6  17
BRANCH   4  29
HETATM   29  C   UNL     1     -43.086  57.271 -58.041  1.00  0.00     0.031 C 
HETATM   30  C   UNL     1     -42.210  57.590 -59.262  1.00  0.00     0.025 C 
HETATM   31  C   UNL     1     -43.048  55.749 -57.805  1.00  0.00     0.025 C 
HETATM   32  C   UNL     1     -44.540  57.689 -58.306  1.00  0.00     0.025 C 
ENDBRANCH   4  29
TORSDOF 5
ENDMDL
MODEL 2
REMARK VINA RESULT:      -9.3      0.262      1.797
REMARK  5 active torsions:
REMARK  status: ('A' for Active; 'I' for Inactive)
REMARK    1  A    between atoms: C_4  and  N_5 
REMARK       I    between atoms: C_6  and  N_7 
REMARK       I    between atoms: C_6  and  N_14 
REMARK       I    between atoms: N_7  and  C_8 
REMARK    2  A    between atoms: C_8  and  C_9 
REMARK    3  A    between atoms: N_14  and  C_15 
REMARK    4  A    between atoms: C_15  and  C_16 
REMARK    5  A    between atoms: C_16  and  C_17 
ROOT
HETATM    1  N   UNL     1     -41.808  58.766 -54.327  1.00  0.00     0.130 NA
HETATM    2  C   UNL     1     -42.202  57.567 -54.593  1.00  0.00     0.718 C 
HETATM    3  N   UNL     1     -42.508  57.248 -55.904  1.00  0.00    -0.157 N 
HETATM    4  C   UNL     1     -42.426  58.046 -57.046  1.00  0.00     0.243 C 
HETATM    5  O   UNL     1     -41.951  59.177 -57.094  1.00  0.00    -0.272 OA
HETATM    6  N   UNL     1     -42.368  56.562 -53.670  1.00  0.00    -0.223 N 
HETATM    7  H   UNL     1     -42.889  56.329 -56.028  1.00  0.00     0.187 HD
HETATM    8  H   UNL     1     -41.908  56.817 -52.792  1.00  0.00     0.177 HD
ENDROOT
BRANCH   1   9
HETATM    9  C   UNL     1     -41.500  59.180 -53.036  1.00  0.00     0.764 A 
HETATM   10  N   UNL     1     -42.475  59.713 -52.270  1.00  0.00    -0.065 NA
HETATM   11  C   UNL     1     -42.128  60.064 -51.015  1.00  0.00     0.051 A 
HETATM   12  C   UNL     1     -43.201  60.640 -50.142  1.00  0.00     0.071 C 
HETATM   13  C   UNL     1     -40.845  59.910 -50.530  1.00  0.00     0.054 A 
HETATM   14  C   UNL     1     -39.917  59.365 -51.395  1.00  0.00     0.051 A 
HETATM   15  N   UNL     1     -40.231  58.994 -52.650  1.00  0.00    -0.065 NA
HETATM   16  C   UNL     1     -38.498  59.165 -50.957  1.00  0.00     0.071 C 
ENDBRANCH   1   9
BRANCH   6  17
HETATM   17  C   UNL     1     -42.391  55.132 -53.920  1.00  0.00     0.142 C 
BRANCH  17  18
HETATM   18  C   UNL     1     -40.966  54.609 -54.133  1.00  0.00     0.061 C 
BRANCH  18  19
HETATM   19  C   UNL     1     -40.545  53.655 -53.062  1.00  0.00    -0.029 A 
HETATM   20  C   UNL     1     -40.241  52.266 -53.231  1.00  0.00    -0.002 A 
HETATM   21  C   UNL     1     -39.903  51.755 -51.978  1.00  0.00     0.042 A 
HETATM   22  C   UNL     1     -40.227  51.391 -54.338  1.00  0.00     0.014 A 
HETATM   23  C   UNL     1     -39.552  50.415 -51.774  1.00  0.00     0.030 A 
HETATM   24  N   UNL     1     -39.996  52.793 -51.080  1.00  0.00    -0.365 N 
HETATM   25  C   UNL     1     -39.549  49.570 -52.887  1.00  0.00     0.002 A 
HETATM   26  C   UNL     1     -39.879  50.048 -54.153  1.00  0.00     0.001 A 
HETATM   27  H   UNL     1     -39.812  52.712 -50.090  1.00  0.00     0.165 HD
HETATM   28  C   UNL     1     -40.379  53.941 -51.721  1.00  0.00     0.096 A 
ENDBRANCH  18  19
ENDBRANCH  17  18
ENDBRANCH   6  17
BRANCH   4  29
HETATM   29  C   UNL     1     -42.936  57.342 -58.328  1.00  0.00     0.031 C 
HETATM   30  C   UNL     1     -43.005  55.820 -58.123  1.00  0.00     0.025 C 
HETATM   31  C   UNL     1     -44.352  57.848 -58.660  1.00  0.00     0.025 C 
HETATM   32  C   UNL     1     -42.007  57.679 -59.504  1.00  0.00     0.025 C 
ENDBRANCH   4  29
TORSDOF 5
ENDMDL
MODEL 3
REMARK VINA RESULT:      -9.2      1.713      2.700
REMARK  5 active torsions:
REMARK  status: ('A' for Active; 'I' for Inactive)
REMARK    1  A    between atoms: C_4  and  N_5 
REMARK       I    between atoms: C_6  and  N_7 
REMARK       I    between atoms: C_6  and  N_14 
REMARK       I    between atoms: N_7  and  C_8 
REMARK    2  A    between atoms: C_8  and  C_9 
REMARK    3  A    between atoms: N_14  and  C_15 
REMARK    4  A    between atoms: C_15  and  C_16 
REMARK    5  A    between atoms: C_16  and  C_17 
ROOT
HETATM    1  N   UNL     1     -43.641  57.640 -55.132  1.00  0.00     0.130 NA
HETATM    2  C   UNL     1     -43.463  56.438 -55.565  1.00  0.00     0.718 C 
HETATM    3  N   UNL     1     -43.459  56.222 -56.931  1.00  0.00    -0.157 N 
HETATM    4  C   UNL     1     -43.595  57.145 -57.970  1.00  0.00     0.243 C 
HETATM    5  O   UNL     1     -43.637  58.365 -57.838  1.00  0.00    -0.272 OA
HETATM    6  N   UNL     1     -43.291  55.326 -54.775  1.00  0.00    -0.223 N 
HETATM    7  H   UNL     1     -43.401  55.257 -57.197  1.00  0.00     0.187 HD
HETATM    8  H   UNL     1     -43.081  55.612 -53.815  1.00  0.00     0.177 HD
ENDROOT
BRANCH   1   9
HETATM    9  C   UNL     1     -43.681  57.946 -53.777  1.00  0.00     0.764 A 
HETATM   10  N   UNL     1     -44.769  58.569 -53.278  1.00  0.00    -0.065 NA
HETATM   11  C   UNL     1     -44.769  58.809 -51.952  1.00  0.00     0.051 A 
HETATM   12  C   UNL     1     -45.976  59.483 -51.375  1.00  0.00     0.071 C 
HETATM   13  C   UNL     1     -43.712  58.459 -51.136  1.00  0.00     0.054 A 
HETATM   14  C   UNL     1     -42.640  57.835 -51.743  1.00  0.00     0.051 A 
HETATM   15  N   UNL     1     -42.612  57.570 -53.062  1.00  0.00    -0.065 NA
HETATM   16  C   UNL     1     -41.446  57.423 -50.937  1.00  0.00     0.071 C 
ENDBRANCH   1   9
BRANCH   6  17
HETATM   17  C   UNL     1     -42.683  54.064 -55.152  1.00  0.00     0.142 C 
BRANCH  17  18
HETATM   18  C   UNL     1     -41.160  54.139 -54.988  1.00  0.00     0.061 C 
BRANCH  18  19
HETATM   19  C   UNL     1     -40.694  53.521 -53.710  1.00  0.00    -0.029 A 
HETATM   20  C   UNL     1     -40.310  52.155 -53.516  1.00  0.00    -0.002 A 
HETATM   21  C   UNL     1     -39.954  52.006 -52.176  1.00  0.00     0.042 A 
HETATM   22  C   UNL     1     -40.236  51.026 -54.359  1.00  0.00     0.014 A 
HETATM   23  C   UNL     1     -39.529  50.787 -51.634  1.00  0.00     0.030 A 
HETATM   24  N   UNL     1     -40.114  53.234 -51.576  1.00  0.00    -0.365 N 
HETATM   25  C   UNL     1     -39.468  49.684 -52.491  1.00  0.00     0.002 A 
HETATM   26  C   UNL     1     -39.815  49.799 -53.835  1.00  0.00     0.001 A 
HETATM   27  H   UNL     1     -39.934  53.422 -50.600  1.00  0.00     0.165 HD
HETATM   28  C   UNL     1     -40.556  54.153 -52.490  1.00  0.00     0.096 A 
ENDBRANCH  18  19
ENDBRANCH  17  18
ENDBRANCH   6  17
BRANCH   4  29
HETATM   29  C   UNL     1     -43.616  56.494 -59.374  1.00  0.00     0.031 C 
HETATM   30  C   UNL     1     -43.970  55.002 -59.279  1.00  0.00     0.025 C 
HETATM   31  C   UNL     1     -44.682  57.188 -60.243  1.00  0.00     0.025 C 
HETATM   32  C   UNL     1     -42.246  56.673 -60.045  1.00  0.00     0.025 C 
ENDBRANCH   4  29
TORSDOF 5
ENDMDL
MODEL 4
REMARK VINA RESULT:      -9.1      2.064      5.679
REMARK  5 active torsions:
REMARK  status: ('A' for Active; 'I' for Inactive)
REMARK    1  A    between atoms: C_4  and  N_5 
REMARK       I    between atoms: C_6  and  N_7 
REMARK       I    between atoms: C_6  and  N_14 
REMARK       I    between atoms: N_7  and  C_8 
REMARK    2  A    between atoms: C_8  and  C_9 
REMARK    3  A    between atoms: N_14  and  C_15 
REMARK    4  A    between atoms: C_15  and  C_16 
REMARK    5  A    between atoms: C_16  and  C_17 
ROOT
HETATM    1  N   UNL     1     -43.620  57.270 -56.284  1.00  0.00     0.130 NA
HETATM    2  C   UNL     1     -43.081  56.409 -55.490  1.00  0.00     0.718 C 
HETATM    3  N   UNL     1     -43.221  56.590 -54.125  1.00  0.00    -0.157 N 
HETATM    4  C   UNL     1     -43.910  57.589 -53.436  1.00  0.00     0.243 C 
HETATM    5  O   UNL     1     -44.623  58.447 -53.948  1.00  0.00    -0.272 OA
HETATM    6  N   UNL     1     -42.349  55.314 -55.884  1.00  0.00    -0.223 N 
HETATM    7  H   UNL     1     -42.707  55.935 -53.567  1.00  0.00     0.187 HD
HETATM    8  H   UNL     1     -42.495  55.140 -56.882  1.00  0.00     0.177 HD
ENDROOT
BRANCH   1   9
HETATM    9  C   UNL     1     -43.512  57.179 -57.666  1.00  0.00     0.764 A 
HETATM   10  N   UNL     1     -42.905  58.176 -58.343  1.00  0.00    -0.065 NA
HETATM   11  C   UNL     1     -42.797  58.018 -59.678  1.00  0.00     0.051 A 
HETATM   12  C   UNL     1     -42.109  59.106 -60.445  1.00  0.00     0.071 C 
HETATM   13  C   UNL     1     -43.292  56.910 -60.335  1.00  0.00     0.054 A 
HETATM   14  C   UNL     1     -43.906  55.949 -59.556  1.00  0.00     0.051 A 
HETATM   15  N   UNL     1     -44.021  56.070 -58.220  1.00  0.00    -0.065 NA
HETATM   16  C   UNL     1     -44.477  54.714 -60.183  1.00  0.00     0.071 C 
ENDBRANCH   1   9
BRANCH   6  17
HETATM   17  C   UNL     1     -42.082  54.111 -55.117  1.00  0.00     0.142 C 
BRANCH  17  18
HETATM   18  C   UNL     1     -40.590  54.018 -54.778  1.00  0.00     0.061 C 
BRANCH  18  19
HETATM   19  C   UNL     1     -40.345  53.321 -53.479  1.00  0.00    -0.029 A 
HETATM   20  C   UNL     1     -40.047  51.931 -53.301  1.00  0.00    -0.002 A 
HETATM   21  C   UNL     1     -39.902  51.705 -51.933  1.00  0.00     0.042 A 
HETATM   22  C   UNL     1     -39.892  50.840 -54.183  1.00  0.00     0.014 A 
HETATM   23  C   UNL     1     -39.610  50.444 -51.399  1.00  0.00     0.030 A 
HETATM   24  N   UNL     1     -40.102  52.910 -51.300  1.00  0.00    -0.365 N 
HETATM   25  C   UNL     1     -39.464  49.380 -52.294  1.00  0.00     0.002 A 
HETATM   26  C   UNL     1     -39.601  49.573 -53.667  1.00  0.00     0.001 A 
HETATM   27  H   UNL     1     -40.063  53.044 -50.300  1.00  0.00     0.165 HD
HETATM   28  C   UNL     1     -40.367  53.890 -52.220  1.00  0.00     0.096 A 
ENDBRANCH  18  19
ENDBRANCH  17  18
ENDBRANCH   6  17
BRANCH   4  29
HETATM   29  C   UNL     1     -43.765  57.489 -51.898  1.00  0.00     0.031 C 
HETATM   30  C   UNL     1     -42.603  58.364 -51.402  1.00  0.00     0.025 C 
HETATM   31  C   UNL     1     -45.060  57.984 -51.228  1.00  0.00     0.025 C 
HETATM   32  C   UNL     1     -43.535  56.024 -51.497  1.00  0.00     0.025 C 
ENDBRANCH   4  29
TORSDOF 5
ENDMDL
MODEL 5
REMARK VINA RESULT:      -8.9      1.717      2.834
REMARK  5 active torsions:
REMARK  status: ('A' for Active; 'I' for Inactive)
REMARK    1  A    between atoms: C_4  and  N_5 
REMARK       I    between atoms: C_6  and  N_7 
REMARK       I    between atoms: C_6  and  N_14 
REMARK       I    between atoms: N_7  and  C_8 
REMARK    2  A    between atoms: C_8  and  C_9 
REMARK    3  A    between atoms: N_14  and  C_15 
REMARK    4  A    between atoms: C_15  and  C_16 
REMARK    5  A    between atoms: C_16  and  C_17 
ROOT
HETATM    1  N   UNL     1     -43.524  57.803 -55.216  1.00  0.00     0.130 NA
HETATM    2  C   UNL     1     -43.441  56.592 -55.651  1.00  0.00     0.718 C 
HETATM    3  N   UNL     1     -43.724  56.348 -56.983  1.00  0.00    -0.157 N 
HETATM    4  C   UNL     1     -44.075  57.251 -57.989  1.00  0.00     0.243 C 
HETATM    5  O   UNL     1     -44.088  58.473 -57.877  1.00  0.00    -0.272 OA
HETATM    6  N   UNL     1     -43.107  55.496 -54.892  1.00  0.00    -0.223 N 
HETATM    7  H   UNL     1     -43.724  55.378 -57.235  1.00  0.00     0.187 HD
HETATM    8  H   UNL     1     -42.700  55.801 -54.003  1.00  0.00     0.177 HD
ENDROOT
BRANCH   1   9
HETATM    9  C   UNL     1     -43.278  58.137 -53.890  1.00  0.00     0.764 A 
HETATM   10  N   UNL     1     -42.008  58.378 -53.499  1.00  0.00    -0.065 NA
HETATM   11  C   UNL     1     -41.833  58.732 -52.210  1.00  0.00     0.051 A 
HETATM   12  C   UNL     1     -40.433  59.021 -51.762  1.00  0.00     0.071 C 
HETATM   13  C   UNL     1     -42.883  58.831 -51.320  1.00  0.00     0.054 A 
HETATM   14  C   UNL     1     -44.143  58.555 -51.813  1.00  0.00     0.051 A 
HETATM   15  N   UNL     1     -44.355  58.209 -53.096  1.00  0.00    -0.065 NA
HETATM   16  C   UNL     1     -45.342  58.632 -50.917  1.00  0.00     0.071 C 
ENDBRANCH   1   9
BRANCH   6  17
HETATM   17  C   UNL     1     -42.592  54.223 -55.362  1.00  0.00     0.142 C 
BRANCH  17  18
HETATM   18  C   UNL     1     -41.066  54.183 -55.217  1.00  0.00     0.061 C 
BRANCH  18  19
HETATM   19  C   UNL     1     -40.630  53.439 -53.996  1.00  0.00    -0.029 A 
HETATM   20  C   UNL     1     -40.675  53.916 -52.647  1.00  0.00    -0.002 A 
HETATM   21  C   UNL     1     -40.166  52.908 -51.829  1.00  0.00     0.042 A 
HETATM   22  C   UNL     1     -41.099  55.120 -52.045  1.00  0.00     0.014 A 
HETATM   23  C   UNL     1     -40.059  53.041 -50.439  1.00  0.00     0.030 A 
HETATM   24  N   UNL     1     -39.826  51.856 -52.647  1.00  0.00    -0.365 N 
HETATM   25  C   UNL     1     -40.483  54.245 -49.869  1.00  0.00     0.002 A 
HETATM   26  C   UNL     1     -40.998  55.271 -50.658  1.00  0.00     0.001 A 
HETATM   27  H   UNL     1     -39.425  50.987 -52.324  1.00  0.00     0.165 HD
HETATM   28  C   UNL     1     -40.103  52.163 -53.952  1.00  0.00     0.096 A 
ENDBRANCH  18  19
ENDBRANCH  17  18
ENDBRANCH   6  17
BRANCH   4  29
HETATM   29  C   UNL     1     -44.391  56.571 -59.344  1.00  0.00     0.031 C 
HETATM   30  C   UNL     1     -44.024  55.080 -59.305  1.00  0.00     0.025 C 
HETATM   31  C   UNL     1     -45.899  56.689 -59.635  1.00  0.00     0.025 C 
HETATM   32  C   UNL     1     -43.619  57.280 -60.467  1.00  0.00     0.025 C 
ENDBRANCH   4  29
TORSDOF 5
ENDMDL
MODEL 6
REMARK VINA RESULT:      -8.8      1.339      5.509
REMARK  5 active torsions:
REMARK  status: ('A' for Active; 'I' for Inactive)
REMARK    1  A    between atoms: C_4  and  N_5 
REMARK       I    between atoms: C_6  and  N_7 
REMARK       I    between atoms: C_6  and  N_14 
REMARK       I    between atoms: N_7  and  C_8 
REMARK    2  A    between atoms: C_8  and  C_9 
REMARK    3  A    between atoms: N_14  and  C_15 
REMARK    4  A    between atoms: C_15  and  C_16 
REMARK    5  A    between atoms: C_16  and  C_17 
ROOT
HETATM    1  N   UNL     1     -43.097  58.120 -55.207  1.00  0.00     0.130 NA
HETATM    2  C   UNL     1     -42.520  57.200 -54.511  1.00  0.00     0.718 C 
HETATM    3  N   UNL     1     -41.935  57.551 -53.307  1.00  0.00    -0.157 N 
HETATM    4  C   UNL     1     -41.891  58.798 -52.680  1.00  0.00     0.243 C 
HETATM    5  O   UNL     1     -42.478  59.807 -53.058  1.00  0.00    -0.272 OA
HETATM    6  N   UNL     1     -42.416  55.878 -54.872  1.00  0.00    -0.223 N 
HETATM    7  H   UNL     1     -41.432  56.808 -52.860  1.00  0.00     0.187 HD
HETATM    8  H   UNL     1     -43.063  55.676 -55.640  1.00  0.00     0.177 HD
ENDROOT
BRANCH   1   9
HETATM    9  C   UNL     1     -43.691  57.862 -56.436  1.00  0.00     0.764 A 
HETATM   10  N   UNL     1     -44.993  58.172 -56.612  1.00  0.00    -0.065 NA
HETATM   11  C   UNL     1     -45.507  57.934 -57.835  1.00  0.00     0.051 A 
HETATM   12  C   UNL     1     -46.947  58.288 -58.056  1.00  0.00     0.071 C 
HETATM   13  C   UNL     1     -44.761  57.386 -58.859  1.00  0.00     0.054 A 
HETATM   14  C   UNL     1     -43.441  57.093 -58.577  1.00  0.00     0.051 A 
HETATM   15  N   UNL     1     -42.893  57.329 -57.371  1.00  0.00    -0.065 NA
HETATM   16  C   UNL     1     -42.557  56.492 -59.626  1.00  0.00     0.071 C 
ENDBRANCH   1   9
BRANCH   6  17
HETATM   17  C   UNL     1     -42.179  54.743 -54.000  1.00  0.00     0.142 C 
BRANCH  17  18
HETATM   18  C   UNL     1     -40.675  54.473 -53.879  1.00  0.00     0.061 C 
BRANCH  18  19
HETATM   19  C   UNL     1     -40.359  53.488 -52.799  1.00  0.00    -0.029 A 
HETATM   20  C   UNL     1     -40.082  52.094 -52.973  1.00  0.00    -0.002 A 
HETATM   21  C   UNL     1     -39.850  51.552 -51.709  1.00  0.00     0.042 A 
HETATM   22  C   UNL     1     -40.012  51.240 -54.094  1.00  0.00     0.014 A 
HETATM   23  C   UNL     1     -39.552  50.199 -51.507  1.00  0.00     0.030 A 
HETATM   24  N   UNL     1     -39.979  52.576 -50.800  1.00  0.00    -0.365 N 
HETATM   25  C   UNL     1     -39.492  49.374 -52.633  1.00  0.00     0.002 A 
HETATM   26  C   UNL     1     -39.716  49.884 -53.910  1.00  0.00     0.001 A 
HETATM   27  H   UNL     1     -39.869  52.472 -49.801  1.00  0.00     0.165 HD
HETATM   28  C   UNL     1     -40.282  53.746 -51.444  1.00  0.00     0.096 A 
ENDBRANCH  18  19
ENDBRANCH  17  18
ENDBRANCH   6  17
BRANCH   4  29
HETATM   29  C   UNL     1     -41.067  58.799 -51.369  1.00  0.00     0.031 C 
HETATM   30  C   UNL     1     -41.117  57.420 -50.692  1.00  0.00     0.025 C 
HETATM   31  C   UNL     1     -39.596  59.124 -51.690  1.00  0.00     0.025 C 
HETATM   32  C   UNL     1     -41.611  59.877 -50.420  1.00  0.00     0.025 C 
ENDBRANCH   4  29
TORSDOF 5
ENDMDL
MODEL 7
REMARK VINA RESULT:      -8.8      2.401      7.393
REMARK  5 active torsions:
REMARK  status: ('A' for Active; 'I' for Inactive)
REMARK    1  A    between atoms: C_4  and  N_5 
REMARK       I    between atoms: C_6  and  N_7 
REMARK       I    between atoms: C_6  and  N_14 
REMARK       I    between atoms: N_7  and  C_8 
REMARK    2  A    between atoms: C_8  and  C_9 
REMARK    3  A    between atoms: N_14  and  C_15 
REMARK    4  A    between atoms: C_15  and  C_16 
REMARK    5  A    between atoms: C_16  and  C_17 
ROOT
HETATM    1  N   UNL     1     -42.513  55.827 -56.462  1.00  0.00     0.130 NA
HETATM    2  C   UNL     1     -43.264  56.066 -55.442  1.00  0.00     0.718 C 
HETATM    3  N   UNL     1     -42.873  55.581 -54.206  1.00  0.00    -0.157 N 
HETATM    4  C   UNL     1     -41.725  54.864 -53.864  1.00  0.00     0.243 C 
HETATM    5  O   UNL     1     -40.783  54.627 -54.615  1.00  0.00    -0.272 OA
HETATM    6  N   UNL     1     -44.452  56.757 -55.473  1.00  0.00    -0.223 N 
HETATM    7  H   UNL     1     -43.542  55.728 -53.474  1.00  0.00     0.187 HD
HETATM    8  H   UNL     1     -44.536  57.261 -56.360  1.00  0.00     0.177 HD
ENDROOT
BRANCH   1   9
HETATM    9  C   UNL     1     -42.838  56.256 -57.743  1.00  0.00     0.764 A 
HETATM   10  N   UNL     1     -42.388  57.456 -58.166  1.00  0.00    -0.065 NA
HETATM   11  C   UNL     1     -42.703  57.806 -59.429  1.00  0.00     0.051 A 
HETATM   12  C   UNL     1     -42.197  59.126 -59.924  1.00  0.00     0.071 C 
HETATM   13  C   UNL     1     -43.461  56.999 -60.254  1.00  0.00     0.054 A 
HETATM   14  C   UNL     1     -43.884  55.795 -59.726  1.00  0.00     0.051 A 
HETATM   15  N   UNL     1     -43.578  55.410 -58.473  1.00  0.00    -0.065 NA
HETATM   16  C   UNL     1     -44.716  54.856 -60.546  1.00  0.00     0.071 C 
ENDBRANCH   1   9
BRANCH   6  17
HETATM   17  C   UNL     1     -45.117  57.416 -54.364  1.00  0.00     0.142 C 
BRANCH  17  18
HETATM   18  C   UNL     1     -44.568  58.836 -54.186  1.00  0.00     0.061 C 
BRANCH  18  19
HETATM   19  C   UNL     1     -43.895  59.024 -52.865  1.00  0.00    -0.029 A 
HETATM   20  C   UNL     1     -42.485  59.004 -52.617  1.00  0.00    -0.002 A 
HETATM   21  C   UNL     1     -42.296  59.211 -51.251  1.00  0.00     0.042 A 
HETATM   22  C   UNL     1     -41.348  58.823 -53.432  1.00  0.00     0.014 A 
HETATM   23  C   UNL     1     -41.029  59.246 -50.657  1.00  0.00     0.030 A 
HETATM   24  N   UNL     1     -43.543  59.354 -50.687  1.00  0.00    -0.365 N 
HETATM   25  C   UNL     1     -39.920  59.062 -51.486  1.00  0.00     0.002 A 
HETATM   26  C   UNL     1     -40.073  58.854 -52.855  1.00  0.00     0.001 A 
HETATM   27  H   UNL     1     -43.712  59.510 -49.704  1.00  0.00     0.165 HD
HETATM   28  C   UNL     1     -44.512  59.246 -51.648  1.00  0.00     0.096 A 
ENDBRANCH  18  19
ENDBRANCH  17  18
ENDBRANCH   6  17
BRANCH   4  29
HETATM   29  C   UNL     1     -41.688  54.432 -52.378  1.00  0.00     0.031 C 
HETATM   30  C   UNL     1     -41.217  55.590 -51.485  1.00  0.00     0.025 C 
HETATM   31  C   UNL     1     -43.104  54.022 -51.930  1.00  0.00     0.025 C 
HETATM   32  C   UNL     1     -40.755  53.223 -52.217  1.00  0.00     0.025 C 
ENDBRANCH   4  29
TORSDOF 5
ENDMDL
MODEL 8
REMARK VINA RESULT:      -8.1      2.509      6.418
REMARK  5 active torsions:
REMARK  status: ('A' for Active; 'I' for Inactive)
REMARK    1  A    between atoms: C_4  and  N_5 
REMARK       I    between atoms: C_6  and  N_7 
REMARK       I    between atoms: C_6  and  N_14 
REMARK       I    between atoms: N_7  and  C_8 
REMARK    2  A    between atoms: C_8  and  C_9 
REMARK    3  A    between atoms: N_14  and  C_15 
REMARK    4  A    between atoms: C_15  and  C_16 
REMARK    5  A    between atoms: C_16  and  C_17 
ROOT
HETATM    1  N   UNL     1     -42.029  56.238 -51.826  1.00  0.00     0.130 NA
HETATM    2  C   UNL     1     -42.935  56.106 -52.735  1.00  0.00     0.718 C 
HETATM    3  N   UNL     1     -43.568  57.242 -53.206  1.00  0.00    -0.157 N 
HETATM    4  C   UNL     1     -43.354  58.577 -52.860  1.00  0.00     0.243 C 
HETATM    5  O   UNL     1     -42.459  58.989 -52.128  1.00  0.00    -0.272 OA
HETATM    6  N   UNL     1     -43.350  54.912 -53.275  1.00  0.00    -0.223 N 
HETATM    7  H   UNL     1     -44.318  57.061 -53.846  1.00  0.00     0.187 HD
HETATM    8  H   UNL     1     -42.681  54.174 -53.041  1.00  0.00     0.177 HD
ENDROOT
BRANCH   1   9
HETATM    9  C   UNL     1     -41.357  55.151 -51.280  1.00  0.00     0.764 A 
HETATM   10  N   UNL     1     -41.199  55.084 -49.941  1.00  0.00    -0.065 NA
HETATM   11  C   UNL     1     -40.571  53.990 -49.465  1.00  0.00     0.051 A 
HETATM   12  C   UNL     1     -40.402  53.888 -47.979  1.00  0.00     0.071 C 
HETATM   13  C   UNL     1     -40.094  52.991 -50.289  1.00  0.00     0.054 A 
HETATM   14  C   UNL     1     -40.295  53.157 -51.645  1.00  0.00     0.051 A 
HETATM   15  N   UNL     1     -40.928  54.231 -52.154  1.00  0.00    -0.065 NA
HETATM   16  C   UNL     1     -39.807  52.126 -52.616  1.00  0.00     0.071 C 
ENDBRANCH   1   9
BRANCH   6  17
HETATM   17  C   UNL     1     -44.020  54.707 -54.546  1.00  0.00     0.142 C 
BRANCH  17  18
HETATM   18  C   UNL     1     -42.995  54.400 -55.643  1.00  0.00     0.061 C 
BRANCH  18  19
HETATM   19  C   UNL     1     -42.828  55.537 -56.600  1.00  0.00    -0.029 A 
HETATM   20  C   UNL     1     -43.299  55.588 -57.951  1.00  0.00    -0.002 A 
HETATM   21  C   UNL     1     -42.921  56.822 -58.480  1.00  0.00     0.042 A 
HETATM   22  C   UNL     1     -44.011  54.692 -58.777  1.00  0.00     0.014 A 
HETATM   23  C   UNL     1     -43.218  57.207 -59.793  1.00  0.00     0.030 A 
HETATM   24  N   UNL     1     -42.248  57.497 -57.490  1.00  0.00    -0.365 N 
HETATM   25  C   UNL     1     -43.921  56.300 -60.591  1.00  0.00     0.002 A 
HETATM   26  C   UNL     1     -44.314  55.060 -60.093  1.00  0.00     0.001 A 
HETATM   27  H   UNL     1     -41.852  58.421 -57.594  1.00  0.00     0.165 HD
HETATM   28  C   UNL     1     -42.188  56.736 -56.353  1.00  0.00     0.096 A 
ENDBRANCH  18  19
ENDBRANCH  17  18
ENDBRANCH   6  17
BRANCH   4  29
HETATM   29  C   UNL     1     -44.327  59.559 -53.559  1.00  0.00     0.031 C 
HETATM   30  C   UNL     1     -45.524  59.878 -52.650  1.00  0.00     0.025 C 
HETATM   31  C   UNL     1     -43.591  60.876 -53.867  1.00  0.00     0.025 C 
HETATM   32  C   UNL     1     -44.812  58.947 -54.882  1.00  0.00     0.025 C 
ENDBRANCH   4  29
TORSDOF 5
ENDMDL
MODEL 9
REMARK VINA RESULT:      -8.0      1.668      2.126
REMARK  5 active torsions:
REMARK  status: ('A' for Active; 'I' for Inactive)
REMARK    1  A    between atoms: C_4  and  N_5 
REMARK       I    between atoms: C_6  and  N_7 
REMARK       I    between atoms: C_6  and  N_14 
REMARK       I    between atoms: N_7  and  C_8 
REMARK    2  A    between atoms: C_8  and  C_9 
REMARK    3  A    between atoms: N_14  and  C_15 
REMARK    4  A    between atoms: C_15  and  C_16 
REMARK    5  A    between atoms: C_16  and  C_17 
ROOT
HETATM    1  N   UNL     1     -44.089  58.814 -54.912  1.00  0.00     0.130 NA
HETATM    2  C   UNL     1     -43.874  57.548 -55.032  1.00  0.00     0.718 C 
HETATM    3  N   UNL     1     -43.766  57.014 -56.304  1.00  0.00    -0.157 N 
HETATM    4  C   UNL     1     -43.826  57.663 -57.539  1.00  0.00     0.243 C 
HETATM    5  O   UNL     1     -43.883  58.877 -57.705  1.00  0.00    -0.272 OA
HETATM    6  N   UNL     1     -43.759  56.659 -53.991  1.00  0.00    -0.223 N 
HETATM    7  H   UNL     1     -43.685  56.015 -56.328  1.00  0.00     0.187 HD
HETATM    8  H   UNL     1     -43.623  57.168 -53.113  1.00  0.00     0.177 HD
ENDROOT
BRANCH   1   9
HETATM    9  C   UNL     1     -44.233  59.431 -53.675  1.00  0.00     0.764 A 
HETATM   10  N   UNL     1     -43.173  59.482 -52.841  1.00  0.00    -0.065 NA
HETATM   11  C   UNL     1     -43.360  60.123 -51.671  1.00  0.00     0.051 A 
HETATM   12  C   UNL     1     -42.189  60.207 -50.739  1.00  0.00     0.071 C 
HETATM   13  C   UNL     1     -44.569  60.689 -51.320  1.00  0.00     0.054 A 
HETATM   14  C   UNL     1     -45.596  60.574 -52.236  1.00  0.00     0.051 A 
HETATM   15  N   UNL     1     -45.441  59.950 -53.419  1.00  0.00    -0.065 NA
HETATM   16  C   UNL     1     -46.946  61.153 -51.939  1.00  0.00     0.071 C 
ENDBRANCH   1   9
BRANCH   6  17
HETATM   17  C   UNL     1     -43.119  55.356 -54.011  1.00  0.00     0.142 C 
BRANCH  17  18
HETATM   18  C   UNL     1     -41.601  55.509 -53.861  1.00  0.00     0.061 C 
BRANCH  18  19
HETATM   19  C   UNL     1     -41.022  54.517 -52.904  1.00  0.00    -0.029 A 
HETATM   20  C   UNL     1     -40.587  53.189 -53.215  1.00  0.00    -0.002 A 
HETATM   21  C   UNL     1     -40.125  52.612 -52.032  1.00  0.00     0.042 A 
HETATM   22  C   UNL     1     -40.547  52.420 -54.397  1.00  0.00     0.014 A 
HETATM   23  C   UNL     1     -39.627  51.305 -51.969  1.00  0.00     0.030 A 
HETATM   24  N   UNL     1     -40.272  53.552 -51.039  1.00  0.00    -0.365 N 
HETATM   25  C   UNL     1     -39.602  50.564 -53.154  1.00  0.00     0.002 A 
HETATM   26  C   UNL     1     -40.054  51.111 -54.353  1.00  0.00     0.001 A 
HETATM   27  H   UNL     1     -40.022  53.406 -50.071  1.00  0.00     0.165 HD
HETATM   28  C   UNL     1     -40.808  54.703 -51.552  1.00  0.00     0.096 A 
ENDBRANCH  18  19
ENDBRANCH  17  18
ENDBRANCH   6  17
BRANCH   4  29
HETATM   29  C   UNL     1     -43.738  56.697 -58.747  1.00  0.00     0.031 C 
HETATM   30  C   UNL     1     -42.691  57.185 -59.760  1.00  0.00     0.025 C 
HETATM   31  C   UNL     1     -43.317  55.300 -58.254  1.00  0.00     0.025 C 
HETATM   32  C   UNL     1     -45.115  56.585 -59.417  1.00  0.00     0.025 C 
ENDBRANCH   4  29
TORSDOF 5
ENDMDL
MODEL 10
REMARK VINA RESULT:      -7.9      2.401      6.779
REMARK  5 active torsions:
REMARK  status: ('A' for Active; 'I' for Inactive)
REMARK    1  A    between atoms: C_4  and  N_5 
REMARK       I    between atoms: C_6  and  N_7 
REMARK       I    between atoms: C_6  and  N_14 
REMARK       I    between atoms: N_7  and  C_8 
REMARK    2  A    between atoms: C_8  and  C_9 
REMARK    3  A    between atoms: N_14  and  C_15 
REMARK    4  A    between atoms: C_15  and  C_16 
REMARK    5  A    between atoms: C_16  and  C_17 
ROOT
HETATM    1  N   UNL     1     -41.788  57.230 -50.951  1.00  0.00     0.130 NA
HETATM    2  C   UNL     1     -42.751  57.535 -51.752  1.00  0.00     0.718 C 
HETATM    3  N   UNL     1     -43.150  58.858 -51.832  1.00  0.00    -0.157 N 
HETATM    4  C   UNL     1     -42.632  59.975 -51.174  1.00  0.00     0.243 C 
HETATM    5  O   UNL     1     -41.630  59.984 -50.466  1.00  0.00    -0.272 OA
HETATM    6  N   UNL     1     -43.445  56.645 -52.537  1.00  0.00    -0.223 N 
HETATM    7  H   UNL     1     -43.956  59.012 -52.408  1.00  0.00     0.187 HD
HETATM    8  H   UNL     1     -42.938  55.756 -52.583  1.00  0.00     0.177 HD
ENDROOT
BRANCH   1   9
HETATM    9  C   UNL     1     -41.337  55.926 -50.790  1.00  0.00     0.764 A 
HETATM   10  N   UNL     1     -41.134  55.164 -51.886  1.00  0.00    -0.065 NA
HETATM   11  C   UNL     1     -40.662  53.919 -51.673  1.00  0.00     0.051 A 
HETATM   12  C   UNL     1     -40.412  53.063 -52.877  1.00  0.00     0.071 C 
HETATM   13  C   UNL     1     -40.412  53.427 -50.407  1.00  0.00     0.054 A 
HETATM   14  C   UNL     1     -40.663  54.280 -49.350  1.00  0.00     0.051 A 
HETATM   15  N   UNL     1     -41.123  55.533 -49.528  1.00  0.00    -0.065 NA
HETATM   16  C   UNL     1     -40.425  53.831 -47.940  1.00  0.00     0.071 C 
ENDBRANCH   1   9
BRANCH   6  17
HETATM   17  C   UNL     1     -44.214  56.938 -53.732  1.00  0.00     0.142 C 
BRANCH  17  18
HETATM   18  C   UNL     1     -43.604  56.227 -54.944  1.00  0.00     0.061 C 
BRANCH  18  19
HETATM   19  C   UNL     1     -43.047  57.186 -55.946  1.00  0.00    -0.029 A 
HETATM   20  C   UNL     1     -42.859  56.943 -57.345  1.00  0.00    -0.002 A 
HETATM   21  C   UNL     1     -42.308  58.097 -57.900  1.00  0.00     0.042 A 
HETATM   22  C   UNL     1     -43.104  55.840 -58.191  1.00  0.00     0.014 A 
HETATM   23  C   UNL     1     -41.988  58.207 -59.259  1.00  0.00     0.030 A 
HETATM   24  N   UNL     1     -42.167  59.009 -56.881  1.00  0.00    -0.365 N 
HETATM   25  C   UNL     1     -42.238  57.100 -60.075  1.00  0.00     0.002 A 
HETATM   26  C   UNL     1     -42.789  55.932 -59.551  1.00  0.00     0.001 A 
HETATM   27  H   UNL     1     -41.784  59.938 -56.992  1.00  0.00     0.165 HD
HETATM   28  C   UNL     1     -42.610  58.473 -55.701  1.00  0.00     0.096 A 
ENDBRANCH  18  19
ENDBRANCH  17  18
ENDBRANCH   6  17
BRANCH   4  29
HETATM   29  C   UNL     1     -43.409  61.281 -51.474  1.00  0.00     0.031 C 
HETATM   30  C   UNL     1     -43.206  61.713 -52.934  1.00  0.00     0.025 C 
HETATM   31  C   UNL     1     -44.913  61.044 -51.245  1.00  0.00     0.025 C 
HETATM   32  C   UNL     1     -42.938  62.390 -50.521  1.00  0.00     0.025 C 
ENDBRANCH   4  29
TORSDOF 5
ENDMDL
