MODEL 1
REMARK VINA RESULT:      -7.9      0.000      0.000
REMARK  10 active torsions:
REMARK  status: ('A' for Active; 'I' for Inactive)
REMARK    1  A    between atoms: C_3  and  N_4 
REMARK    2  A    between atoms: C_5  and  S_6 
REMARK    3  A    between atoms: S_6  and  C_7 
REMARK    4  A    between atoms: C_7  and  C_8 
REMARK       I    between atoms: C_8  and  N_9 
REMARK    5  A    between atoms: N_9  and  C_10 
REMARK    6  A    between atoms: C_10  and  C_11 
REMARK    7  A    between atoms: C_11  and  C_12 
REMARK    8  A    between atoms: C_15  and  S_16 
REMARK    9  A    between atoms: S_16  and  N_17 
REMARK   10  A    between atoms: C_26  and  N_27 
ROOT
HETATM    1  N   UNL     1     -40.798  53.997 -52.435  1.00  0.00    -0.275 N 
HETATM    2  C   UNL     1     -40.609  53.989 -53.785  1.00  0.00     0.177 A 
HETATM    3  N   UNL     1     -40.057  52.972 -54.484  1.00  0.00    -0.204 NA
HETATM    4  C   UNL     1     -39.826  51.908 -53.716  1.00  0.00     0.162 A 
HETATM    5  C   UNL     1     -40.040  51.805 -52.357  1.00  0.00     0.081 A 
HETATM    6  C   UNL     1     -40.521  52.919 -51.649  1.00  0.00     0.124 A 
HETATM    7  N   UNL     1     -39.338  50.704 -54.134  1.00  0.00    -0.260 N 
HETATM    8  H   UNL     1     -39.071  50.430 -55.074  1.00  0.00     0.191 HD
HETATM    9  N   UNL     1     -39.224  49.809 -53.142  1.00  0.00    -0.177 NA
HETATM   10  C   UNL     1     -39.657  50.462 -52.056  1.00  0.00     0.068 A 
HETATM   11  C   UNL     1     -39.689  49.753 -50.750  1.00  0.00     0.073 C 
ENDROOT
BRANCH   2  12
HETATM   12  S   UNL     1     -41.075  55.405 -54.800  1.00  0.00    -0.082 SA
BRANCH  12  13
HETATM   13  C   UNL     1     -42.679  54.829 -55.444  1.00  0.00     0.185 C 
BRANCH  13  14
HETATM   14  C   UNL     1     -43.207  55.690 -56.589  1.00  0.00     0.227 C 
HETATM   15  N   UNL     1     -43.999  56.760 -56.249  1.00  0.00    -0.360 N 
HETATM   16  H   UNL     1     -44.274  57.340 -57.037  1.00  0.00     0.162 HD
HETATM   17  O   UNL     1     -42.945  55.475 -57.773  1.00  0.00    -0.273 OA
BRANCH  15  18
HETATM   18  C   UNL     1     -44.166  57.280 -54.901  1.00  0.00     0.127 C 
BRANCH  18  19
HETATM   19  C   UNL     1     -43.409  58.582 -54.640  1.00  0.00     0.058 C 
BRANCH  19  20
HETATM   20  C   UNL     1     -43.959  59.248 -53.399  1.00  0.00    -0.057 A 
HETATM   21  C   UNL     1     -43.225  60.251 -52.749  1.00  0.00     0.009 A 
HETATM   22  C   UNL     1     -43.675  60.785 -51.539  1.00  0.00     0.025 A 
HETATM   23  C   UNL     1     -44.868  60.319 -50.980  1.00  0.00     0.074 A 
HETATM   24  C   UNL     1     -45.615  59.329 -51.622  1.00  0.00     0.025 A 
HETATM   25  C   UNL     1     -45.162  58.799 -52.831  1.00  0.00     0.009 A 
BRANCH  23  26
HETATM   26  S   UNL     1     -45.376  60.910 -49.390  1.00  0.00     0.239 S 
HETATM   27  O   UNL     1     -44.208  61.333 -48.653  1.00  0.00    -0.206 OA
HETATM   28  O   UNL     1     -46.533  61.758 -49.559  1.00  0.00    -0.206 OA
BRANCH  26  29
HETATM   29  N   UNL     1     -45.920  59.509 -48.648  1.00  0.00    -0.225 NA
HETATM   30  H   UNL     1     -45.185  58.801 -48.657  1.00  0.00     0.136 HD
HETATM   31  H   UNL     1     -46.266  59.722 -47.711  1.00  0.00     0.136 HD
ENDBRANCH  26  29
ENDBRANCH  23  26
ENDBRANCH  19  20
ENDBRANCH  18  19
ENDBRANCH  15  18
ENDBRANCH  13  14
ENDBRANCH  12  13
ENDBRANCH   2  12
BRANCH   1  32
HETATM   32  C   UNL     1     -41.327  55.177 -51.803  1.00  0.00     0.051 A 
HETATM   33  C   UNL     1     -42.702  55.266 -51.519  1.00  0.00    -0.035 A 
HETATM   34  C   UNL     1     -43.678  54.148 -51.755  1.00  0.00     0.050 C 
HETATM   35  C   UNL     1     -43.164  56.452 -50.932  1.00  0.00     0.011 A 
HETATM   36  C   UNL     1     -42.289  57.516 -50.688  1.00  0.00     0.024 A 
HETATM   37  C   UNL     1     -40.937  57.404 -51.011  1.00  0.00     0.036 A 
HETATM   38  C   UNL     1     -40.439  56.231 -51.571  1.00  0.00     0.054 A 
HETATM   39 CL   UNL     1     -39.878  58.726 -50.731  1.00  0.00    -0.084 Cl
ENDBRANCH   1  32
BRANCH   6  40
HETATM   40  N   UNL     1     -40.691  52.919 -50.270  1.00  0.00    -0.384 N 
HETATM   41  H   UNL     1     -40.345  52.131 -49.733  1.00  0.00     0.157 HD
HETATM   42  H   UNL     1     -40.810  53.771 -49.738  1.00  0.00     0.157 HD
ENDBRANCH   6  40
TORSDOF 10
ENDMDL
MODEL 2
REMARK VINA RESULT:      -7.6      3.452      6.421
REMARK  10 active torsions:
REMARK  status: ('A' for Active; 'I' for Inactive)
REMARK    1  A    between atoms: C_3  and  N_4 
REMARK    2  A    between atoms: C_5  and  S_6 
REMARK    3  A    between atoms: S_6  and  C_7 
REMARK    4  A    between atoms: C_7  and  C_8 
REMARK       I    between atoms: C_8  and  N_9 
REMARK    5  A    between atoms: N_9  and  C_10 
REMARK    6  A    between atoms: C_10  and  C_11 
REMARK    7  A    between atoms: C_11  and  C_12 
REMARK    8  A    between atoms: C_15  and  S_16 
REMARK    9  A    between atoms: S_16  and  N_17 
REMARK   10  A    between atoms: C_26  and  N_27 
ROOT
HETATM    1  N   UNL     1     -42.202  56.495 -52.962  1.00  0.00    -0.275 N 
HETATM    2  C   UNL     1     -42.587  56.171 -54.229  1.00  0.00     0.177 A 
HETATM    3  N   UNL     1     -42.224  55.046 -54.885  1.00  0.00    -0.204 NA
HETATM    4  C   UNL     1     -41.539  54.213 -54.102  1.00  0.00     0.162 A 
HETATM    5  C   UNL     1     -41.156  54.430 -52.796  1.00  0.00     0.081 A 
HETATM    6  C   UNL     1     -41.466  55.655 -52.181  1.00  0.00     0.124 A 
HETATM    7  N   UNL     1     -41.090  52.970 -54.447  1.00  0.00    -0.260 N 
HETATM    8  H   UNL     1     -41.196  52.492 -55.335  1.00  0.00     0.191 HD
HETATM    9  N   UNL     1     -40.443  52.350 -53.450  1.00  0.00    -0.177 NA
HETATM   10  C   UNL     1     -40.484  53.222 -52.435  1.00  0.00     0.068 A 
HETATM   11  C   UNL     1     -39.867  52.849 -51.135  1.00  0.00     0.073 C 
ENDROOT
BRANCH   2  12
HETATM   12  S   UNL     1     -43.639  57.273 -55.194  1.00  0.00    -0.082 SA
BRANCH  12  13
HETATM   13  C   UNL     1     -42.373  58.299 -56.009  1.00  0.00     0.185 C 
BRANCH  13  14
HETATM   14  C   UNL     1     -42.691  59.791 -55.958  1.00  0.00     0.227 C 
HETATM   15  N   UNL     1     -42.075  60.592 -56.889  1.00  0.00    -0.360 N 
HETATM   16  H   UNL     1     -42.364  61.565 -56.858  1.00  0.00     0.162 HD
HETATM   17  O   UNL     1     -43.469  60.290 -55.143  1.00  0.00    -0.273 OA
BRANCH  15  18
HETATM   18  C   UNL     1     -41.355  60.110 -58.058  1.00  0.00     0.127 C 
BRANCH  18  19
HETATM   19  C   UNL     1     -42.134  60.249 -59.367  1.00  0.00     0.058 C 
BRANCH  19  20
HETATM   20  C   UNL     1     -42.965  59.007 -59.596  1.00  0.00    -0.057 A 
HETATM   21  C   UNL     1     -42.344  57.782 -59.883  1.00  0.00     0.009 A 
HETATM   22  C   UNL     1     -43.110  56.661 -60.210  1.00  0.00     0.025 A 
HETATM   23  C   UNL     1     -44.503  56.762 -60.243  1.00  0.00     0.074 A 
HETATM   24  C   UNL     1     -45.135  57.972 -59.949  1.00  0.00     0.025 A 
HETATM   25  C   UNL     1     -44.366  59.090 -59.622  1.00  0.00     0.009 A 
BRANCH  23  26
HETATM   26  S   UNL     1     -45.466  55.374 -60.774  1.00  0.00     0.239 S 
HETATM   27  O   UNL     1     -46.867  55.709 -60.671  1.00  0.00    -0.206 OA
HETATM   28  O   UNL     1     -44.885  54.842 -61.984  1.00  0.00    -0.206 OA
BRANCH  26  29
HETATM   29  N   UNL     1     -45.161  54.249 -59.569  1.00  0.00    -0.225 NA
HETATM   30  H   UNL     1     -45.485  53.326 -59.863  1.00  0.00     0.136 HD
HETATM   31  H   UNL     1     -44.173  54.269 -59.314  1.00  0.00     0.136 HD
ENDBRANCH  26  29
ENDBRANCH  23  26
ENDBRANCH  19  20
ENDBRANCH  18  19
ENDBRANCH  15  18
ENDBRANCH  13  14
ENDBRANCH  12  13
ENDBRANCH   2  12
BRANCH   1  32
HETATM   32  C   UNL     1     -42.595  57.763 -52.407  1.00  0.00     0.051 A 
HETATM   33  C   UNL     1     -41.694  58.844 -52.417  1.00  0.00    -0.035 A 
HETATM   34  C   UNL     1     -40.339  58.796 -53.064  1.00  0.00     0.050 C 
HETATM   35  C   UNL     1     -42.122  60.045 -51.834  1.00  0.00     0.011 A 
HETATM   36  C   UNL     1     -43.379  60.137 -51.227  1.00  0.00     0.024 A 
HETATM   37  C   UNL     1     -44.234  59.035 -51.209  1.00  0.00     0.036 A 
HETATM   38  C   UNL     1     -43.852  57.835 -51.801  1.00  0.00     0.054 A 
HETATM   39 CL   UNL     1     -45.763  59.152 -50.437  1.00  0.00    -0.084 Cl
ENDBRANCH   1  32
BRANCH   6  40
HETATM   40  N   UNL     1     -41.050  55.979 -50.896  1.00  0.00    -0.384 N 
HETATM   41  H   UNL     1     -40.424  55.348 -50.409  1.00  0.00     0.157 HD
HETATM   42  H   UNL     1     -41.037  56.932 -50.554  1.00  0.00     0.157 HD
ENDBRANCH   6  40
TORSDOF 10
ENDMDL
MODEL 3
REMARK VINA RESULT:      -7.6      3.357      8.327
REMARK  10 active torsions:
REMARK  status: ('A' for Active; 'I' for Inactive)
REMARK    1  A    between atoms: C_3  and  N_4 
REMARK    2  A    between atoms: C_5  and  S_6 
REMARK    3  A    between atoms: S_6  and  C_7 
REMARK    4  A    between atoms: C_7  and  C_8 
REMARK       I    between atoms: C_8  and  N_9 
REMARK    5  A    between atoms: N_9  and  C_10 
REMARK    6  A    between atoms: C_10  and  C_11 
REMARK    7  A    between atoms: C_11  and  C_12 
REMARK    8  A    between atoms: C_15  and  S_16 
REMARK    9  A    between atoms: S_16  and  N_17 
REMARK   10  A    between atoms: C_26  and  N_27 
ROOT
HETATM    1  N   UNL     1     -43.620  59.424 -52.572  1.00  0.00    -0.275 N 
HETATM    2  C   UNL     1     -43.685  59.375 -53.933  1.00  0.00     0.177 A 
HETATM    3  N   UNL     1     -44.662  59.933 -54.682  1.00  0.00    -0.204 NA
HETATM    4  C   UNL     1     -45.505  60.655 -53.943  1.00  0.00     0.162 A 
HETATM    5  C   UNL     1     -45.482  60.809 -52.573  1.00  0.00     0.081 A 
HETATM    6  C   UNL     1     -44.510  60.130 -51.819  1.00  0.00     0.124 A 
HETATM    7  N   UNL     1     -46.554  61.394 -54.409  1.00  0.00    -0.260 N 
HETATM    8  H   UNL     1     -46.861  61.506 -55.369  1.00  0.00     0.191 HD
HETATM    9  N   UNL     1     -47.220  62.032 -53.437  1.00  0.00    -0.177 NA
HETATM   10  C   UNL     1     -46.573  61.693 -52.315  1.00  0.00     0.068 A 
HETATM   11  C   UNL     1     -47.038  62.248 -51.016  1.00  0.00     0.073 C 
ENDROOT
BRANCH   2  12
HETATM   12  S   UNL     1     -42.433  58.504 -54.896  1.00  0.00    -0.082 SA
BRANCH  12  13
HETATM   13  C   UNL     1     -43.464  57.231 -55.692  1.00  0.00     0.185 C 
BRANCH  13  14
HETATM   14  C   UNL     1     -42.744  56.502 -56.824  1.00  0.00     0.227 C 
HETATM   15  N   UNL     1     -42.045  55.367 -56.488  1.00  0.00    -0.360 N 
HETATM   16  H   UNL     1     -41.636  54.882 -57.281  1.00  0.00     0.162 HD
HETATM   17  O   UNL     1     -42.775  56.876 -57.997  1.00  0.00    -0.273 OA
BRANCH  15  18
HETATM   18  C   UNL     1     -42.142  54.675 -55.213  1.00  0.00     0.127 C 
BRANCH  18  19
HETATM   19  C   UNL     1     -41.059  55.070 -54.208  1.00  0.00     0.058 C 
BRANCH  19  20
HETATM   20  C   UNL     1     -40.539  53.833 -53.512  1.00  0.00    -0.057 A 
HETATM   21  C   UNL     1     -40.134  52.717 -54.258  1.00  0.00     0.009 A 
HETATM   22  C   UNL     1     -39.764  51.534 -53.616  1.00  0.00     0.025 A 
HETATM   23  C   UNL     1     -39.791  51.467 -52.221  1.00  0.00     0.074 A 
HETATM   24  C   UNL     1     -40.182  52.574 -51.464  1.00  0.00     0.025 A 
HETATM   25  C   UNL     1     -40.550  53.755 -52.110  1.00  0.00     0.009 A 
BRANCH  23  26
HETATM   26  S   UNL     1     -39.437  49.931 -51.413  1.00  0.00     0.239 S 
HETATM   27  O   UNL     1     -38.059  49.935 -50.982  1.00  0.00    -0.206 OA
HETATM   28  O   UNL     1     -40.527  49.617 -50.518  1.00  0.00    -0.206 OA
BRANCH  26  29
HETATM   29  N   UNL     1     -39.533  48.834 -52.677  1.00  0.00    -0.225 NA
HETATM   30  H   UNL     1     -39.594  47.883 -52.310  1.00  0.00     0.136 HD
HETATM   31  H   UNL     1     -40.307  49.081 -53.296  1.00  0.00     0.136 HD
ENDBRANCH  26  29
ENDBRANCH  23  26
ENDBRANCH  19  20
ENDBRANCH  18  19
ENDBRANCH  15  18
ENDBRANCH  13  14
ENDBRANCH  12  13
ENDBRANCH   2  12
BRANCH   1  32
HETATM   32  C   UNL     1     -42.566  58.720 -51.890  1.00  0.00     0.051 A 
HETATM   33  C   UNL     1     -42.772  57.398 -51.452  1.00  0.00    -0.035 A 
HETATM   34  C   UNL     1     -44.022  56.612 -51.730  1.00  0.00     0.050 C 
HETATM   35  C   UNL     1     -41.721  56.775 -50.766  1.00  0.00     0.011 A 
HETATM   36  C   UNL     1     -40.537  57.467 -50.492  1.00  0.00     0.024 A 
HETATM   37  C   UNL     1     -40.380  58.787 -50.914  1.00  0.00     0.036 A 
HETATM   38  C   UNL     1     -41.392  59.428 -51.620  1.00  0.00     0.054 A 
HETATM   39 CL   UNL     1     -38.932  59.635 -50.548  1.00  0.00    -0.084 Cl
ENDBRANCH   1  32
BRANCH   6  40
HETATM   40  N   UNL     1     -44.467  60.173 -50.432  1.00  0.00    -0.384 N 
HETATM   41  H   UNL     1     -44.597  61.063 -49.964  1.00  0.00     0.157 HD
HETATM   42  H   UNL     1     -44.665  59.363 -49.857  1.00  0.00     0.157 HD
ENDBRANCH   6  40
TORSDOF 10
ENDMDL
MODEL 4
REMARK VINA RESULT:      -7.5      3.393      7.809
REMARK  10 active torsions:
REMARK  status: ('A' for Active; 'I' for Inactive)
REMARK    1  A    between atoms: C_3  and  N_4 
REMARK    2  A    between atoms: C_5  and  S_6 
REMARK    3  A    between atoms: S_6  and  C_7 
REMARK    4  A    between atoms: C_7  and  C_8 
REMARK       I    between atoms: C_8  and  N_9 
REMARK    5  A    between atoms: N_9  and  C_10 
REMARK    6  A    between atoms: C_10  and  C_11 
REMARK    7  A    between atoms: C_11  and  C_12 
REMARK    8  A    between atoms: C_15  and  S_16 
REMARK    9  A    between atoms: S_16  and  N_17 
REMARK   10  A    between atoms: C_26  and  N_27 
ROOT
HETATM    1  N   UNL     1     -43.693  60.107 -51.963  1.00  0.00    -0.275 N 
HETATM    2  C   UNL     1     -43.944  60.263 -53.295  1.00  0.00     0.177 A 
HETATM    3  N   UNL     1     -44.931  61.028 -53.813  1.00  0.00    -0.204 NA
HETATM    4  C   UNL     1     -45.567  61.724 -52.871  1.00  0.00     0.162 A 
HETATM    5  C   UNL     1     -45.343  61.675 -51.511  1.00  0.00     0.081 A 
HETATM    6  C   UNL     1     -44.376  60.792 -51.003  1.00  0.00     0.124 A 
HETATM    7  N   UNL     1     -46.564  62.634 -53.077  1.00  0.00    -0.260 N 
HETATM    8  H   UNL     1     -46.978  62.917 -53.959  1.00  0.00     0.191 HD
HETATM    9  N   UNL     1     -47.007  63.195 -51.944  1.00  0.00    -0.177 NA
HETATM   10  C   UNL     1     -46.266  62.628 -50.983  1.00  0.00     0.068 A 
HETATM   11  C   UNL     1     -46.479  63.038 -49.570  1.00  0.00     0.073 C 
ENDROOT
BRANCH   2  12
HETATM   12  S   UNL     1     -42.954  59.407 -54.536  1.00  0.00    -0.082 SA
BRANCH  12  13
HETATM   13  C   UNL     1     -44.020  57.967 -54.864  1.00  0.00     0.185 C 
BRANCH  13  14
HETATM   14  C   UNL     1     -44.060  57.578 -56.339  1.00  0.00     0.227 C 
HETATM   15  N   UNL     1     -43.138  56.652 -56.765  1.00  0.00    -0.360 N 
HETATM   16  H   UNL     1     -43.244  56.377 -57.737  1.00  0.00     0.162 HD
HETATM   17  O   UNL     1     -44.875  58.040 -57.139  1.00  0.00    -0.273 OA
BRANCH  15  18
HETATM   18  C   UNL     1     -42.308  55.838 -55.890  1.00  0.00     0.127 C 
BRANCH  18  19
HETATM   19  C   UNL     1     -42.990  54.561 -55.398  1.00  0.00     0.058 C 
BRANCH  19  20
HETATM   20  C   UNL     1     -42.388  54.143 -54.076  1.00  0.00    -0.057 A 
HETATM   21  C   UNL     1     -43.168  54.141 -52.910  1.00  0.00     0.009 A 
HETATM   22  C   UNL     1     -42.586  53.868 -51.671  1.00  0.00     0.025 A 
HETATM   23  C   UNL     1     -41.220  53.588 -51.596  1.00  0.00     0.074 A 
HETATM   24  C   UNL     1     -40.433  53.575 -52.749  1.00  0.00     0.025 A 
HETATM   25  C   UNL     1     -41.018  53.848 -53.986  1.00  0.00     0.009 A 
BRANCH  23  26
HETATM   26  S   UNL     1     -40.461  53.360 -50.012  1.00  0.00     0.239 S 
HETATM   27  O   UNL     1     -40.434  51.949 -49.704  1.00  0.00    -0.206 OA
HETATM   28  O   UNL     1     -39.281  54.190 -49.940  1.00  0.00    -0.206 OA
BRANCH  26  29
HETATM   29  N   UNL     1     -41.586  54.047 -48.976  1.00  0.00    -0.225 NA
HETATM   30  H   UNL     1     -42.342  54.472 -49.516  1.00  0.00     0.136 HD
HETATM   31  H   UNL     1     -41.910  53.353 -48.302  1.00  0.00     0.136 HD
ENDBRANCH  26  29
ENDBRANCH  23  26
ENDBRANCH  19  20
ENDBRANCH  18  19
ENDBRANCH  15  18
ENDBRANCH  13  14
ENDBRANCH  12  13
ENDBRANCH   2  12
BRANCH   1  32
HETATM   32  C   UNL     1     -42.659  59.200 -51.541  1.00  0.00     0.051 A 
HETATM   33  C   UNL     1     -42.980  57.867 -51.224  1.00  0.00    -0.035 A 
HETATM   34  C   UNL     1     -44.353  57.278 -51.382  1.00  0.00     0.050 C 
HETATM   35  C   UNL     1     -41.936  57.039 -50.788  1.00  0.00     0.011 A 
HETATM   36  C   UNL     1     -40.641  57.544 -50.634  1.00  0.00     0.024 A 
HETATM   37  C   UNL     1     -40.366  58.879 -50.928  1.00  0.00     0.036 A 
HETATM   38  C   UNL     1     -41.372  59.722 -51.388  1.00  0.00     0.054 A 
HETATM   39 CL   UNL     1     -38.778  59.493 -50.709  1.00  0.00    -0.084 Cl
ENDBRANCH   1  32
BRANCH   6  40
HETATM   40  N   UNL     1     -44.145  60.629 -49.643  1.00  0.00    -0.384 N 
HETATM   41  H   UNL     1     -43.577  61.314 -49.156  1.00  0.00     0.157 HD
HETATM   42  H   UNL     1     -44.766  60.097 -49.047  1.00  0.00     0.157 HD
ENDBRANCH   6  40
TORSDOF 10
ENDMDL
MODEL 5
REMARK VINA RESULT:      -7.4      3.518      6.341
REMARK  10 active torsions:
REMARK  status: ('A' for Active; 'I' for Inactive)
REMARK    1  A    between atoms: C_3  and  N_4 
REMARK    2  A    between atoms: C_5  and  S_6 
REMARK    3  A    between atoms: S_6  and  C_7 
REMARK    4  A    between atoms: C_7  and  C_8 
REMARK       I    between atoms: C_8  and  N_9 
REMARK    5  A    between atoms: N_9  and  C_10 
REMARK    6  A    between atoms: C_10  and  C_11 
REMARK    7  A    between atoms: C_11  and  C_12 
REMARK    8  A    between atoms: C_15  and  S_16 
REMARK    9  A    between atoms: S_16  and  N_17 
REMARK   10  A    between atoms: C_26  and  N_27 
ROOT
HETATM    1  N   UNL     1     -42.218  56.416 -54.914  1.00  0.00    -0.275 N 
HETATM    2  C   UNL     1     -41.687  57.659 -54.738  1.00  0.00     0.177 A 
HETATM    3  N   UNL     1     -41.692  58.642 -55.666  1.00  0.00    -0.204 NA
HETATM    4  C   UNL     1     -42.394  58.302 -56.747  1.00  0.00     0.162 A 
HETATM    5  C   UNL     1     -43.013  57.093 -56.986  1.00  0.00     0.081 A 
HETATM    6  C   UNL     1     -42.899  56.061 -56.039  1.00  0.00     0.124 A 
HETATM    7  N   UNL     1     -42.644  59.097 -57.828  1.00  0.00    -0.260 N 
HETATM    8  H   UNL     1     -42.338  60.052 -57.985  1.00  0.00     0.191 HD
HETATM    9  N   UNL     1     -43.394  58.496 -58.761  1.00  0.00    -0.177 NA
HETATM   10  C   UNL     1     -43.635  57.278 -58.258  1.00  0.00     0.068 A 
HETATM   11  C   UNL     1     -44.473  56.328 -59.035  1.00  0.00     0.073 C 
ENDROOT
BRANCH   2  12
HETATM   12  S   UNL     1     -40.873  58.115 -53.194  1.00  0.00    -0.082 SA
BRANCH  12  13
HETATM   13  C   UNL     1     -41.862  59.571 -52.723  1.00  0.00     0.185 C 
BRANCH  13  14
HETATM   14  C   UNL     1     -41.974  59.752 -51.212  1.00  0.00     0.227 C 
HETATM   15  N   UNL     1     -43.145  59.341 -50.621  1.00  0.00    -0.360 N 
HETATM   16  H   UNL     1     -43.150  59.422 -49.608  1.00  0.00     0.162 HD
HETATM   17  O   UNL     1     -41.074  60.228 -50.519  1.00  0.00    -0.273 OA
BRANCH  15  18
HETATM   18  C   UNL     1     -44.166  58.530 -51.265  1.00  0.00     0.127 C 
BRANCH  18  19
HETATM   19  C   UNL     1     -45.495  59.256 -51.473  1.00  0.00     0.058 C 
BRANCH  19  20
HETATM   20  C   UNL     1     -45.554  59.814 -52.876  1.00  0.00    -0.057 A 
HETATM   21  C   UNL     1     -45.263  58.995 -53.978  1.00  0.00     0.009 A 
HETATM   22  C   UNL     1     -45.202  59.536 -55.264  1.00  0.00     0.025 A 
HETATM   23  C   UNL     1     -45.439  60.899 -55.452  1.00  0.00     0.074 A 
HETATM   24  C   UNL     1     -45.741  61.725 -54.367  1.00  0.00     0.025 A 
HETATM   25  C   UNL     1     -45.802  61.181 -53.083  1.00  0.00     0.009 A 
BRANCH  23  26
HETATM   26  S   UNL     1     -45.244  61.605 -57.065  1.00  0.00     0.239 S 
HETATM   27  O   UNL     1     -46.244  62.631 -57.251  1.00  0.00    -0.206 OA
HETATM   28  O   UNL     1     -43.839  61.843 -57.299  1.00  0.00    -0.206 OA
BRANCH  26  29
HETATM   29  N   UNL     1     -45.683  60.333 -58.065  1.00  0.00    -0.225 NA
HETATM   30  H   UNL     1     -46.690  60.352 -58.231  1.00  0.00     0.136 HD
HETATM   31  H   UNL     1     -45.130  60.357 -58.923  1.00  0.00     0.136 HD
ENDBRANCH  26  29
ENDBRANCH  23  26
ENDBRANCH  19  20
ENDBRANCH  18  19
ENDBRANCH  15  18
ENDBRANCH  13  14
ENDBRANCH  12  13
ENDBRANCH   2  12
BRANCH   1  32
HETATM   32  C   UNL     1     -42.076  55.434 -53.872  1.00  0.00     0.051 A 
HETATM   33  C   UNL     1     -41.066  54.457 -53.959  1.00  0.00    -0.035 A 
HETATM   34  C   UNL     1     -40.037  54.415 -55.053  1.00  0.00     0.050 C 
HETATM   35  C   UNL     1     -40.997  53.507 -52.931  1.00  0.00     0.011 A 
HETATM   36  C   UNL     1     -41.930  53.513 -51.889  1.00  0.00     0.024 A 
HETATM   37  C   UNL     1     -42.936  54.478 -51.851  1.00  0.00     0.036 A 
HETATM   38  C   UNL     1     -43.020  55.451 -52.841  1.00  0.00     0.054 A 
HETATM   39 CL   UNL     1     -44.092  54.458 -50.582  1.00  0.00    -0.084 Cl
ENDBRANCH   1  32
BRANCH   6  40
HETATM   40  N   UNL     1     -43.428  54.793 -56.241  1.00  0.00    -0.384 N 
HETATM   41  H   UNL     1     -44.163  54.671 -56.929  1.00  0.00     0.157 HD
HETATM   42  H   UNL     1     -42.915  53.949 -56.020  1.00  0.00     0.157 HD
ENDBRANCH   6  40
TORSDOF 10
ENDMDL
MODEL 6
REMARK VINA RESULT:      -7.4      3.615      7.052
REMARK  10 active torsions:
REMARK  status: ('A' for Active; 'I' for Inactive)
REMARK    1  A    between atoms: C_3  and  N_4 
REMARK    2  A    between atoms: C_5  and  S_6 
REMARK    3  A    between atoms: S_6  and  C_7 
REMARK    4  A    between atoms: C_7  and  C_8 
REMARK       I    between atoms: C_8  and  N_9 
REMARK    5  A    between atoms: N_9  and  C_10 
REMARK    6  A    between atoms: C_10  and  C_11 
REMARK    7  A    between atoms: C_11  and  C_12 
REMARK    8  A    between atoms: C_15  and  S_16 
REMARK    9  A    between atoms: S_16  and  N_17 
REMARK   10  A    between atoms: C_26  and  N_27 
ROOT
HETATM    1  N   UNL     1     -42.305  55.927 -55.064  1.00  0.00    -0.275 N 
HETATM    2  C   UNL     1     -41.836  57.207 -55.058  1.00  0.00     0.177 A 
HETATM    3  N   UNL     1     -41.851  58.043 -56.120  1.00  0.00    -0.204 NA
HETATM    4  C   UNL     1     -42.497  57.516 -57.159  1.00  0.00     0.162 A 
HETATM    5  C   UNL     1     -43.055  56.257 -57.236  1.00  0.00     0.081 A 
HETATM    6  C   UNL     1     -42.930  55.380 -56.145  1.00  0.00     0.124 A 
HETATM    7  N   UNL     1     -42.742  58.132 -58.353  1.00  0.00    -0.260 N 
HETATM    8  H   UNL     1     -42.473  59.067 -58.639  1.00  0.00     0.191 HD
HETATM    9  N   UNL     1     -43.432  57.365 -59.209  1.00  0.00    -0.177 NA
HETATM   10  C   UNL     1     -43.637  56.224 -58.539  1.00  0.00     0.068 A 
HETATM   11  C   UNL     1     -44.405  55.131 -59.192  1.00  0.00     0.073 C 
ENDROOT
BRANCH   2  12
HETATM   12  S   UNL     1     -41.099  57.922 -53.575  1.00  0.00    -0.082 SA
BRANCH  12  13
HETATM   13  C   UNL     1     -41.652  59.650 -53.738  1.00  0.00     0.185 C 
BRANCH  13  14
HETATM   14  C   UNL     1     -42.720  60.033 -52.717  1.00  0.00     0.227 C 
HETATM   15  N   UNL     1     -43.924  60.475 -53.211  1.00  0.00    -0.360 N 
HETATM   16  H   UNL     1     -44.625  60.657 -52.498  1.00  0.00     0.162 HD
HETATM   17  O   UNL     1     -42.554  59.950 -51.499  1.00  0.00    -0.273 OA
BRANCH  15  18
HETATM   18  C   UNL     1     -44.346  60.370 -54.599  1.00  0.00     0.127 C 
BRANCH  18  19
HETATM   19  C   UNL     1     -45.097  59.078 -54.924  1.00  0.00     0.058 C 
BRANCH  19  20
HETATM   20  C   UNL     1     -45.662  59.159 -56.324  1.00  0.00    -0.057 A 
HETATM   21  C   UNL     1     -46.413  58.096 -56.847  1.00  0.00     0.009 A 
HETATM   22  C   UNL     1     -46.836  58.118 -58.178  1.00  0.00     0.025 A 
HETATM   23  C   UNL     1     -46.514  59.210 -58.987  1.00  0.00     0.074 A 
HETATM   24  C   UNL     1     -45.777  60.281 -58.477  1.00  0.00     0.025 A 
HETATM   25  C   UNL     1     -45.357  60.255 -57.146  1.00  0.00     0.009 A 
BRANCH  23  26
HETATM   26  S   UNL     1     -46.949  59.182 -60.704  1.00  0.00     0.239 S 
HETATM   27  O   UNL     1     -48.372  59.392 -60.831  1.00  0.00    -0.206 OA
HETATM   28  O   UNL     1     -45.983  59.966 -61.439  1.00  0.00    -0.206 OA
BRANCH  26  29
HETATM   29  N   UNL     1     -46.669  57.581 -61.115  1.00  0.00    -0.225 NA
HETATM   30  H   UNL     1     -45.825  57.244 -60.650  1.00  0.00     0.136 HD
HETATM   31  H   UNL     1     -47.497  57.019 -60.911  1.00  0.00     0.136 HD
ENDBRANCH  26  29
ENDBRANCH  23  26
ENDBRANCH  19  20
ENDBRANCH  18  19
ENDBRANCH  15  18
ENDBRANCH  13  14
ENDBRANCH  12  13
ENDBRANCH   2  12
BRANCH   1  32
HETATM   32  C   UNL     1     -42.159  55.115 -53.885  1.00  0.00     0.051 A 
HETATM   33  C   UNL     1     -41.105  54.186 -53.799  1.00  0.00    -0.035 A 
HETATM   34  C   UNL     1     -40.036  54.035 -54.844  1.00  0.00     0.050 C 
HETATM   35  C   UNL     1     -41.032  53.401 -52.640  1.00  0.00     0.011 A 
HETATM   36  C   UNL     1     -42.001  53.513 -51.638  1.00  0.00     0.024 A 
HETATM   37  C   UNL     1     -43.049  54.424 -51.772  1.00  0.00     0.036 A 
HETATM   38  C   UNL     1     -43.139  55.237 -52.897  1.00  0.00     0.054 A 
HETATM   39 CL   UNL     1     -44.248  54.534 -50.548  1.00  0.00    -0.084 Cl
ENDBRANCH   1  32
BRANCH   6  40
HETATM   40  N   UNL     1     -43.396  54.072 -56.173  1.00  0.00    -0.384 N 
HETATM   41  H   UNL     1     -44.396  53.906 -56.134  1.00  0.00     0.157 HD
HETATM   42  H   UNL     1     -42.859  53.313 -56.572  1.00  0.00     0.157 HD
ENDBRANCH   6  40
TORSDOF 10
ENDMDL
MODEL 7
REMARK VINA RESULT:      -7.3      4.352      7.500
REMARK  10 active torsions:
REMARK  status: ('A' for Active; 'I' for Inactive)
REMARK    1  A    between atoms: C_3  and  N_4 
REMARK    2  A    between atoms: C_5  and  S_6 
REMARK    3  A    between atoms: S_6  and  C_7 
REMARK    4  A    between atoms: C_7  and  C_8 
REMARK       I    between atoms: C_8  and  N_9 
REMARK    5  A    between atoms: N_9  and  C_10 
REMARK    6  A    between atoms: C_10  and  C_11 
REMARK    7  A    between atoms: C_11  and  C_12 
REMARK    8  A    between atoms: C_15  and  S_16 
REMARK    9  A    between atoms: S_16  and  N_17 
REMARK   10  A    between atoms: C_26  and  N_27 
ROOT
HETATM    1  N   UNL     1     -44.141  59.092 -56.545  1.00  0.00    -0.275 N 
HETATM    2  C   UNL     1     -42.881  59.413 -56.957  1.00  0.00     0.177 A 
HETATM    3  N   UNL     1     -41.805  59.523 -56.146  1.00  0.00    -0.204 NA
HETATM    4  C   UNL     1     -42.085  59.156 -54.896  1.00  0.00     0.162 A 
HETATM    5  C   UNL     1     -43.311  58.762 -54.403  1.00  0.00     0.081 A 
HETATM    6  C   UNL     1     -44.428  58.758 -55.255  1.00  0.00     0.124 A 
HETATM    7  N   UNL     1     -41.200  59.091 -53.858  1.00  0.00    -0.260 N 
HETATM    8  H   UNL     1     -40.210  59.312 -53.867  1.00  0.00     0.191 HD
HETATM    9  N   UNL     1     -41.760  58.672 -52.715  1.00  0.00    -0.177 NA
HETATM   10  C   UNL     1     -43.043  58.458 -53.033  1.00  0.00     0.068 A 
HETATM   11  C   UNL     1     -43.973  57.956 -51.988  1.00  0.00     0.073 C 
ENDROOT
BRANCH   2  12
HETATM   12  S   UNL     1     -42.528  59.759 -58.691  1.00  0.00    -0.082 SA
BRANCH  12  13
HETATM   13  C   UNL     1     -41.495  58.317 -59.107  1.00  0.00     0.185 C 
BRANCH  13  14
HETATM   14  C   UNL     1     -42.300  57.152 -59.675  1.00  0.00     0.227 C 
HETATM   15  N   UNL     1     -42.523  56.082 -58.841  1.00  0.00    -0.360 N 
HETATM   16  H   UNL     1     -43.116  55.360 -59.240  1.00  0.00     0.162 HD
HETATM   17  O   UNL     1     -42.756  57.138 -60.820  1.00  0.00    -0.273 OA
BRANCH  15  18
HETATM   18  C   UNL     1     -42.278  56.078 -57.407  1.00  0.00     0.127 C 
BRANCH  18  19
HETATM   19  C   UNL     1     -43.271  55.231 -56.611  1.00  0.00     0.058 C 
BRANCH  19  20
HETATM   20  C   UNL     1     -42.756  55.036 -55.203  1.00  0.00    -0.057 A 
HETATM   21  C   UNL     1     -43.624  54.623 -54.182  1.00  0.00     0.009 A 
HETATM   22  C   UNL     1     -43.179  54.555 -52.860  1.00  0.00     0.025 A 
HETATM   23  C   UNL     1     -41.858  54.895 -52.558  1.00  0.00     0.074 A 
HETATM   24  C   UNL     1     -40.980  55.297 -53.566  1.00  0.00     0.025 A 
HETATM   25  C   UNL     1     -41.428  55.363 -54.886  1.00  0.00     0.009 A 
BRANCH  23  26
HETATM   26  S   UNL     1     -41.329  54.923 -50.868  1.00  0.00     0.239 S 
HETATM   27  O   UNL     1     -42.469  54.683 -50.016  1.00  0.00    -0.206 OA
HETATM   28  O   UNL     1     -40.104  54.166 -50.753  1.00  0.00    -0.206 OA
BRANCH  26  29
HETATM   29  N   UNL     1     -40.911  56.533 -50.654  1.00  0.00    -0.225 NA
HETATM   30  H   UNL     1     -41.466  56.939 -49.898  1.00  0.00     0.136 HD
HETATM   31  H   UNL     1     -39.904  56.616 -50.508  1.00  0.00     0.136 HD
ENDBRANCH  26  29
ENDBRANCH  23  26
ENDBRANCH  19  20
ENDBRANCH  18  19
ENDBRANCH  15  18
ENDBRANCH  13  14
ENDBRANCH  12  13
ENDBRANCH   2  12
BRANCH   1  32
HETATM   32  C   UNL     1     -45.216  59.085 -57.501  1.00  0.00     0.051 A 
HETATM   33  C   UNL     1     -45.985  60.247 -57.702  1.00  0.00    -0.035 A 
HETATM   34  C   UNL     1     -45.702  61.562 -57.034  1.00  0.00     0.050 C 
HETATM   35  C   UNL     1     -47.039  60.171 -58.623  1.00  0.00     0.011 A 
HETATM   36  C   UNL     1     -47.333  58.968 -59.274  1.00  0.00     0.024 A 
HETATM   37  C   UNL     1     -46.569  57.828 -59.027  1.00  0.00     0.036 A 
HETATM   38  C   UNL     1     -45.499  57.874 -58.138  1.00  0.00     0.054 A 
HETATM   39 CL   UNL     1     -46.957  56.352 -59.811  1.00  0.00    -0.084 Cl
ENDBRANCH   1  32
BRANCH   6  40
HETATM   40  N   UNL     1     -45.709  58.448 -54.817  1.00  0.00    -0.384 N 
HETATM   41  H   UNL     1     -46.165  57.617 -55.181  1.00  0.00     0.157 HD
HETATM   42  H   UNL     1     -46.074  58.773 -53.931  1.00  0.00     0.157 HD
ENDBRANCH   6  40
TORSDOF 10
ENDMDL
MODEL 8
REMARK VINA RESULT:      -7.2      4.266      7.165
REMARK  10 active torsions:
REMARK  status: ('A' for Active; 'I' for Inactive)
REMARK    1  A    between atoms: C_3  and  N_4 
REMARK    2  A    between atoms: C_5  and  S_6 
REMARK    3  A    between atoms: S_6  and  C_7 
REMARK    4  A    between atoms: C_7  and  C_8 
REMARK       I    between atoms: C_8  and  N_9 
REMARK    5  A    between atoms: N_9  and  C_10 
REMARK    6  A    between atoms: C_10  and  C_11 
REMARK    7  A    between atoms: C_11  and  C_12 
REMARK    8  A    between atoms: C_15  and  S_16 
REMARK    9  A    between atoms: S_16  and  N_17 
REMARK   10  A    between atoms: C_26  and  N_27 
ROOT
HETATM    1  N   UNL     1     -43.611  58.596 -57.310  1.00  0.00    -0.275 N 
HETATM    2  C   UNL     1     -44.667  59.039 -56.569  1.00  0.00     0.177 A 
HETATM    3  N   UNL     1     -45.257  58.346 -55.569  1.00  0.00    -0.204 NA
HETATM    4  C   UNL     1     -44.607  57.216 -55.296  1.00  0.00     0.162 A 
HETATM    5  C   UNL     1     -43.500  56.718 -55.950  1.00  0.00     0.081 A 
HETATM    6  C   UNL     1     -42.977  57.418 -57.050  1.00  0.00     0.124 A 
HETATM    7  N   UNL     1     -44.911  56.332 -54.301  1.00  0.00    -0.260 N 
HETATM    8  H   UNL     1     -45.668  56.387 -53.627  1.00  0.00     0.191 HD
HETATM    9  N   UNL     1     -44.072  55.288 -54.249  1.00  0.00    -0.177 NA
HETATM   10  C   UNL     1     -43.202  55.514 -55.241  1.00  0.00     0.068 A 
HETATM   11  C   UNL     1     -42.096  54.546 -55.468  1.00  0.00     0.073 C 
ENDROOT
BRANCH   2  12
HETATM   12  S   UNL     1     -45.419  60.647 -56.888  1.00  0.00    -0.082 SA
BRANCH  12  13
HETATM   13  C   UNL     1     -44.958  61.529 -55.362  1.00  0.00     0.185 C 
BRANCH  13  14
HETATM   14  C   UNL     1     -43.606  62.229 -55.463  1.00  0.00     0.227 C 
HETATM   15  N   UNL     1     -42.557  61.657 -54.784  1.00  0.00    -0.360 N 
HETATM   16  H   UNL     1     -41.664  62.120 -54.931  1.00  0.00     0.162 HD
HETATM   17  O   UNL     1     -43.421  63.253 -56.122  1.00  0.00    -0.273 OA
BRANCH  15  18
HETATM   18  C   UNL     1     -42.569  60.326 -54.196  1.00  0.00     0.127 C 
BRANCH  18  19
HETATM   19  C   UNL     1     -42.647  60.323 -52.669  1.00  0.00     0.058 C 
BRANCH  19  20
HETATM   20  C   UNL     1     -42.542  58.903 -52.160  1.00  0.00    -0.057 A 
HETATM   21  C   UNL     1     -41.444  58.104 -52.509  1.00  0.00     0.009 A 
HETATM   22  C   UNL     1     -41.402  56.759 -52.138  1.00  0.00     0.025 A 
HETATM   23  C   UNL     1     -42.459  56.210 -51.407  1.00  0.00     0.074 A 
HETATM   24  C   UNL     1     -43.554  56.997 -51.043  1.00  0.00     0.025 A 
HETATM   25  C   UNL     1     -43.591  58.341 -51.415  1.00  0.00     0.009 A 
BRANCH  23  26
HETATM   26  S   UNL     1     -42.460  54.478 -51.041  1.00  0.00     0.239 S 
HETATM   27  O   UNL     1     -41.605  53.799 -51.985  1.00  0.00    -0.206 OA
HETATM   28  O   UNL     1     -42.325  54.307 -49.613  1.00  0.00    -0.206 OA
BRANCH  26  29
HETATM   29  N   UNL     1     -44.031  54.035 -51.424  1.00  0.00    -0.225 NA
HETATM   30  H   UNL     1     -44.339  54.533 -52.260  1.00  0.00     0.136 HD
HETATM   31  H   UNL     1     -44.097  53.020 -51.509  1.00  0.00     0.136 HD
ENDBRANCH  26  29
ENDBRANCH  23  26
ENDBRANCH  19  20
ENDBRANCH  18  19
ENDBRANCH  15  18
ENDBRANCH  13  14
ENDBRANCH  12  13
ENDBRANCH   2  12
BRANCH   1  32
HETATM   32  C   UNL     1     -43.126  59.400 -58.399  1.00  0.00     0.051 A 
HETATM   33  C   UNL     1     -43.627  59.198 -59.699  1.00  0.00    -0.035 A 
HETATM   34  C   UNL     1     -44.730  58.233 -60.029  1.00  0.00     0.050 C 
HETATM   35  C   UNL     1     -43.093  59.989 -60.726  1.00  0.00     0.011 A 
HETATM   36  C   UNL     1     -42.070  60.906 -60.462  1.00  0.00     0.024 A 
HETATM   37  C   UNL     1     -41.577  61.058 -59.167  1.00  0.00     0.036 A 
HETATM   38  C   UNL     1     -42.100  60.307 -58.120  1.00  0.00     0.054 A 
HETATM   39 CL   UNL     1     -40.302  62.166 -58.862  1.00  0.00    -0.084 Cl
ENDBRANCH   1  32
BRANCH   6  40
HETATM   40  N   UNL     1     -41.913  56.944 -57.807  1.00  0.00    -0.384 N 
HETATM   41  H   UNL     1     -42.090  56.244 -58.520  1.00  0.00     0.157 HD
HETATM   42  H   UNL     1     -41.064  57.478 -57.945  1.00  0.00     0.157 HD
ENDBRANCH   6  40
TORSDOF 10
ENDMDL
MODEL 9
REMARK VINA RESULT:      -7.1      4.294      6.677
REMARK  10 active torsions:
REMARK  status: ('A' for Active; 'I' for Inactive)
REMARK    1  A    between atoms: C_3  and  N_4 
REMARK    2  A    between atoms: C_5  and  S_6 
REMARK    3  A    between atoms: S_6  and  C_7 
REMARK    4  A    between atoms: C_7  and  C_8 
REMARK       I    between atoms: C_8  and  N_9 
REMARK    5  A    between atoms: N_9  and  C_10 
REMARK    6  A    between atoms: C_10  and  C_11 
REMARK    7  A    between atoms: C_11  and  C_12 
REMARK    8  A    between atoms: C_15  and  S_16 
REMARK    9  A    between atoms: S_16  and  N_17 
REMARK   10  A    between atoms: C_26  and  N_27 
ROOT
HETATM    1  N   UNL     1     -43.744  57.233 -56.391  1.00  0.00    -0.275 N 
HETATM    2  C   UNL     1     -44.888  57.807 -55.920  1.00  0.00     0.177 A 
HETATM    3  N   UNL     1     -45.324  57.732 -54.643  1.00  0.00    -0.204 NA
HETATM    4  C   UNL     1     -44.437  57.130 -53.850  1.00  0.00     0.162 A 
HETATM    5  C   UNL     1     -43.233  56.574 -54.225  1.00  0.00     0.081 A 
HETATM    6  C   UNL     1     -42.862  56.583 -55.580  1.00  0.00     0.124 A 
HETATM    7  N   UNL     1     -44.551  56.958 -52.500  1.00  0.00    -0.260 N 
HETATM    8  H   UNL     1     -45.313  57.248 -51.896  1.00  0.00     0.191 HD
HETATM    9  N   UNL     1     -43.497  56.332 -51.959  1.00  0.00    -0.177 NA
HETATM   10  C   UNL     1     -42.682  56.101 -52.996  1.00  0.00     0.068 A 
HETATM   11  C   UNL     1     -41.379  55.425 -52.755  1.00  0.00     0.073 C 
ENDROOT
BRANCH   2  12
HETATM   12  S   UNL     1     -45.981  58.737 -57.012  1.00  0.00    -0.082 SA
BRANCH  12  13
HETATM   13  C   UNL     1     -45.524  60.441 -56.555  1.00  0.00     0.185 C 
BRANCH  13  14
HETATM   14  C   UNL     1     -46.734  61.326 -56.267  1.00  0.00     0.227 C 
HETATM   15  N   UNL     1     -46.772  61.950 -55.043  1.00  0.00    -0.360 N 
HETATM   16  H   UNL     1     -47.561  62.578 -54.921  1.00  0.00     0.162 HD
HETATM   17  O   UNL     1     -47.647  61.507 -57.073  1.00  0.00    -0.273 OA
BRANCH  15  18
HETATM   18  C   UNL     1     -45.654  62.039 -54.117  1.00  0.00     0.127 C 
BRANCH  18  19
HETATM   19  C   UNL     1     -45.698  61.006 -52.990  1.00  0.00     0.058 C 
BRANCH  19  20
HETATM   20  C   UNL     1     -44.289  60.625 -52.596  1.00  0.00    -0.057 A 
HETATM   21  C   UNL     1     -43.284  60.526 -53.569  1.00  0.00     0.009 A 
HETATM   22  C   UNL     1     -42.012  60.062 -53.225  1.00  0.00     0.025 A 
HETATM   23  C   UNL     1     -41.741  59.703 -51.903  1.00  0.00     0.074 A 
HETATM   24  C   UNL     1     -42.729  59.808 -50.922  1.00  0.00     0.025 A 
HETATM   25  C   UNL     1     -43.999  60.272 -51.268  1.00  0.00     0.009 A 
BRANCH  23  26
HETATM   26  S   UNL     1     -40.167  59.003 -51.493  1.00  0.00     0.239 S 
HETATM   27  O   UNL     1     -40.376  57.777 -50.759  1.00  0.00    -0.206 OA
HETATM   28  O   UNL     1     -39.312  59.073 -52.655  1.00  0.00    -0.206 OA
BRANCH  26  29
HETATM   29  N   UNL     1     -39.560  60.113 -50.393  1.00  0.00    -0.225 NA
HETATM   30  H   UNL     1     -39.411  61.013 -50.852  1.00  0.00     0.136 HD
HETATM   31  H   UNL     1     -40.174  60.169 -49.579  1.00  0.00     0.136 HD
ENDBRANCH  26  29
ENDBRANCH  23  26
ENDBRANCH  19  20
ENDBRANCH  18  19
ENDBRANCH  15  18
ENDBRANCH  13  14
ENDBRANCH  12  13
ENDBRANCH   2  12
BRANCH   1  32
HETATM   32  C   UNL     1     -43.434  57.323 -57.793  1.00  0.00     0.051 A 
HETATM   33  C   UNL     1     -42.636  58.379 -58.270  1.00  0.00    -0.035 A 
HETATM   34  C   UNL     1     -41.989  59.405 -57.383  1.00  0.00     0.050 C 
HETATM   35  C   UNL     1     -42.394  58.432 -59.650  1.00  0.00     0.011 A 
HETATM   36  C   UNL     1     -42.970  57.494 -60.512  1.00  0.00     0.024 A 
HETATM   37  C   UNL     1     -43.781  56.478 -60.008  1.00  0.00     0.036 A 
HETATM   38  C   UNL     1     -44.022  56.380 -58.641  1.00  0.00     0.054 A 
HETATM   39 CL   UNL     1     -44.504  55.348 -61.080  1.00  0.00    -0.084 Cl
ENDBRANCH   1  32
BRANCH   6  40
HETATM   40  N   UNL     1     -41.703  55.977 -56.048  1.00  0.00    -0.384 N 
HETATM   41  H   UNL     1     -41.695  54.972 -56.183  1.00  0.00     0.157 HD
HETATM   42  H   UNL     1     -41.006  56.478 -56.584  1.00  0.00     0.157 HD
ENDBRANCH   6  40
TORSDOF 10
ENDMDL
MODEL 10
REMARK VINA RESULT:      -7.1      4.916      9.940
REMARK  10 active torsions:
REMARK  status: ('A' for Active; 'I' for Inactive)
REMARK    1  A    between atoms: C_3  and  N_4 
REMARK    2  A    between atoms: C_5  and  S_6 
REMARK    3  A    between atoms: S_6  and  C_7 
REMARK    4  A    between atoms: C_7  and  C_8 
REMARK       I    between atoms: C_8  and  N_9 
REMARK    5  A    between atoms: N_9  and  C_10 
REMARK    6  A    between atoms: C_10  and  C_11 
REMARK    7  A    between atoms: C_11  and  C_12 
REMARK    8  A    between atoms: C_15  and  S_16 
REMARK    9  A    between atoms: S_16  and  N_17 
REMARK   10  A    between atoms: C_26  and  N_27 
ROOT
HETATM    1  N   UNL     1     -43.233  59.358 -58.846  1.00  0.00    -0.275 N 
HETATM    2  C   UNL     1     -42.743  59.462 -57.577  1.00  0.00     0.177 A 
HETATM    3  N   UNL     1     -41.715  60.258 -57.207  1.00  0.00    -0.204 NA
HETATM    4  C   UNL     1     -41.303  61.036 -58.207  1.00  0.00     0.162 A 
HETATM    5  C   UNL     1     -41.777  61.042 -59.502  1.00  0.00     0.081 A 
HETATM    6  C   UNL     1     -42.778  60.129 -59.873  1.00  0.00     0.124 A 
HETATM    7  N   UNL     1     -40.330  61.992 -58.135  1.00  0.00    -0.260 N 
HETATM    8  H   UNL     1     -39.771  62.255 -57.330  1.00  0.00     0.191 HD
HETATM    9  N   UNL     1     -40.138  62.634 -59.296  1.00  0.00    -0.177 NA
HETATM   10  C   UNL     1     -41.018  62.073 -60.134  1.00  0.00     0.068 A 
HETATM   11  C   UNL     1     -41.097  62.566 -61.535  1.00  0.00     0.073 C 
ENDROOT
BRANCH   2  12
HETATM   12  S   UNL     1     -43.437  58.488 -56.228  1.00  0.00    -0.082 SA
BRANCH  12  13
HETATM   13  C   UNL     1     -42.084  58.604 -55.014  1.00  0.00     0.185 C 
BRANCH  13  14
HETATM   14  C   UNL     1     -42.581  58.726 -53.576  1.00  0.00     0.227 C 
HETATM   15  N   UNL     1     -42.330  57.665 -52.739  1.00  0.00    -0.360 N 
HETATM   16  H   UNL     1     -42.622  57.817 -51.777  1.00  0.00     0.162 HD
HETATM   17  O   UNL     1     -43.171  59.717 -53.145  1.00  0.00    -0.273 OA
BRANCH  15  18
HETATM   18  C   UNL     1     -41.426  56.565 -53.034  1.00  0.00     0.127 C 
BRANCH  18  19
HETATM   19  C   UNL     1     -41.189  55.622 -51.853  1.00  0.00     0.058 C 
BRANCH  19  20
HETATM   20  C   UNL     1     -40.710  54.283 -52.363  1.00  0.00    -0.057 A 
HETATM   21  C   UNL     1     -40.801  53.969 -53.727  1.00  0.00     0.009 A 
HETATM   22  C   UNL     1     -40.469  52.692 -54.183  1.00  0.00     0.025 A 
HETATM   23  C   UNL     1     -40.035  51.725 -53.273  1.00  0.00     0.074 A 
HETATM   24  C   UNL     1     -39.929  52.026 -51.914  1.00  0.00     0.025 A 
HETATM   25  C   UNL     1     -40.261  53.304 -51.462  1.00  0.00     0.009 A 
BRANCH  23  26
HETATM   26  S   UNL     1     -39.729  50.073 -53.834  1.00  0.00     0.239 S 
HETATM   27  O   UNL     1     -38.676  50.103 -54.822  1.00  0.00    -0.206 OA
HETATM   28  O   UNL     1     -39.690  49.195 -52.688  1.00  0.00    -0.206 OA
BRANCH  26  29
HETATM   29  N   UNL     1     -41.142  49.711 -54.660  1.00  0.00    -0.225 NA
HETATM   30  H   UNL     1     -40.940  49.075 -55.433  1.00  0.00     0.136 HD
HETATM   31  H   UNL     1     -41.843  49.351 -54.011  1.00  0.00     0.136 HD
ENDBRANCH  26  29
ENDBRANCH  23  26
ENDBRANCH  19  20
ENDBRANCH  18  19
ENDBRANCH  15  18
ENDBRANCH  13  14
ENDBRANCH  12  13
ENDBRANCH   2  12
BRANCH   1  32
HETATM   32  C   UNL     1     -44.283  58.414 -59.122  1.00  0.00     0.051 A 
HETATM   33  C   UNL     1     -45.630  58.806 -59.006  1.00  0.00    -0.035 A 
HETATM   34  C   UNL     1     -46.067  60.208 -58.689  1.00  0.00     0.050 C 
HETATM   35  C   UNL     1     -46.608  57.834 -59.257  1.00  0.00     0.011 A 
HETATM   36  C   UNL     1     -46.246  56.518 -59.562  1.00  0.00     0.024 A 
HETATM   37  C   UNL     1     -44.901  56.158 -59.639  1.00  0.00     0.036 A 
HETATM   38  C   UNL     1     -43.903  57.103 -59.421  1.00  0.00     0.054 A 
HETATM   39 CL   UNL     1     -44.469  54.534 -59.988  1.00  0.00    -0.084 Cl
ENDBRANCH   1  32
BRANCH   6  40
HETATM   40  N   UNL     1     -43.254  60.021 -61.174  1.00  0.00    -0.384 N 
HETATM   41  H   UNL     1     -43.222  59.118 -61.635  1.00  0.00     0.157 HD
HETATM   42  H   UNL     1     -43.931  60.666 -61.560  1.00  0.00     0.157 HD
ENDBRANCH   6  40
TORSDOF 10
ENDMDL
