MODEL 1
REMARK VINA RESULT:      -8.6      0.000      0.000
REMARK  9 active torsions:
REMARK  status: ('A' for Active; 'I' for Inactive)
REMARK    1  A    between atoms: C_2  and  C_3 
REMARK    2  A    between atoms: C_3  and  C_4 
REMARK    3  A    between atoms: C_3  and  C_39 
REMARK    4  A    between atoms: C_6  and  C_7 
REMARK    5  A    between atoms: C_14  and  C_15 
REMARK    6  A    between atoms: C_18  and  C_19 
REMARK    7  A    between atoms: C_19  and  N_20 
REMARK       I    between atoms: N_20  and  C_21 
REMARK       I    between atoms: C_21  and  N_22 
REMARK    8  A    between atoms: N_22  and  C_23 
REMARK    9  A    between atoms: C_26  and  C_27 
ROOT
HETATM    1  C   UNL     1     -43.749  61.220 -55.172  1.00  0.00     0.068 C 
HETATM    2  C   UNL     1     -42.787  61.459 -53.973  1.00  0.00     0.001 C 
HETATM    3  C   UNL     1     -42.392  60.102 -53.343  1.00  0.00     0.040 C 
HETATM    4  C   UNL     1     -43.628  59.395 -52.759  1.00  0.00     0.206 C 
HETATM    5  N   UNL     1     -44.844  60.219 -53.175  1.00  0.00    -0.065 N 
HETATM    6  H   UNL     1     -45.692  59.681 -52.894  1.00  0.00     0.280 HD
HETATM    7  C   UNL     1     -44.961  60.404 -54.681  1.00  0.00     0.246 C 
HETATM    8  C   UNL     1     -43.550  62.279 -52.907  1.00  0.00     0.033 C 
HETATM    9  C   UNL     1     -44.832  61.554 -52.481  1.00  0.00     0.236 C 
ENDROOT
BRANCH   1  10
HETATM   10  C   UNL     1     -43.038  60.592 -56.354  1.00  0.00     0.045 A 
HETATM   11  N   UNL     1     -42.380  61.410 -57.201  1.00  0.00    -0.233 NA
HETATM   12  C   UNL     1     -41.805  60.840 -58.282  1.00  0.00     0.160 A 
HETATM   13  N   UNL     1     -41.906  59.536 -58.588  1.00  0.00    -0.233 NA
HETATM   14  C   UNL     1     -42.579  58.736 -57.736  1.00  0.00     0.043 A 
HETATM   15  C   UNL     1     -43.145  59.231 -56.577  1.00  0.00     0.055 A 
BRANCH  12  16
HETATM   16  C   UNL     1     -41.018  61.699 -59.183  1.00  0.00     0.014 A 
HETATM   17  C   UNL     1     -40.023  62.557 -58.691  1.00  0.00     0.034 A 
HETATM   18  C   UNL     1     -39.307  63.350 -59.573  1.00  0.00     0.117 A 
HETATM   19  N   UNL     1     -39.508  63.352 -60.906  1.00  0.00    -0.273 NA
HETATM   20  C   UNL     1     -40.475  62.543 -61.374  1.00  0.00     0.117 A 
HETATM   21  C   UNL     1     -41.240  61.713 -60.570  1.00  0.00     0.034 A 
ENDBRANCH  12  16
BRANCH  14  22
HETATM   22  C   UNL     1     -42.671  57.270 -58.123  1.00  0.00     0.037 C 
BRANCH  22  23
HETATM   23  C   UNL     1     -43.289  57.039 -59.521  1.00  0.00     0.006 C 
HETATM   24  C   UNL     1     -43.599  55.576 -59.815  1.00  0.00     0.006 C 
ENDBRANCH  22  23
BRANCH  22  25
HETATM   25  C   UNL     1     -43.450  56.461 -57.064  1.00  0.00     0.006 C 
HETATM   26  C   UNL     1     -42.625  55.344 -56.432  1.00  0.00     0.006 C 
ENDBRANCH  22  25
ENDBRANCH  14  22
ENDBRANCH   1  10
BRANCH   4  27
HETATM   27  C   UNL     1     -43.727  57.895 -53.141  1.00  0.00     0.157 C 
BRANCH  27  28
HETATM   28  N   UNL     1     -42.450  57.178 -53.203  1.00  0.00    -0.341 N 
HETATM   29  C   UNL     1     -42.340  55.847 -52.874  1.00  0.00     0.320 C 
HETATM   30  N   UNL     1     -41.105  55.337 -53.169  1.00  0.00    -0.309 N 
HETATM   31  O   UNL     1     -43.266  55.255 -52.328  1.00  0.00    -0.247 OA
HETATM   32  H   UNL     1     -40.362  56.003 -53.322  1.00  0.00     0.170 HD
HETATM   33  H   UNL     1     -41.831  57.467 -53.950  1.00  0.00     0.164 HD
BRANCH  30  34
HETATM   34  C   UNL     1     -40.715  53.983 -53.065  1.00  0.00     0.036 A 
HETATM   35  C   UNL     1     -40.689  53.104 -54.152  1.00  0.00     0.030 A 
HETATM   36  C   UNL     1     -40.296  51.770 -53.987  1.00  0.00     0.017 A 
HETATM   37  C   UNL     1     -39.919  51.299 -52.728  1.00  0.00     0.009 A 
HETATM   38  C   UNL     1     -39.923  52.183 -51.642  1.00  0.00     0.017 A 
HETATM   39  C   UNL     1     -40.312  53.518 -51.811  1.00  0.00     0.030 A 
BRANCH  37  40
HETATM   40  C   UNL     1     -39.509  49.883 -52.498  1.00  0.00     0.155 C 
HETATM   41  C   UNL     1     -39.376  49.379 -51.085  1.00  0.00     0.096 C 
HETATM   42  O   UNL     1     -39.286  49.152 -53.461  1.00  0.00    -0.293 OA
ENDBRANCH  37  40
ENDBRANCH  30  34
ENDBRANCH  27  28
ENDBRANCH   4  27
TORSDOF 9
ENDMDL
MODEL 2
REMARK VINA RESULT:      -8.6      0.744      1.231
REMARK  9 active torsions:
REMARK  status: ('A' for Active; 'I' for Inactive)
REMARK    1  A    between atoms: C_2  and  C_3 
REMARK    2  A    between atoms: C_3  and  C_4 
REMARK    3  A    between atoms: C_3  and  C_39 
REMARK    4  A    between atoms: C_6  and  C_7 
REMARK    5  A    between atoms: C_14  and  C_15 
REMARK    6  A    between atoms: C_18  and  C_19 
REMARK    7  A    between atoms: C_19  and  N_20 
REMARK       I    between atoms: N_20  and  C_21 
REMARK       I    between atoms: C_21  and  N_22 
REMARK    8  A    between atoms: N_22  and  C_23 
REMARK    9  A    between atoms: C_26  and  C_27 
ROOT
HETATM    1  C   UNL     1     -44.008  61.148 -54.548  1.00  0.00     0.068 C 
HETATM    2  C   UNL     1     -42.845  61.484 -53.572  1.00  0.00     0.001 C 
HETATM    3  C   UNL     1     -42.322  60.183 -52.918  1.00  0.00     0.040 C 
HETATM    4  C   UNL     1     -43.420  59.529 -52.059  1.00  0.00     0.206 C 
HETATM    5  N   UNL     1     -44.702  60.317 -52.309  1.00  0.00    -0.065 N 
HETATM    6  H   UNL     1     -45.477  59.806 -51.833  1.00  0.00     0.280 HD
HETATM    7  C   UNL     1     -45.098  60.377 -53.777  1.00  0.00     0.246 C 
HETATM    8  C   UNL     1     -43.410  62.390 -52.454  1.00  0.00     0.033 C 
HETATM    9  C   UNL     1     -44.581  61.705 -51.740  1.00  0.00     0.236 C 
ENDROOT
BRANCH   1  10
HETATM   10  C   UNL     1     -43.519  60.424 -55.787  1.00  0.00     0.045 A 
HETATM   11  N   UNL     1     -42.854  61.141 -56.715  1.00  0.00    -0.233 NA
HETATM   12  C   UNL     1     -42.480  60.493 -57.840  1.00  0.00     0.160 A 
HETATM   13  N   UNL     1     -42.786  59.212 -58.106  1.00  0.00    -0.233 NA
HETATM   14  C   UNL     1     -43.463  58.514 -57.171  1.00  0.00     0.043 A 
HETATM   15  C   UNL     1     -43.829  59.088 -55.969  1.00  0.00     0.055 A 
BRANCH  12  16
HETATM   16  C   UNL     1     -41.689  61.233 -58.837  1.00  0.00     0.014 A 
HETATM   17  C   UNL     1     -40.691  62.139 -58.451  1.00  0.00     0.034 A 
HETATM   18  C   UNL     1     -39.970  62.817 -59.421  1.00  0.00     0.117 A 
HETATM   19  N   UNL     1     -40.170  62.659 -60.745  1.00  0.00    -0.273 NA
HETATM   20  C   UNL     1     -41.141  61.803 -61.113  1.00  0.00     0.117 A 
HETATM   21  C   UNL     1     -41.910  61.080 -60.215  1.00  0.00     0.034 A 
ENDBRANCH  12  16
BRANCH  14  22
HETATM   22  C   UNL     1     -43.790  57.072 -57.516  1.00  0.00     0.037 C 
BRANCH  22  23
HETATM   23  C   UNL     1     -42.762  56.057 -56.963  1.00  0.00     0.006 C 
HETATM   24  C   UNL     1     -43.286  55.239 -55.789  1.00  0.00     0.006 C 
ENDBRANCH  22  23
BRANCH  22  25
HETATM   25  C   UNL     1     -43.948  56.883 -59.040  1.00  0.00     0.006 C 
HETATM   26  C   UNL     1     -43.064  55.777 -59.605  1.00  0.00     0.006 C 
ENDBRANCH  22  25
ENDBRANCH  14  22
ENDBRANCH   1  10
BRANCH   4  27
HETATM   27  C   UNL     1     -43.567  58.002 -52.293  1.00  0.00     0.157 C 
BRANCH  27  28
HETATM   28  N   UNL     1     -42.312  57.276 -52.504  1.00  0.00    -0.341 N 
HETATM   29  C   UNL     1     -42.237  55.905 -52.431  1.00  0.00     0.320 C 
HETATM   30  N   UNL     1     -41.019  55.426 -52.832  1.00  0.00    -0.309 N 
HETATM   31  O   UNL     1     -43.174  55.245 -51.993  1.00  0.00    -0.247 OA
HETATM   32  H   UNL     1     -40.258  56.089 -52.867  1.00  0.00     0.170 HD
HETATM   33  H   UNL     1     -41.690  57.683 -53.192  1.00  0.00     0.164 HD
BRANCH  30  34
HETATM   34  C   UNL     1     -40.667  54.067 -52.987  1.00  0.00     0.036 A 
HETATM   35  C   UNL     1     -40.706  53.397 -54.214  1.00  0.00     0.030 A 
HETATM   36  C   UNL     1     -40.348  52.047 -54.305  1.00  0.00     0.017 A 
HETATM   37  C   UNL     1     -39.940  51.348 -53.167  1.00  0.00     0.009 A 
HETATM   38  C   UNL     1     -39.879  52.023 -51.942  1.00  0.00     0.017 A 
HETATM   39  C   UNL     1     -40.234  53.375 -51.854  1.00  0.00     0.030 A 
BRANCH  37  40
HETATM   40  C   UNL     1     -39.566  49.904 -53.211  1.00  0.00     0.155 C 
HETATM   41  C   UNL     1     -39.528  49.118 -51.927  1.00  0.00     0.096 C 
HETATM   42  O   UNL     1     -39.294  49.381 -54.289  1.00  0.00    -0.293 OA
ENDBRANCH  37  40
ENDBRANCH  30  34
ENDBRANCH  27  28
ENDBRANCH   4  27
TORSDOF 9
ENDMDL
MODEL 3
REMARK VINA RESULT:      -8.5      3.786      8.049
REMARK  9 active torsions:
REMARK  status: ('A' for Active; 'I' for Inactive)
REMARK    1  A    between atoms: C_2  and  C_3 
REMARK    2  A    between atoms: C_3  and  C_4 
REMARK    3  A    between atoms: C_3  and  C_39 
REMARK    4  A    between atoms: C_6  and  C_7 
REMARK    5  A    between atoms: C_14  and  C_15 
REMARK    6  A    between atoms: C_18  and  C_19 
REMARK    7  A    between atoms: C_19  and  N_20 
REMARK       I    between atoms: N_20  and  C_21 
REMARK       I    between atoms: C_21  and  N_22 
REMARK    8  A    between atoms: N_22  and  C_23 
REMARK    9  A    between atoms: C_26  and  C_27 
ROOT
HETATM    1  C   UNL     1     -42.126  58.545 -53.229  1.00  0.00     0.068 C 
HETATM    2  C   UNL     1     -43.522  58.730 -52.570  1.00  0.00     0.001 C 
HETATM    3  C   UNL     1     -44.555  59.141 -53.647  1.00  0.00     0.040 C 
HETATM    4  C   UNL     1     -44.189  60.507 -54.255  1.00  0.00     0.206 C 
HETATM    5  N   UNL     1     -42.822  60.887 -53.695  1.00  0.00    -0.065 N 
HETATM    6  H   UNL     1     -42.509  61.746 -54.198  1.00  0.00     0.280 HD
HETATM    7  C   UNL     1     -41.747  59.844 -53.966  1.00  0.00     0.246 C 
HETATM    8  C   UNL     1     -43.415  59.882 -51.544  1.00  0.00     0.033 C 
HETATM    9  C   UNL     1     -42.922  61.167 -52.219  1.00  0.00     0.236 C 
ENDROOT
BRANCH   1  10
HETATM   10  C   UNL     1     -42.072  57.313 -54.110  1.00  0.00     0.045 A 
HETATM   11  N   UNL     1     -42.368  57.459 -55.417  1.00  0.00    -0.233 NA
HETATM   12  C   UNL     1     -42.376  56.341 -56.175  1.00  0.00     0.160 A 
HETATM   13  N   UNL     1     -42.172  55.104 -55.691  1.00  0.00    -0.233 NA
HETATM   14  C   UNL     1     -41.890  54.976 -54.378  1.00  0.00     0.043 A 
HETATM   15  C   UNL     1     -41.804  56.077 -53.549  1.00  0.00     0.055 A 
BRANCH  12  16
HETATM   16  C   UNL     1     -42.623  56.482 -57.620  1.00  0.00     0.014 A 
HETATM   17  C   UNL     1     -42.311  57.668 -58.301  1.00  0.00     0.034 A 
HETATM   18  C   UNL     1     -42.562  57.760 -59.661  1.00  0.00     0.117 A 
HETATM   19  N   UNL     1     -43.098  56.761 -60.390  1.00  0.00    -0.273 NA
HETATM   20  C   UNL     1     -43.413  55.632 -59.731  1.00  0.00     0.117 A 
HETATM   21  C   UNL     1     -43.197  55.447 -58.375  1.00  0.00     0.034 A 
ENDBRANCH  12  16
BRANCH  14  22
HETATM   22  C   UNL     1     -41.670  53.560 -53.874  1.00  0.00     0.037 C 
BRANCH  22  23
HETATM   23  C   UNL     1     -41.648  53.451 -52.332  1.00  0.00     0.006 C 
HETATM   24  C   UNL     1     -40.255  53.591 -51.731  1.00  0.00     0.006 C 
ENDBRANCH  22  23
BRANCH  22  25
HETATM   25  C   UNL     1     -40.379  52.951 -54.462  1.00  0.00     0.006 C 
HETATM   26  C   UNL     1     -40.346  51.428 -54.395  1.00  0.00     0.006 C 
ENDBRANCH  22  25
ENDBRANCH  14  22
ENDBRANCH   1  10
BRANCH   4  27
HETATM   27  C   UNL     1     -44.262  60.539 -55.805  1.00  0.00     0.157 C 
BRANCH  27  28
HETATM   28  N   UNL     1     -44.793  59.325 -56.433  1.00  0.00    -0.341 N 
HETATM   29  C   UNL     1     -45.618  59.370 -57.532  1.00  0.00     0.320 C 
HETATM   30  N   UNL     1     -45.852  58.129 -58.060  1.00  0.00    -0.309 N 
HETATM   31  O   UNL     1     -46.102  60.431 -57.914  1.00  0.00    -0.247 OA
HETATM   32  H   UNL     1     -45.647  57.337 -57.469  1.00  0.00     0.170 HD
HETATM   33  H   UNL     1     -44.169  58.527 -56.422  1.00  0.00     0.164 HD
BRANCH  30  34
HETATM   34  C   UNL     1     -46.555  57.850 -59.253  1.00  0.00     0.036 A 
HETATM   35  C   UNL     1     -46.794  56.554 -59.719  1.00  0.00     0.030 A 
HETATM   36  C   UNL     1     -47.495  56.338 -60.912  1.00  0.00     0.017 A 
HETATM   37  C   UNL     1     -47.971  57.421 -61.654  1.00  0.00     0.009 A 
HETATM   38  C   UNL     1     -47.752  58.719 -61.178  1.00  0.00     0.017 A 
HETATM   39  C   UNL     1     -47.055  58.932 -59.982  1.00  0.00     0.030 A 
BRANCH  37  40
HETATM   40  C   UNL     1     -48.708  57.243 -62.939  1.00  0.00     0.155 C 
HETATM   41  C   UNL     1     -49.639  58.330 -63.407  1.00  0.00     0.096 C 
HETATM   42  O   UNL     1     -48.545  56.216 -63.594  1.00  0.00    -0.293 OA
ENDBRANCH  37  40
ENDBRANCH  30  34
ENDBRANCH  27  28
ENDBRANCH   4  27
TORSDOF 9
ENDMDL
MODEL 4
REMARK VINA RESULT:      -8.5      2.485      6.790
REMARK  9 active torsions:
REMARK  status: ('A' for Active; 'I' for Inactive)
REMARK    1  A    between atoms: C_2  and  C_3 
REMARK    2  A    between atoms: C_3  and  C_4 
REMARK    3  A    between atoms: C_3  and  C_39 
REMARK    4  A    between atoms: C_6  and  C_7 
REMARK    5  A    between atoms: C_14  and  C_15 
REMARK    6  A    between atoms: C_18  and  C_19 
REMARK    7  A    between atoms: C_19  and  N_20 
REMARK       I    between atoms: N_20  and  C_21 
REMARK       I    between atoms: C_21  and  N_22 
REMARK    8  A    between atoms: N_22  and  C_23 
REMARK    9  A    between atoms: C_26  and  C_27 
ROOT
HETATM    1  C   UNL     1     -42.357  60.388 -54.697  1.00  0.00     0.068 C 
HETATM    2  C   UNL     1     -43.704  60.818 -55.345  1.00  0.00     0.001 C 
HETATM    3  C   UNL     1     -44.673  59.613 -55.379  1.00  0.00     0.040 C 
HETATM    4  C   UNL     1     -44.113  58.491 -56.273  1.00  0.00     0.206 C 
HETATM    5  N   UNL     1     -42.700  58.908 -56.667  1.00  0.00    -0.065 N 
HETATM    6  H   UNL     1     -42.267  58.099 -57.164  1.00  0.00     0.280 HD
HETATM    7  C   UNL     1     -41.795  59.181 -55.473  1.00  0.00     0.246 C 
HETATM    8  C   UNL     1     -43.416  61.244 -56.803  1.00  0.00     0.033 C 
HETATM    9  C   UNL     1     -42.743  60.105 -57.578  1.00  0.00     0.236 C 
ENDROOT
BRANCH   1  10
HETATM   10  C   UNL     1     -42.497  60.137 -53.209  1.00  0.00     0.045 A 
HETATM   11  N   UNL     1     -42.432  58.862 -52.776  1.00  0.00    -0.233 NA
HETATM   12  C   UNL     1     -42.621  58.652 -51.455  1.00  0.00     0.160 A 
HETATM   13  N   UNL     1     -42.928  59.620 -50.576  1.00  0.00    -0.233 NA
HETATM   14  C   UNL     1     -43.000  60.888 -51.030  1.00  0.00     0.043 A 
HETATM   15  C   UNL     1     -42.762  61.194 -52.356  1.00  0.00     0.055 A 
BRANCH  12  16
HETATM   16  C   UNL     1     -42.483  57.277 -50.944  1.00  0.00     0.014 A 
HETATM   17  C   UNL     1     -41.337  56.870 -50.244  1.00  0.00     0.034 A 
HETATM   18  C   UNL     1     -41.247  55.567 -49.782  1.00  0.00     0.117 A 
HETATM   19  N   UNL     1     -42.210  54.642 -49.965  1.00  0.00    -0.273 NA
HETATM   20  C   UNL     1     -43.299  55.029 -50.653  1.00  0.00     0.117 A 
HETATM   21  C   UNL     1     -43.479  56.310 -51.150  1.00  0.00     0.034 A 
ENDBRANCH  12  16
BRANCH  14  22
HETATM   22  C   UNL     1     -43.353  61.950 -50.003  1.00  0.00     0.037 C 
BRANCH  22  23
HETATM   23  C   UNL     1     -44.627  61.623 -49.190  1.00  0.00     0.006 C 
HETATM   24  C   UNL     1     -45.916  62.046 -49.883  1.00  0.00     0.006 C 
ENDBRANCH  22  23
BRANCH  22  25
HETATM   25  C   UNL     1     -43.492  63.340 -50.661  1.00  0.00     0.006 C 
HETATM   26  C   UNL     1     -42.921  64.469 -49.810  1.00  0.00     0.006 C 
ENDBRANCH  22  25
ENDBRANCH  14  22
ENDBRANCH   1  10
BRANCH   4  27
HETATM   27  C   UNL     1     -44.195  57.082 -55.629  1.00  0.00     0.157 C 
BRANCH  27  28
HETATM   28  N   UNL     1     -42.939  56.572 -55.074  1.00  0.00    -0.341 N 
HETATM   29  C   UNL     1     -42.819  55.291 -54.587  1.00  0.00     0.320 C 
HETATM   30  N   UNL     1     -41.525  54.967 -54.282  1.00  0.00    -0.309 N 
HETATM   31  O   UNL     1     -43.809  54.587 -54.417  1.00  0.00    -0.247 OA
HETATM   32  H   UNL     1     -40.875  55.734 -54.181  1.00  0.00     0.170 HD
HETATM   33  H   UNL     1     -42.099  56.919 -55.520  1.00  0.00     0.164 HD
BRANCH  30  34
HETATM   34  C   UNL     1     -41.056  53.697 -53.878  1.00  0.00     0.036 A 
HETATM   35  C   UNL     1     -41.130  52.558 -54.685  1.00  0.00     0.030 A 
HETATM   36  C   UNL     1     -40.650  51.324 -54.229  1.00  0.00     0.017 A 
HETATM   37  C   UNL     1     -40.084  51.215 -52.957  1.00  0.00     0.009 A 
HETATM   38  C   UNL     1     -39.989  52.360 -52.156  1.00  0.00     0.017 A 
HETATM   39  C   UNL     1     -40.465  53.594 -52.616  1.00  0.00     0.030 A 
BRANCH  37  40
HETATM   40  C   UNL     1     -39.575  49.919 -52.420  1.00  0.00     0.155 C 
HETATM   41  C   UNL     1     -39.479  49.731 -50.929  1.00  0.00     0.096 C 
HETATM   42  O   UNL     1     -39.242  49.029 -53.199  1.00  0.00    -0.293 OA
ENDBRANCH  37  40
ENDBRANCH  30  34
ENDBRANCH  27  28
ENDBRANCH   4  27
TORSDOF 9
ENDMDL
MODEL 5
REMARK VINA RESULT:      -8.5      1.053      3.870
REMARK  9 active torsions:
REMARK  status: ('A' for Active; 'I' for Inactive)
REMARK    1  A    between atoms: C_2  and  C_3 
REMARK    2  A    between atoms: C_3  and  C_4 
REMARK    3  A    between atoms: C_3  and  C_39 
REMARK    4  A    between atoms: C_6  and  C_7 
REMARK    5  A    between atoms: C_14  and  C_15 
REMARK    6  A    between atoms: C_18  and  C_19 
REMARK    7  A    between atoms: C_19  and  N_20 
REMARK       I    between atoms: N_20  and  C_21 
REMARK       I    between atoms: C_21  and  N_22 
REMARK    8  A    between atoms: N_22  and  C_23 
REMARK    9  A    between atoms: C_26  and  C_27 
ROOT
HETATM    1  C   UNL     1     -43.986  61.579 -54.854  1.00  0.00     0.068 C 
HETATM    2  C   UNL     1     -42.861  61.784 -53.799  1.00  0.00     0.001 C 
HETATM    3  C   UNL     1     -42.365  60.408 -53.294  1.00  0.00     0.040 C 
HETATM    4  C   UNL     1     -43.496  59.659 -52.566  1.00  0.00     0.206 C 
HETATM    5  N   UNL     1     -44.767  60.479 -52.763  1.00  0.00    -0.065 N 
HETATM    6  H   UNL     1     -45.559  59.917 -52.385  1.00  0.00     0.280 HD
HETATM    7  C   UNL     1     -45.106  60.725 -54.227  1.00  0.00     0.246 C 
HETATM    8  C   UNL     1     -43.467  62.546 -52.599  1.00  0.00     0.033 C 
HETATM    9  C   UNL     1     -44.666  61.785 -52.021  1.00  0.00     0.236 C 
ENDROOT
BRANCH   1  10
HETATM   10  C   UNL     1     -43.451  61.013 -56.153  1.00  0.00     0.045 A 
HETATM   11  N   UNL     1     -43.519  59.679 -56.335  1.00  0.00    -0.233 NA
HETATM   12  C   UNL     1     -42.980  59.185 -57.472  1.00  0.00     0.160 A 
HETATM   13  N   UNL     1     -42.335  59.932 -58.383  1.00  0.00    -0.233 NA
HETATM   14  C   UNL     1     -42.266  61.263 -58.179  1.00  0.00     0.043 A 
HETATM   15  C   UNL     1     -42.844  61.852 -57.071  1.00  0.00     0.055 A 
BRANCH  12  16
HETATM   16  C   UNL     1     -43.107  57.741 -57.730  1.00  0.00     0.014 A 
HETATM   17  C   UNL     1     -42.806  56.793 -56.741  1.00  0.00     0.034 A 
HETATM   18  C   UNL     1     -42.936  55.443 -57.026  1.00  0.00     0.117 A 
HETATM   19  N   UNL     1     -43.343  54.969 -58.220  1.00  0.00    -0.273 NA
HETATM   20  C   UNL     1     -43.614  55.879 -59.173  1.00  0.00     0.117 A 
HETATM   21  C   UNL     1     -43.515  57.248 -58.980  1.00  0.00     0.034 A 
ENDBRANCH  12  16
BRANCH  14  22
HETATM   22  C   UNL     1     -41.525  62.067 -59.233  1.00  0.00     0.037 C 
BRANCH  22  23
HETATM   23  C   UNL     1     -41.482  61.379 -60.617  1.00  0.00     0.006 C 
HETATM   24  C   UNL     1     -42.601  61.822 -61.552  1.00  0.00     0.006 C 
ENDBRANCH  22  23
BRANCH  22  25
HETATM   25  C   UNL     1     -40.093  62.409 -58.770  1.00  0.00     0.006 C 
HETATM   26  C   UNL     1     -39.339  63.300 -59.751  1.00  0.00     0.006 C 
ENDBRANCH  22  25
ENDBRANCH  14  22
ENDBRANCH   1  10
BRANCH   4  27
HETATM   27  C   UNL     1     -43.636  58.174 -52.994  1.00  0.00     0.157 C 
BRANCH  27  28
HETATM   28  N   UNL     1     -42.376  57.436 -53.120  1.00  0.00    -0.341 N 
HETATM   29  C   UNL     1     -42.302  56.075 -52.936  1.00  0.00     0.320 C 
HETATM   30  N   UNL     1     -41.076  55.568 -53.272  1.00  0.00    -0.309 N 
HETATM   31  O   UNL     1     -43.249  55.450 -52.468  1.00  0.00    -0.247 OA
HETATM   32  H   UNL     1     -40.314  56.228 -53.343  1.00  0.00     0.170 HD
HETATM   33  H   UNL     1     -41.739  57.788 -53.825  1.00  0.00     0.164 HD
BRANCH  30  34
HETATM   34  C   UNL     1     -40.720  54.202 -53.310  1.00  0.00     0.036 A 
HETATM   35  C   UNL     1     -40.655  53.457 -54.492  1.00  0.00     0.030 A 
HETATM   36  C   UNL     1     -40.298  52.103 -54.468  1.00  0.00     0.017 A 
HETATM   37  C   UNL     1     -39.997  51.476 -53.257  1.00  0.00     0.009 A 
HETATM   38  C   UNL     1     -40.040  52.226 -52.075  1.00  0.00     0.017 A 
HETATM   39  C   UNL     1     -40.392  53.581 -52.102  1.00  0.00     0.030 A 
BRANCH  37  40
HETATM   40  C   UNL     1     -39.629  50.032 -53.178  1.00  0.00     0.155 C 
HETATM   41  C   UNL     1     -39.518  49.378 -51.827  1.00  0.00     0.096 C 
HETATM   42  O   UNL     1     -39.422  49.402 -54.213  1.00  0.00    -0.293 OA
ENDBRANCH  37  40
ENDBRANCH  30  34
ENDBRANCH  27  28
ENDBRANCH   4  27
TORSDOF 9
ENDMDL
MODEL 6
REMARK VINA RESULT:      -8.3      2.280      4.614
REMARK  9 active torsions:
REMARK  status: ('A' for Active; 'I' for Inactive)
REMARK    1  A    between atoms: C_2  and  C_3 
REMARK    2  A    between atoms: C_3  and  C_4 
REMARK    3  A    between atoms: C_3  and  C_39 
REMARK    4  A    between atoms: C_6  and  C_7 
REMARK    5  A    between atoms: C_14  and  C_15 
REMARK    6  A    between atoms: C_18  and  C_19 
REMARK    7  A    between atoms: C_19  and  N_20 
REMARK       I    between atoms: N_20  and  C_21 
REMARK       I    between atoms: C_21  and  N_22 
REMARK    8  A    between atoms: N_22  and  C_23 
REMARK    9  A    between atoms: C_26  and  C_27 
ROOT
HETATM    1  C   UNL     1     -43.874  62.156 -52.336  1.00  0.00     0.068 C 
HETATM    2  C   UNL     1     -43.845  62.154 -50.782  1.00  0.00     0.001 C 
HETATM    3  C   UNL     1     -44.468  60.840 -50.252  1.00  0.00     0.040 C 
HETATM    4  C   UNL     1     -45.952  60.746 -50.647  1.00  0.00     0.206 C 
HETATM    5  N   UNL     1     -46.233  61.916 -51.585  1.00  0.00    -0.065 N 
HETATM    6  H   UNL     1     -47.198  61.788 -51.958  1.00  0.00     0.280 HD
HETATM    7  C   UNL     1     -45.326  61.942 -52.807  1.00  0.00     0.246 C 
HETATM    8  C   UNL     1     -44.716  63.331 -50.287  1.00  0.00     0.033 C 
HETATM    9  C   UNL     1     -46.143  63.219 -50.837  1.00  0.00     0.236 C 
ENDROOT
BRANCH   1  10
HETATM   10  C   UNL     1     -42.895  61.160 -52.925  1.00  0.00     0.045 A 
HETATM   11  N   UNL     1     -42.929  60.953 -54.257  1.00  0.00    -0.233 NA
HETATM   12  C   UNL     1     -42.093  60.017 -54.755  1.00  0.00     0.160 A 
HETATM   13  N   UNL     1     -41.290  59.248 -54.000  1.00  0.00    -0.233 NA
HETATM   14  C   UNL     1     -41.278  59.460 -52.668  1.00  0.00     0.043 A 
HETATM   15  C   UNL     1     -42.060  60.440 -52.088  1.00  0.00     0.055 A 
BRANCH  12  16
HETATM   16  C   UNL     1     -42.057  59.824 -56.215  1.00  0.00     0.014 A 
HETATM   17  C   UNL     1     -41.827  60.897 -57.087  1.00  0.00     0.034 A 
HETATM   18  C   UNL     1     -41.803  60.672 -58.455  1.00  0.00     0.117 A 
HETATM   19  N   UNL     1     -41.991  59.461 -59.015  1.00  0.00    -0.273 NA
HETATM   20  C   UNL     1     -42.229  58.436 -58.177  1.00  0.00     0.117 A 
HETATM   21  C   UNL     1     -42.269  58.564 -56.797  1.00  0.00     0.034 A 
ENDBRANCH  12  16
BRANCH  14  22
HETATM   22  C   UNL     1     -40.359  58.567 -51.854  1.00  0.00     0.037 C 
BRANCH  22  23
HETATM   23  C   UNL     1     -40.969  58.121 -50.505  1.00  0.00     0.006 C 
HETATM   24  C   UNL     1     -40.795  56.634 -50.220  1.00  0.00     0.006 C 
ENDBRANCH  22  23
BRANCH  22  25
HETATM   25  C   UNL     1     -38.991  59.242 -51.616  1.00  0.00     0.006 C 
HETATM   26  C   UNL     1     -38.856  59.855 -50.226  1.00  0.00     0.006 C 
ENDBRANCH  22  25
ENDBRANCH  14  22
ENDBRANCH   1  10
BRANCH   4  27
HETATM   27  C   UNL     1     -46.356  59.365 -51.229  1.00  0.00     0.157 C 
BRANCH  27  28
HETATM   28  N   UNL     1     -45.388  58.766 -52.152  1.00  0.00    -0.341 N 
HETATM   29  C   UNL     1     -44.602  57.695 -51.797  1.00  0.00     0.320 C 
HETATM   30  N   UNL     1     -43.902  57.186 -52.856  1.00  0.00    -0.309 N 
HETATM   31  O   UNL     1     -44.537  57.321 -50.629  1.00  0.00    -0.247 OA
HETATM   32  H   UNL     1     -43.817  57.777 -53.671  1.00  0.00     0.170 HD
HETATM   33  H   UNL     1     -45.668  58.762 -53.125  1.00  0.00     0.164 HD
BRANCH  30  34
HETATM   34  C   UNL     1     -43.105  56.020 -52.847  1.00  0.00     0.036 A 
HETATM   35  C   UNL     1     -43.358  54.923 -52.018  1.00  0.00     0.030 A 
HETATM   36  C   UNL     1     -42.530  53.794 -52.051  1.00  0.00     0.017 A 
HETATM   37  C   UNL     1     -41.438  53.747 -52.920  1.00  0.00     0.009 A 
HETATM   38  C   UNL     1     -41.196  54.836 -53.766  1.00  0.00     0.017 A 
HETATM   39  C   UNL     1     -42.028  55.962 -53.735  1.00  0.00     0.030 A 
BRANCH  37  40
HETATM   40  C   UNL     1     -40.517  52.574 -52.979  1.00  0.00     0.155 C 
HETATM   41  C   UNL     1     -40.317  51.865 -54.292  1.00  0.00     0.096 C 
HETATM   42  O   UNL     1     -39.939  52.206 -51.959  1.00  0.00    -0.293 OA
ENDBRANCH  37  40
ENDBRANCH  30  34
ENDBRANCH  27  28
ENDBRANCH   4  27
TORSDOF 9
ENDMDL
MODEL 7
REMARK VINA RESULT:      -8.3      3.551      7.636
REMARK  9 active torsions:
REMARK  status: ('A' for Active; 'I' for Inactive)
REMARK    1  A    between atoms: C_2  and  C_3 
REMARK    2  A    between atoms: C_3  and  C_4 
REMARK    3  A    between atoms: C_3  and  C_39 
REMARK    4  A    between atoms: C_6  and  C_7 
REMARK    5  A    between atoms: C_14  and  C_15 
REMARK    6  A    between atoms: C_18  and  C_19 
REMARK    7  A    between atoms: C_19  and  N_20 
REMARK       I    between atoms: N_20  and  C_21 
REMARK       I    between atoms: C_21  and  N_22 
REMARK    8  A    between atoms: N_22  and  C_23 
REMARK    9  A    between atoms: C_26  and  C_27 
ROOT
HETATM    1  C   UNL     1     -41.045  58.184 -52.789  1.00  0.00     0.068 C 
HETATM    2  C   UNL     1     -41.226  57.862 -51.279  1.00  0.00     0.001 C 
HETATM    3  C   UNL     1     -42.721  57.595 -50.979  1.00  0.00     0.040 C 
HETATM    4  C   UNL     1     -43.561  58.857 -51.246  1.00  0.00     0.206 C 
HETATM    5  N   UNL     1     -42.628  59.878 -51.889  1.00  0.00    -0.065 N 
HETATM    6  H   UNL     1     -43.216  60.686 -52.190  1.00  0.00     0.280 HD
HETATM    7  C   UNL     1     -41.958  59.370 -53.158  1.00  0.00     0.246 C 
HETATM    8  C   UNL     1     -40.790  59.106 -50.471  1.00  0.00     0.033 C 
HETATM    9  C   UNL     1     -41.595  60.339 -50.897  1.00  0.00     0.236 C 
ENDROOT
BRANCH   1  10
HETATM   10  C   UNL     1     -41.262  56.963 -53.660  1.00  0.00     0.045 A 
HETATM   11  N   UNL     1     -41.841  57.141 -54.865  1.00  0.00    -0.233 NA
HETATM   12  C   UNL     1     -42.082  56.035 -55.601  1.00  0.00     0.160 A 
HETATM   13  N   UNL     1     -41.839  54.783 -55.178  1.00  0.00    -0.233 NA
HETATM   14  C   UNL     1     -41.271  54.623 -53.965  1.00  0.00     0.043 A 
HETATM   15  C   UNL     1     -40.939  55.707 -53.177  1.00  0.00     0.055 A 
BRANCH  12  16
HETATM   16  C   UNL     1     -42.646  56.208 -56.951  1.00  0.00     0.014 A 
HETATM   17  C   UNL     1     -42.618  57.451 -57.599  1.00  0.00     0.034 A 
HETATM   18  C   UNL     1     -43.161  57.571 -58.869  1.00  0.00     0.117 A 
HETATM   19  N   UNL     1     -43.729  56.548 -59.537  1.00  0.00    -0.273 NA
HETATM   20  C   UNL     1     -43.770  55.361 -58.906  1.00  0.00     0.117 A 
HETATM   21  C   UNL     1     -43.251  55.145 -57.639  1.00  0.00     0.034 A 
ENDBRANCH  12  16
BRANCH  14  22
HETATM   22  C   UNL     1     -41.018  53.191 -53.526  1.00  0.00     0.037 C 
BRANCH  22  23
HETATM   23  C   UNL     1     -40.162  53.082 -52.243  1.00  0.00     0.006 C 
HETATM   24  C   UNL     1     -40.988  52.911 -50.974  1.00  0.00     0.006 C 
ENDBRANCH  22  23
BRANCH  22  25
HETATM   25  C   UNL     1     -40.374  52.365 -54.660  1.00  0.00     0.006 C 
HETATM   26  C   UNL     1     -40.166  50.899 -54.293  1.00  0.00     0.006 C 
ENDBRANCH  22  25
ENDBRANCH  14  22
ENDBRANCH   1  10
BRANCH   4  27
HETATM   27  C   UNL     1     -44.852  58.584 -52.063  1.00  0.00     0.157 C 
BRANCH  27  28
HETATM   28  N   UNL     1     -44.986  59.357 -53.301  1.00  0.00    -0.341 N 
HETATM   29  C   UNL     1     -45.222  58.759 -54.516  1.00  0.00     0.320 C 
HETATM   30  N   UNL     1     -45.487  59.669 -55.504  1.00  0.00    -0.309 N 
HETATM   31  O   UNL     1     -45.136  57.542 -54.646  1.00  0.00    -0.247 OA
HETATM   32  H   UNL     1     -45.221  60.626 -55.323  1.00  0.00     0.170 HD
HETATM   33  H   UNL     1     -45.429  60.262 -53.197  1.00  0.00     0.164 HD
BRANCH  30  34
HETATM   34  C   UNL     1     -45.886  59.372 -56.826  1.00  0.00     0.036 A 
HETATM   35  C   UNL     1     -45.637  60.217 -57.912  1.00  0.00     0.030 A 
HETATM   36  C   UNL     1     -46.060  59.871 -59.201  1.00  0.00     0.017 A 
HETATM   37  C   UNL     1     -46.735  58.669 -59.421  1.00  0.00     0.009 A 
HETATM   38  C   UNL     1     -46.966  57.811 -58.339  1.00  0.00     0.017 A 
HETATM   39  C   UNL     1     -46.538  58.157 -57.051  1.00  0.00     0.030 A 
BRANCH  37  40
HETATM   40  C   UNL     1     -47.221  58.264 -60.773  1.00  0.00     0.155 C 
HETATM   41  C   UNL     1     -47.704  59.325 -61.726  1.00  0.00     0.096 C 
HETATM   42  O   UNL     1     -47.220  57.076 -61.087  1.00  0.00    -0.293 OA
ENDBRANCH  37  40
ENDBRANCH  30  34
ENDBRANCH  27  28
ENDBRANCH   4  27
TORSDOF 9
ENDMDL
MODEL 8
REMARK VINA RESULT:      -8.2      2.677      3.753
REMARK  9 active torsions:
REMARK  status: ('A' for Active; 'I' for Inactive)
REMARK    1  A    between atoms: C_2  and  C_3 
REMARK    2  A    between atoms: C_3  and  C_4 
REMARK    3  A    between atoms: C_3  and  C_39 
REMARK    4  A    between atoms: C_6  and  C_7 
REMARK    5  A    between atoms: C_14  and  C_15 
REMARK    6  A    between atoms: C_18  and  C_19 
REMARK    7  A    between atoms: C_19  and  N_20 
REMARK       I    between atoms: N_20  and  C_21 
REMARK       I    between atoms: C_21  and  N_22 
REMARK    8  A    between atoms: N_22  and  C_23 
REMARK    9  A    between atoms: C_26  and  C_27 
ROOT
HETATM    1  C   UNL     1     -45.144  59.944 -52.482  1.00  0.00     0.068 C 
HETATM    2  C   UNL     1     -44.776  61.454 -52.526  1.00  0.00     0.001 C 
HETATM    3  C   UNL     1     -43.281  61.636 -52.168  1.00  0.00     0.040 C 
HETATM    4  C   UNL     1     -43.010  61.177 -50.724  1.00  0.00     0.206 C 
HETATM    5  N   UNL     1     -44.297  60.532 -50.218  1.00  0.00    -0.065 N 
HETATM    6  H   UNL     1     -44.085  60.105 -49.291  1.00  0.00     0.280 HD
HETATM    7  C   UNL     1     -44.782  59.384 -51.092  1.00  0.00     0.246 C 
HETATM    8  C   UNL     1     -45.618  62.181 -51.453  1.00  0.00     0.033 C 
HETATM    9  C   UNL     1     -45.377  61.570 -50.068  1.00  0.00     0.236 C 
ENDROOT
BRANCH   1  10
HETATM   10  C   UNL     1     -44.516  59.172 -53.625  1.00  0.00     0.045 A 
HETATM   11  N   UNL     1     -44.663  59.662 -54.873  1.00  0.00    -0.233 NA
HETATM   12  C   UNL     1     -44.150  58.929 -55.885  1.00  0.00     0.160 A 
HETATM   13  N   UNL     1     -43.570  57.729 -55.725  1.00  0.00    -0.233 NA
HETATM   14  C   UNL     1     -43.442  57.249 -54.471  1.00  0.00     0.043 A 
HETATM   15  C   UNL     1     -43.887  57.965 -53.377  1.00  0.00     0.055 A 
BRANCH  12  16
HETATM   16  C   UNL     1     -44.233  59.477 -57.250  1.00  0.00     0.014 A 
HETATM   17  C   UNL     1     -44.304  58.638 -58.371  1.00  0.00     0.034 A 
HETATM   18  C   UNL     1     -44.378  59.195 -59.638  1.00  0.00     0.117 A 
HETATM   19  N   UNL     1     -44.386  60.522 -59.870  1.00  0.00    -0.273 NA
HETATM   20  C   UNL     1     -44.299  61.326 -58.794  1.00  0.00     0.117 A 
HETATM   21  C   UNL     1     -44.224  60.861 -57.491  1.00  0.00     0.034 A 
ENDBRANCH  12  16
BRANCH  14  22
HETATM   22  C   UNL     1     -42.783  55.887 -54.337  1.00  0.00     0.037 C 
BRANCH  22  23
HETATM   23  C   UNL     1     -41.565  55.697 -55.271  1.00  0.00     0.006 C 
HETATM   24  C   UNL     1     -40.311  55.223 -54.546  1.00  0.00     0.006 C 
ENDBRANCH  22  23
BRANCH  22  25
HETATM   25  C   UNL     1     -43.801  54.749 -54.561  1.00  0.00     0.006 C 
HETATM   26  C   UNL     1     -43.347  53.731 -55.602  1.00  0.00     0.006 C 
ENDBRANCH  22  25
ENDBRANCH  14  22
ENDBRANCH   1  10
BRANCH   4  27
HETATM   27  C   UNL     1     -41.758  60.272 -50.582  1.00  0.00     0.157 C 
BRANCH  27  28
HETATM   28  N   UNL     1     -42.022  58.900 -50.136  1.00  0.00    -0.341 N 
HETATM   29  C   UNL     1     -41.494  57.806 -50.779  1.00  0.00     0.320 C 
HETATM   30  N   UNL     1     -41.720  56.640 -50.099  1.00  0.00    -0.309 N 
HETATM   31  O   UNL     1     -40.939  57.922 -51.868  1.00  0.00    -0.247 OA
HETATM   32  H   UNL     1     -42.443  56.658 -49.394  1.00  0.00     0.170 HD
HETATM   33  H   UNL     1     -42.109  58.783 -49.134  1.00  0.00     0.164 HD
BRANCH  30  34
HETATM   34  C   UNL     1     -41.205  55.367 -50.431  1.00  0.00     0.036 A 
HETATM   35  C   UNL     1     -40.000  54.870 -49.926  1.00  0.00     0.030 A 
HETATM   36  C   UNL     1     -39.538  53.600 -50.294  1.00  0.00     0.017 A 
HETATM   37  C   UNL     1     -40.283  52.807 -51.170  1.00  0.00     0.009 A 
HETATM   38  C   UNL     1     -41.501  53.295 -51.659  1.00  0.00     0.017 A 
HETATM   39  C   UNL     1     -41.962  54.563 -51.286  1.00  0.00     0.030 A 
BRANCH  37  40
HETATM   40  C   UNL     1     -39.825  51.455 -51.605  1.00  0.00     0.155 C 
HETATM   41  C   UNL     1     -39.545  51.210 -53.064  1.00  0.00     0.096 C 
HETATM   42  O   UNL     1     -39.685  50.565 -50.769  1.00  0.00    -0.293 OA
ENDBRANCH  37  40
ENDBRANCH  30  34
ENDBRANCH  27  28
ENDBRANCH   4  27
TORSDOF 9
ENDMDL
MODEL 9
REMARK VINA RESULT:      -8.2      3.178      8.369
REMARK  9 active torsions:
REMARK  status: ('A' for Active; 'I' for Inactive)
REMARK    1  A    between atoms: C_2  and  C_3 
REMARK    2  A    between atoms: C_3  and  C_4 
REMARK    3  A    between atoms: C_3  and  C_39 
REMARK    4  A    between atoms: C_6  and  C_7 
REMARK    5  A    between atoms: C_14  and  C_15 
REMARK    6  A    between atoms: C_18  and  C_19 
REMARK    7  A    between atoms: C_19  and  N_20 
REMARK       I    between atoms: N_20  and  C_21 
REMARK       I    between atoms: C_21  and  N_22 
REMARK    8  A    between atoms: N_22  and  C_23 
REMARK    9  A    between atoms: C_26  and  C_27 
ROOT
HETATM    1  C   UNL     1     -42.035  58.701 -53.738  1.00  0.00     0.068 C 
HETATM    2  C   UNL     1     -43.260  58.855 -52.792  1.00  0.00     0.001 C 
HETATM    3  C   UNL     1     -44.541  59.072 -53.633  1.00  0.00     0.040 C 
HETATM    4  C   UNL     1     -44.452  60.388 -54.427  1.00  0.00     0.206 C 
HETATM    5  N   UNL     1     -43.037  60.923 -54.234  1.00  0.00    -0.065 N 
HETATM    6  H   UNL     1     -42.928  61.743 -54.869  1.00  0.00     0.280 HD
HETATM    7  C   UNL     1     -41.955  59.938 -54.654  1.00  0.00     0.246 C 
HETATM    8  C   UNL     1     -43.037  60.115 -51.924  1.00  0.00     0.033 C 
HETATM    9  C   UNL     1     -42.831  61.352 -52.806  1.00  0.00     0.236 C 
ENDROOT
BRANCH   1  10
HETATM   10  C   UNL     1     -42.063  57.389 -54.495  1.00  0.00     0.045 A 
HETATM   11  N   UNL     1     -42.438  57.416 -55.790  1.00  0.00    -0.233 NA
HETATM   12  C   UNL     1     -42.516  56.230 -56.432  1.00  0.00     0.160 A 
HETATM   13  N   UNL     1     -42.308  55.042 -55.843  1.00  0.00    -0.233 NA
HETATM   14  C   UNL     1     -41.946  55.033 -54.544  1.00  0.00     0.043 A 
HETATM   15  C   UNL     1     -41.785  56.207 -53.833  1.00  0.00     0.055 A 
BRANCH  12  16
HETATM   16  C   UNL     1     -42.852  56.238 -57.866  1.00  0.00     0.014 A 
HETATM   17  C   UNL     1     -43.641  55.229 -58.437  1.00  0.00     0.034 A 
HETATM   18  C   UNL     1     -43.932  55.273 -59.791  1.00  0.00     0.117 A 
HETATM   19  N   UNL     1     -43.496  56.245 -60.617  1.00  0.00    -0.273 NA
HETATM   20  C   UNL     1     -42.723  57.202 -60.071  1.00  0.00     0.117 A 
HETATM   21  C   UNL     1     -42.382  57.242 -58.728  1.00  0.00     0.034 A 
ENDBRANCH  12  16
BRANCH  14  22
HETATM   22  C   UNL     1     -41.724  53.667 -53.917  1.00  0.00     0.037 C 
BRANCH  22  23
HETATM   23  C   UNL     1     -41.799  53.678 -52.373  1.00  0.00     0.006 C 
HETATM   24  C   UNL     1     -43.190  53.988 -51.833  1.00  0.00     0.006 C 
ENDBRANCH  22  23
BRANCH  22  25
HETATM   25  C   UNL     1     -40.383  53.054 -54.374  1.00  0.00     0.006 C 
HETATM   26  C   UNL     1     -40.356  51.532 -54.291  1.00  0.00     0.006 C 
ENDBRANCH  22  25
ENDBRANCH  14  22
ENDBRANCH   1  10
BRANCH   4  27
HETATM   27  C   UNL     1     -44.872  60.247 -55.914  1.00  0.00     0.157 C 
BRANCH  27  28
HETATM   28  N   UNL     1     -43.777  59.989 -56.854  1.00  0.00    -0.341 N 
HETATM   29  C   UNL     1     -43.327  60.944 -57.734  1.00  0.00     0.320 C 
HETATM   30  N   UNL     1     -42.191  60.556 -58.392  1.00  0.00    -0.309 N 
HETATM   31  O   UNL     1     -43.951  61.987 -57.907  1.00  0.00    -0.247 OA
HETATM   32  H   UNL     1     -41.973  59.569 -58.379  1.00  0.00     0.170 HD
HETATM   33  H   UNL     1     -43.048  59.377 -56.507  1.00  0.00     0.164 HD
BRANCH  30  34
HETATM   34  C   UNL     1     -41.419  61.353 -59.266  1.00  0.00     0.036 A 
HETATM   35  C   UNL     1     -41.604  61.375 -60.651  1.00  0.00     0.030 A 
HETATM   36  C   UNL     1     -40.804  62.184 -61.468  1.00  0.00     0.017 A 
HETATM   37  C   UNL     1     -39.810  62.987 -60.907  1.00  0.00     0.009 A 
HETATM   38  C   UNL     1     -39.638  62.982 -59.517  1.00  0.00     0.017 A 
HETATM   39  C   UNL     1     -40.441  62.176 -58.701  1.00  0.00     0.030 A 
BRANCH  37  40
HETATM   40  C   UNL     1     -38.921  63.852 -61.737  1.00  0.00     0.155 C 
HETATM   41  C   UNL     1     -37.944  64.770 -61.051  1.00  0.00     0.096 C 
HETATM   42  O   UNL     1     -39.002  63.804 -62.962  1.00  0.00    -0.293 OA
ENDBRANCH  37  40
ENDBRANCH  30  34
ENDBRANCH  27  28
ENDBRANCH   4  27
TORSDOF 9
ENDMDL
MODEL 10
REMARK VINA RESULT:      -8.1      1.989      4.639
REMARK  9 active torsions:
REMARK  status: ('A' for Active; 'I' for Inactive)
REMARK    1  A    between atoms: C_2  and  C_3 
REMARK    2  A    between atoms: C_3  and  C_4 
REMARK    3  A    between atoms: C_3  and  C_39 
REMARK    4  A    between atoms: C_6  and  C_7 
REMARK    5  A    between atoms: C_14  and  C_15 
REMARK    6  A    between atoms: C_18  and  C_19 
REMARK    7  A    between atoms: C_19  and  N_20 
REMARK       I    between atoms: N_20  and  C_21 
REMARK       I    between atoms: C_21  and  N_22 
REMARK    8  A    between atoms: N_22  and  C_23 
REMARK    9  A    between atoms: C_26  and  C_27 
ROOT
HETATM    1  C   UNL     1     -45.292  61.520 -57.301  1.00  0.00     0.068 C 
HETATM    2  C   UNL     1     -44.335  62.136 -56.241  1.00  0.00     0.001 C 
HETATM    3  C   UNL     1     -43.720  61.009 -55.378  1.00  0.00     0.040 C 
HETATM    4  C   UNL     1     -44.815  60.274 -54.584  1.00  0.00     0.206 C 
HETATM    5  N   UNL     1     -46.154  60.816 -55.076  1.00  0.00    -0.065 N 
HETATM    6  H   UNL     1     -46.902  60.235 -54.638  1.00  0.00     0.280 HD
HETATM    7  C   UNL     1     -46.351  60.664 -56.578  1.00  0.00     0.246 C 
HETATM    8  C   UNL     1     -45.174  63.046 -55.314  1.00  0.00     0.033 C 
HETATM    9  C   UNL     1     -46.317  62.255 -54.667  1.00  0.00     0.236 C 
ENDROOT
BRANCH   1  10
HETATM   10  C   UNL     1     -44.537  60.766 -58.377  1.00  0.00     0.045 A 
HETATM   11  N   UNL     1     -44.838  59.465 -58.564  1.00  0.00    -0.233 NA
HETATM   12  C   UNL     1     -44.113  58.792 -59.483  1.00  0.00     0.160 A 
HETATM   13  N   UNL     1     -43.083  59.323 -60.163  1.00  0.00    -0.233 NA
HETATM   14  C   UNL     1     -42.789  60.623 -59.955  1.00  0.00     0.043 A 
HETATM   15  C   UNL     1     -43.522  61.395 -59.075  1.00  0.00     0.055 A 
BRANCH  12  16
HETATM   16  C   UNL     1     -44.470  57.390 -59.760  1.00  0.00     0.014 A 
HETATM   17  C   UNL     1     -45.767  57.031 -60.155  1.00  0.00     0.034 A 
HETATM   18  C   UNL     1     -46.061  55.700 -60.404  1.00  0.00     0.117 A 
HETATM   19  N   UNL     1     -45.162  54.703 -60.287  1.00  0.00    -0.273 NA
HETATM   20  C   UNL     1     -43.924  55.047 -59.889  1.00  0.00     0.117 A 
HETATM   21  C   UNL     1     -43.537  56.350 -59.621  1.00  0.00     0.034 A 
ENDBRANCH  12  16
BRANCH  14  22
HETATM   22  C   UNL     1     -41.616  61.180 -60.742  1.00  0.00     0.037 C 
BRANCH  22  23
HETATM   23  C   UNL     1     -41.053  62.498 -60.160  1.00  0.00     0.006 C 
HETATM   24  C   UNL     1     -40.112  62.288 -58.980  1.00  0.00     0.006 C 
ENDBRANCH  22  23
BRANCH  22  25
HETATM   25  C   UNL     1     -41.983  61.377 -62.228  1.00  0.00     0.006 C 
HETATM   26  C   UNL     1     -41.412  62.658 -62.826  1.00  0.00     0.006 C 
ENDBRANCH  22  25
ENDBRANCH  14  22
ENDBRANCH   1  10
BRANCH   4  27
HETATM   27  C   UNL     1     -44.702  58.728 -54.649  1.00  0.00     0.157 C 
BRANCH  27  28
HETATM   28  N   UNL     1     -43.367  58.185 -54.383  1.00  0.00    -0.341 N 
HETATM   29  C   UNL     1     -43.158  56.854 -54.107  1.00  0.00     0.320 C 
HETATM   30  N   UNL     1     -41.830  56.531 -54.065  1.00  0.00    -0.309 N 
HETATM   31  O   UNL     1     -44.102  56.103 -53.878  1.00  0.00    -0.247 OA
HETATM   32  H   UNL     1     -41.178  57.296 -53.965  1.00  0.00     0.170 HD
HETATM   33  H   UNL     1     -42.615  58.616 -54.908  1.00  0.00     0.164 HD
BRANCH  30  34
HETATM   34  C   UNL     1     -41.291  55.233 -53.925  1.00  0.00     0.036 A 
HETATM   35  C   UNL     1     -40.718  54.520 -54.982  1.00  0.00     0.030 A 
HETATM   36  C   UNL     1     -40.202  53.233 -54.783  1.00  0.00     0.017 A 
HETATM   37  C   UNL     1     -40.249  52.644 -53.518  1.00  0.00     0.009 A 
HETATM   38  C   UNL     1     -40.802  53.365 -52.453  1.00  0.00     0.017 A 
HETATM   39  C   UNL     1     -41.314  54.653 -52.654  1.00  0.00     0.030 A 
BRANCH  37  40
HETATM   40  C   UNL     1     -39.728  51.269 -53.260  1.00  0.00     0.155 C 
HETATM   41  C   UNL     1     -39.800  50.241 -54.358  1.00  0.00     0.096 C 
HETATM   42  O   UNL     1     -39.252  50.999 -52.160  1.00  0.00    -0.293 OA
ENDBRANCH  37  40
ENDBRANCH  30  34
ENDBRANCH  27  28
ENDBRANCH   4  27
TORSDOF 9
ENDMDL
