MODEL 1
REMARK VINA RESULT:      -7.6      0.000      0.000
REMARK  7 active torsions:
REMARK  status: ('A' for Active; 'I' for Inactive)
REMARK    1  A    between atoms: O_2  and  C_3 
REMARK    2  A    between atoms: C_4  and  C_5 
REMARK    3  A    between atoms: C_5  and  N_6 
REMARK    4  A    between atoms: N_6  and  C_7 
REMARK    5  A    between atoms: C_9  and  N_10 
REMARK    6  A    between atoms: N_10  and  C_11 
REMARK    7  A    between atoms: C_11  and  C_12 
ROOT
HETATM    1  C   UNL     1     -42.683  54.614 -54.503  1.00  0.00     0.181 A 
HETATM    2  N   UNL     1     -42.417  55.314 -53.396  1.00  0.00    -0.207 NA
HETATM    3  C   UNL     1     -41.565  54.754 -52.517  1.00  0.00     0.119 A 
HETATM    4  C   UNL     1     -40.910  53.527 -52.765  1.00  0.00     0.031 A 
HETATM    5  C   UNL     1     -41.246  52.871 -53.965  1.00  0.00     0.048 A 
HETATM    6  N   UNL     1     -42.129  53.443 -54.787  1.00  0.00    -0.330 N 
HETATM    7  H   UNL     1     -42.404  53.026 -55.667  1.00  0.00     0.168 HD
HETATM    8  C   UNL     1     -39.936  52.923 -51.938  1.00  0.00     0.017 A 
HETATM    9  C   UNL     1     -39.356  51.699 -52.281  1.00  0.00     0.001 A 
HETATM   10  C   UNL     1     -39.724  51.056 -53.459  1.00  0.00     0.002 A 
HETATM   11  C   UNL     1     -40.663  51.643 -54.306  1.00  0.00     0.030 A 
ENDROOT
BRANCH   1  12
HETATM   12  N   UNL     1     -43.582  55.091 -55.454  1.00  0.00    -0.258 NA
HETATM   13  H   UNL     1     -43.330  54.606 -56.323  1.00  0.00     0.130 HD
BRANCH  12  14
HETATM   14  C   UNL     1     -43.271  56.507 -55.751  1.00  0.00     0.136 C 
BRANCH  14  15
HETATM   15  C   UNL     1     -42.859  56.679 -57.197  1.00  0.00    -0.012 A 
HETATM   16  C   UNL     1     -42.303  57.899 -57.636  1.00  0.00     0.075 A 
HETATM   17  C   UNL     1     -42.024  58.086 -58.995  1.00  0.00     0.037 A 
HETATM   18  C   UNL     1     -42.294  57.077 -59.920  1.00  0.00     0.003 A 
HETATM   19  C   UNL     1     -42.844  55.872 -59.497  1.00  0.00     0.001 A 
HETATM   20  C   UNL     1     -43.131  55.677 -58.148  1.00  0.00     0.011 A 
BRANCH  16  21
HETATM   21  O   UNL     1     -42.096  58.845 -56.666  1.00  0.00    -0.355 OA
HETATM   22  C   UNL     1     -42.657  60.137 -56.884  1.00  0.00     0.210 C 
ENDBRANCH  16  21
ENDBRANCH  14  15
ENDBRANCH  12  14
ENDBRANCH   1  12
BRANCH   3  23
HETATM   23  N   UNL     1     -41.392  55.491 -51.344  1.00  0.00    -0.273 NA
HETATM   24  H   UNL     1     -41.744  56.427 -51.553  1.00  0.00     0.129 HD
BRANCH  23  25
HETATM   25  C   UNL     1     -42.110  54.954 -50.186  1.00  0.00     0.120 C 
BRANCH  25  26
HETATM   26  C   UNL     1     -41.192  55.025 -49.004  1.00  0.00    -0.022 C 
HETATM   27  C   UNL     1     -40.575  53.973 -48.451  1.00  0.00     0.008 C 
ENDBRANCH  25  26
ENDBRANCH  23  25
ENDBRANCH   3  23
TORSDOF 7
ENDMDL
MODEL 2
REMARK VINA RESULT:      -7.6      2.223      7.380
REMARK  7 active torsions:
REMARK  status: ('A' for Active; 'I' for Inactive)
REMARK    1  A    between atoms: O_2  and  C_3 
REMARK    2  A    between atoms: C_4  and  C_5 
REMARK    3  A    between atoms: C_5  and  N_6 
REMARK    4  A    between atoms: N_6  and  C_7 
REMARK    5  A    between atoms: C_9  and  N_10 
REMARK    6  A    between atoms: N_10  and  C_11 
REMARK    7  A    between atoms: C_11  and  C_12 
ROOT
HETATM    1  C   UNL     1     -42.131  54.695 -54.957  1.00  0.00     0.181 A 
HETATM    2  N   UNL     1     -42.901  55.128 -55.960  1.00  0.00    -0.207 NA
HETATM    3  C   UNL     1     -43.052  56.461 -56.075  1.00  0.00     0.119 A 
HETATM    4  C   UNL     1     -42.378  57.380 -55.240  1.00  0.00     0.031 A 
HETATM    5  C   UNL     1     -41.579  56.827 -54.220  1.00  0.00     0.048 A 
HETATM    6  N   UNL     1     -41.494  55.498 -54.117  1.00  0.00    -0.330 N 
HETATM    7  H   UNL     1     -40.930  55.042 -53.412  1.00  0.00     0.168 HD
HETATM    8  C   UNL     1     -42.411  58.788 -55.357  1.00  0.00     0.017 A 
HETATM    9  C   UNL     1     -41.706  59.602 -54.466  1.00  0.00     0.001 A 
HETATM   10  C   UNL     1     -40.945  59.034 -53.449  1.00  0.00     0.002 A 
HETATM   11  C   UNL     1     -40.874  57.647 -53.328  1.00  0.00     0.030 A 
ENDROOT
BRANCH   1  12
HETATM   12  N   UNL     1     -41.946  53.333 -54.731  1.00  0.00    -0.258 NA
HETATM   13  H   UNL     1     -42.265  53.180 -53.768  1.00  0.00     0.130 HD
BRANCH  12  14
HETATM   14  C   UNL     1     -40.496  53.044 -54.662  1.00  0.00     0.136 C 
BRANCH  14  15
HETATM   15  C   UNL     1     -40.206  51.976 -53.630  1.00  0.00    -0.012 A 
HETATM   16  C   UNL     1     -40.053  52.325 -52.272  1.00  0.00     0.075 A 
HETATM   17  C   UNL     1     -39.679  51.348 -51.342  1.00  0.00     0.037 A 
HETATM   18  C   UNL     1     -39.455  50.032 -51.747  1.00  0.00     0.003 A 
HETATM   19  C   UNL     1     -39.601  49.679 -53.084  1.00  0.00     0.001 A 
HETATM   20  C   UNL     1     -39.967  50.644 -54.019  1.00  0.00     0.011 A 
BRANCH  16  21
HETATM   21  O   UNL     1     -40.267  53.644 -51.965  1.00  0.00    -0.355 OA
HETATM   22  C   UNL     1     -41.036  53.925 -50.799  1.00  0.00     0.210 C 
ENDBRANCH  16  21
ENDBRANCH  14  15
ENDBRANCH  12  14
ENDBRANCH   1  12
BRANCH   3  23
HETATM   23  N   UNL     1     -43.933  56.849 -57.087  1.00  0.00    -0.273 NA
HETATM   24  H   UNL     1     -43.968  57.869 -57.043  1.00  0.00     0.129 HD
BRANCH  23  25
HETATM   25  C   UNL     1     -43.521  56.439 -58.430  1.00  0.00     0.120 C 
BRANCH  25  26
HETATM   26  C   UNL     1     -42.599  57.491 -58.969  1.00  0.00    -0.022 C 
HETATM   27  C   UNL     1     -41.890  57.380 -60.099  1.00  0.00     0.008 C 
ENDBRANCH  25  26
ENDBRANCH  23  25
ENDBRANCH   3  23
TORSDOF 7
ENDMDL
MODEL 3
REMARK VINA RESULT:      -7.6      1.323      2.077
REMARK  7 active torsions:
REMARK  status: ('A' for Active; 'I' for Inactive)
REMARK    1  A    between atoms: O_2  and  C_3 
REMARK    2  A    between atoms: C_4  and  C_5 
REMARK    3  A    between atoms: C_5  and  N_6 
REMARK    4  A    between atoms: N_6  and  C_7 
REMARK    5  A    between atoms: C_9  and  N_10 
REMARK    6  A    between atoms: N_10  and  C_11 
REMARK    7  A    between atoms: C_11  and  C_12 
ROOT
HETATM    1  C   UNL     1     -42.601  54.808 -54.362  1.00  0.00     0.181 A 
HETATM    2  N   UNL     1     -42.308  55.433 -53.218  1.00  0.00    -0.207 NA
HETATM    3  C   UNL     1     -41.475  54.794 -52.375  1.00  0.00     0.119 A 
HETATM    4  C   UNL     1     -40.866  53.560 -52.694  1.00  0.00     0.031 A 
HETATM    5  C   UNL     1     -41.227  52.986 -53.929  1.00  0.00     0.048 A 
HETATM    6  N   UNL     1     -42.091  53.635 -54.713  1.00  0.00    -0.330 N 
HETATM    7  H   UNL     1     -42.382  53.279 -55.614  1.00  0.00     0.168 HD
HETATM    8  C   UNL     1     -39.913  52.875 -51.906  1.00  0.00     0.017 A 
HETATM    9  C   UNL     1     -39.379  51.652 -52.321  1.00  0.00     0.001 A 
HETATM   10  C   UNL     1     -39.773  51.090 -53.532  1.00  0.00     0.002 A 
HETATM   11  C   UNL     1     -40.691  51.758 -54.341  1.00  0.00     0.030 A 
ENDROOT
BRANCH   1  12
HETATM   12  N   UNL     1     -43.484  55.370 -55.281  1.00  0.00    -0.258 NA
HETATM   13  H   UNL     1     -44.394  54.948 -55.065  1.00  0.00     0.130 HD
BRANCH  12  14
HETATM   14  C   UNL     1     -43.178  54.848 -56.632  1.00  0.00     0.136 C 
BRANCH  14  15
HETATM   15  C   UNL     1     -43.011  55.979 -57.624  1.00  0.00    -0.012 A 
HETATM   16  C   UNL     1     -43.373  55.796 -58.975  1.00  0.00     0.075 A 
HETATM   17  C   UNL     1     -43.117  56.809 -59.906  1.00  0.00     0.037 A 
HETATM   18  C   UNL     1     -42.504  57.998 -59.509  1.00  0.00     0.003 A 
HETATM   19  C   UNL     1     -42.141  58.186 -58.181  1.00  0.00     0.001 A 
HETATM   20  C   UNL     1     -42.386  57.182 -57.247  1.00  0.00     0.011 A 
BRANCH  16  21
HETATM   21  O   UNL     1     -43.946  54.589 -59.283  1.00  0.00    -0.355 OA
HETATM   22  C   UNL     1     -45.080  54.607 -60.145  1.00  0.00     0.210 C 
ENDBRANCH  16  21
ENDBRANCH  14  15
ENDBRANCH  12  14
ENDBRANCH   1  12
BRANCH   3  23
HETATM   23  N   UNL     1     -41.273  55.457 -51.162  1.00  0.00    -0.273 NA
HETATM   24  H   UNL     1     -41.593  56.415 -51.317  1.00  0.00     0.129 HD
BRANCH  23  25
HETATM   25  C   UNL     1     -42.005  54.880 -50.034  1.00  0.00     0.120 C 
BRANCH  25  26
HETATM   26  C   UNL     1     -41.111  54.931 -48.832  1.00  0.00    -0.022 C 
HETATM   27  C   UNL     1     -40.451  53.882 -48.326  1.00  0.00     0.008 C 
ENDBRANCH  25  26
ENDBRANCH  23  25
ENDBRANCH   3  23
TORSDOF 7
ENDMDL
MODEL 4
REMARK VINA RESULT:      -7.5      1.275      1.432
REMARK  7 active torsions:
REMARK  status: ('A' for Active; 'I' for Inactive)
REMARK    1  A    between atoms: O_2  and  C_3 
REMARK    2  A    between atoms: C_4  and  C_5 
REMARK    3  A    between atoms: C_5  and  N_6 
REMARK    4  A    between atoms: N_6  and  C_7 
REMARK    5  A    between atoms: C_9  and  N_10 
REMARK    6  A    between atoms: N_10  and  C_11 
REMARK    7  A    between atoms: C_11  and  C_12 
ROOT
HETATM    1  C   UNL     1     -42.928  54.761 -54.663  1.00  0.00     0.181 A 
HETATM    2  N   UNL     1     -43.221  55.083 -53.400  1.00  0.00    -0.207 NA
HETATM    3  C   UNL     1     -42.548  54.426 -52.436  1.00  0.00     0.119 A 
HETATM    4  C   UNL     1     -41.522  53.497 -52.720  1.00  0.00     0.031 A 
HETATM    5  C   UNL     1     -41.277  53.234 -54.083  1.00  0.00     0.048 A 
HETATM    6  N   UNL     1     -42.000  53.876 -55.003  1.00  0.00    -0.330 N 
HETATM    7  H   UNL     1     -41.866  53.737 -55.996  1.00  0.00     0.168 HD
HETATM    8  C   UNL     1     -40.709  52.839 -51.769  1.00  0.00     0.017 A 
HETATM    9  C   UNL     1     -39.725  51.931 -52.167  1.00  0.00     0.001 A 
HETATM   10  C   UNL     1     -39.520  51.665 -53.517  1.00  0.00     0.002 A 
HETATM   11  C   UNL     1     -40.290  52.320 -54.477  1.00  0.00     0.030 A 
ENDROOT
BRANCH   1  12
HETATM   12  N   UNL     1     -43.599  55.356 -55.729  1.00  0.00    -0.258 NA
HETATM   13  H   UNL     1     -44.384  54.727 -55.930  1.00  0.00     0.130 HD
BRANCH  12  14
HETATM   14  C   UNL     1     -42.762  55.258 -56.946  1.00  0.00     0.136 C 
BRANCH  14  15
HETATM   15  C   UNL     1     -43.513  55.758 -58.161  1.00  0.00    -0.012 A 
HETATM   16  C   UNL     1     -43.924  57.105 -58.236  1.00  0.00     0.075 A 
HETATM   17  C   UNL     1     -44.710  57.532 -59.312  1.00  0.00     0.037 A 
HETATM   18  C   UNL     1     -45.093  56.636 -60.311  1.00  0.00     0.003 A 
HETATM   19  C   UNL     1     -44.695  55.306 -60.244  1.00  0.00     0.001 A 
HETATM   20  C   UNL     1     -43.917  54.868 -59.175  1.00  0.00     0.011 A 
BRANCH  16  21
HETATM   21  O   UNL     1     -43.526  57.911 -57.200  1.00  0.00    -0.355 OA
HETATM   22  C   UNL     1     -42.608  58.957 -57.504  1.00  0.00     0.210 C 
ENDBRANCH  16  21
ENDBRANCH  14  15
ENDBRANCH  12  14
ENDBRANCH   1  12
BRANCH   3  23
HETATM   23  N   UNL     1     -42.955  54.744 -51.139  1.00  0.00    -0.273 NA
HETATM   24  H   UNL     1     -42.508  54.053 -50.534  1.00  0.00     0.129 HD
BRANCH  23  25
HETATM   25  C   UNL     1     -42.570  56.087 -50.702  1.00  0.00     0.120 C 
BRANCH  25  26
HETATM   26  C   UNL     1     -41.341  55.959 -49.854  1.00  0.00    -0.022 C 
HETATM   27  C   UNL     1     -41.139  54.999 -48.942  1.00  0.00     0.008 C 
ENDBRANCH  25  26
ENDBRANCH  23  25
ENDBRANCH   3  23
TORSDOF 7
ENDMDL
MODEL 5
REMARK VINA RESULT:      -7.4      1.612      2.058
REMARK  7 active torsions:
REMARK  status: ('A' for Active; 'I' for Inactive)
REMARK    1  A    between atoms: O_2  and  C_3 
REMARK    2  A    between atoms: C_4  and  C_5 
REMARK    3  A    between atoms: C_5  and  N_6 
REMARK    4  A    between atoms: N_6  and  C_7 
REMARK    5  A    between atoms: C_9  and  N_10 
REMARK    6  A    between atoms: N_10  and  C_11 
REMARK    7  A    between atoms: C_11  and  C_12 
ROOT
HETATM    1  C   UNL     1     -40.652  54.065 -54.469  1.00  0.00     0.181 A 
HETATM    2  N   UNL     1     -40.670  54.576 -53.235  1.00  0.00    -0.207 NA
HETATM    3  C   UNL     1     -40.450  53.717 -52.221  1.00  0.00     0.119 A 
HETATM    4  C   UNL     1     -40.133  52.356 -52.430  1.00  0.00     0.031 A 
HETATM    5  C   UNL     1     -40.124  51.915 -53.768  1.00  0.00     0.048 A 
HETATM    6  N   UNL     1     -40.392  52.792 -54.738  1.00  0.00    -0.330 N 
HETATM    7  H   UNL     1     -40.393  52.539 -55.717  1.00  0.00     0.168 HD
HETATM    8  C   UNL     1     -39.797  51.417 -51.428  1.00  0.00     0.017 A 
HETATM    9  C   UNL     1     -39.507  50.090 -51.751  1.00  0.00     0.001 A 
HETATM   10  C   UNL     1     -39.532  49.670 -53.078  1.00  0.00     0.002 A 
HETATM   11  C   UNL     1     -39.834  50.581 -54.088  1.00  0.00     0.030 A 
ENDROOT
BRANCH   1  12
HETATM   12  N   UNL     1     -40.908  54.865 -55.581  1.00  0.00    -0.258 NA
HETATM   13  H   UNL     1     -40.795  55.828 -55.244  1.00  0.00     0.130 HD
BRANCH  12  14
HETATM   14  C   UNL     1     -42.348  54.787 -55.914  1.00  0.00     0.136 C 
BRANCH  14  15
HETATM   15  C   UNL     1     -42.788  56.001 -56.703  1.00  0.00    -0.012 A 
HETATM   16  C   UNL     1     -42.971  57.240 -56.054  1.00  0.00     0.075 A 
HETATM   17  C   UNL     1     -43.480  58.330 -56.770  1.00  0.00     0.037 A 
HETATM   18  C   UNL     1     -43.810  58.200 -58.120  1.00  0.00     0.003 A 
HETATM   19  C   UNL     1     -43.636  56.983 -58.766  1.00  0.00     0.001 A 
HETATM   20  C   UNL     1     -43.136  55.890 -58.063  1.00  0.00     0.011 A 
BRANCH  16  21
HETATM   21  O   UNL     1     -42.646  57.272 -54.723  1.00  0.00    -0.355 OA
HETATM   22  C   UNL     1     -41.692  58.247 -54.309  1.00  0.00     0.210 C 
ENDBRANCH  16  21
ENDBRANCH  14  15
ENDBRANCH  12  14
ENDBRANCH   1  12
BRANCH   3  23
HETATM   23  N   UNL     1     -40.564  54.291 -50.954  1.00  0.00    -0.273 NA
HETATM   24  H   UNL     1     -39.681  54.779 -50.793  1.00  0.00     0.129 HD
BRANCH  23  25
HETATM   25  C   UNL     1     -41.670  55.241 -50.823  1.00  0.00     0.120 C 
BRANCH  25  26
HETATM   26  C   UNL     1     -41.157  56.446 -50.095  1.00  0.00    -0.022 C 
HETATM   27  C   UNL     1     -41.115  57.685 -50.602  1.00  0.00     0.008 C 
ENDBRANCH  25  26
ENDBRANCH  23  25
ENDBRANCH   3  23
TORSDOF 7
ENDMDL
MODEL 6
REMARK VINA RESULT:      -7.2      1.447      3.480
REMARK  7 active torsions:
REMARK  status: ('A' for Active; 'I' for Inactive)
REMARK    1  A    between atoms: O_2  and  C_3 
REMARK    2  A    between atoms: C_4  and  C_5 
REMARK    3  A    between atoms: C_5  and  N_6 
REMARK    4  A    between atoms: N_6  and  C_7 
REMARK    5  A    between atoms: C_9  and  N_10 
REMARK    6  A    between atoms: N_10  and  C_11 
REMARK    7  A    between atoms: C_11  and  C_12 
ROOT
HETATM    1  C   UNL     1     -42.336  54.453 -53.773  1.00  0.00     0.181 A 
HETATM    2  N   UNL     1     -41.483  53.440 -53.948  1.00  0.00    -0.207 NA
HETATM    3  C   UNL     1     -40.703  53.116 -52.899  1.00  0.00     0.119 A 
HETATM    4  C   UNL     1     -40.818  53.748 -51.641  1.00  0.00     0.031 A 
HETATM    5  C   UNL     1     -41.755  54.796 -51.550  1.00  0.00     0.048 A 
HETATM    6  N   UNL     1     -42.475  55.111 -52.630  1.00  0.00    -0.330 N 
HETATM    7  H   UNL     1     -43.168  55.847 -52.626  1.00  0.00     0.168 HD
HETATM    8  C   UNL     1     -40.105  53.403 -50.469  1.00  0.00     0.017 A 
HETATM    9  C   UNL     1     -40.295  54.105 -49.276  1.00  0.00     0.001 A 
HETATM   10  C   UNL     1     -41.206  55.155 -49.219  1.00  0.00     0.002 A 
HETATM   11  C   UNL     1     -41.942  55.499 -50.352  1.00  0.00     0.030 A 
ENDROOT
BRANCH   1  12
HETATM   12  N   UNL     1     -43.155  54.889 -54.811  1.00  0.00    -0.258 NA
HETATM   13  H   UNL     1     -43.735  54.076 -55.048  1.00  0.00     0.130 HD
BRANCH  12  14
HETATM   14  C   UNL     1     -42.335  55.090 -56.027  1.00  0.00     0.136 C 
BRANCH  14  15
HETATM   15  C   UNL     1     -43.031  56.014 -57.002  1.00  0.00    -0.012 A 
HETATM   16  C   UNL     1     -43.453  57.295 -56.588  1.00  0.00     0.075 A 
HETATM   17  C   UNL     1     -44.190  58.100 -57.464  1.00  0.00     0.037 A 
HETATM   18  C   UNL     1     -44.512  57.646 -58.744  1.00  0.00     0.003 A 
HETATM   19  C   UNL     1     -44.103  56.384 -59.160  1.00  0.00     0.001 A 
HETATM   20  C   UNL     1     -43.374  55.572 -58.294  1.00  0.00     0.011 A 
BRANCH  16  21
HETATM   21  O   UNL     1     -43.116  57.651 -55.308  1.00  0.00    -0.355 OA
HETATM   22  C   UNL     1     -42.178  58.712 -55.153  1.00  0.00     0.210 C 
ENDBRANCH  16  21
ENDBRANCH  14  15
ENDBRANCH  12  14
ENDBRANCH   1  12
BRANCH   3  23
HETATM   23  N   UNL     1     -39.776  52.107 -53.168  1.00  0.00    -0.273 NA
HETATM   24  H   UNL     1     -39.721  51.551 -52.313  1.00  0.00     0.129 HD
BRANCH  23  25
HETATM   25  C   UNL     1     -40.143  51.238 -54.286  1.00  0.00     0.120 C 
BRANCH  25  26
HETATM   26  C   UNL     1     -39.853  49.824 -53.882  1.00  0.00    -0.022 C 
HETATM   27  C   UNL     1     -39.618  49.420 -52.627  1.00  0.00     0.008 C 
ENDBRANCH  25  26
ENDBRANCH  23  25
ENDBRANCH   3  23
TORSDOF 7
ENDMDL
MODEL 7
REMARK VINA RESULT:      -7.2      2.559      6.763
REMARK  7 active torsions:
REMARK  status: ('A' for Active; 'I' for Inactive)
REMARK    1  A    between atoms: O_2  and  C_3 
REMARK    2  A    between atoms: C_4  and  C_5 
REMARK    3  A    between atoms: C_5  and  N_6 
REMARK    4  A    between atoms: N_6  and  C_7 
REMARK    5  A    between atoms: C_9  and  N_10 
REMARK    6  A    between atoms: N_10  and  C_11 
REMARK    7  A    between atoms: C_11  and  C_12 
ROOT
HETATM    1  C   UNL     1     -41.729  55.215 -55.036  1.00  0.00     0.181 A 
HETATM    2  N   UNL     1     -42.575  55.452 -54.030  1.00  0.00    -0.207 NA
HETATM    3  C   UNL     1     -43.558  56.343 -54.263  1.00  0.00     0.119 A 
HETATM    4  C   UNL     1     -43.753  56.949 -55.524  1.00  0.00     0.031 A 
HETATM    5  C   UNL     1     -42.817  56.626 -56.525  1.00  0.00     0.048 A 
HETATM    6  N   UNL     1     -41.833  55.771 -56.235  1.00  0.00    -0.330 N 
HETATM    7  H   UNL     1     -41.136  55.492 -56.913  1.00  0.00     0.168 HD
HETATM    8  C   UNL     1     -44.813  57.818 -55.874  1.00  0.00     0.017 A 
HETATM    9  C   UNL     1     -44.903  58.366 -57.155  1.00  0.00     0.001 A 
HETATM   10  C   UNL     1     -43.949  58.054 -58.120  1.00  0.00     0.002 A 
HETATM   11  C   UNL     1     -42.910  57.179 -57.810  1.00  0.00     0.030 A 
ENDROOT
BRANCH   1  12
HETATM   12  N   UNL     1     -40.656  54.340 -54.879  1.00  0.00    -0.258 NA
HETATM   13  H   UNL     1     -40.961  53.466 -55.323  1.00  0.00     0.130 HD
BRANCH  12  14
HETATM   14  C   UNL     1     -40.533  53.973 -53.450  1.00  0.00     0.136 C 
BRANCH  14  15
HETATM   15  C   UNL     1     -40.296  52.486 -53.292  1.00  0.00    -0.012 A 
HETATM   16  C   UNL     1     -39.775  51.975 -52.084  1.00  0.00     0.075 A 
HETATM   17  C   UNL     1     -39.459  50.616 -51.985  1.00  0.00     0.037 A 
HETATM   18  C   UNL     1     -39.653  49.761 -53.071  1.00  0.00     0.003 A 
HETATM   19  C   UNL     1     -40.162  50.256 -54.265  1.00  0.00     0.001 A 
HETATM   20  C   UNL     1     -40.475  51.609 -54.378  1.00  0.00     0.011 A 
BRANCH  16  21
HETATM   21  O   UNL     1     -39.593  52.888 -51.078  1.00  0.00    -0.355 OA
HETATM   22  C   UNL     1     -40.433  52.772 -49.933  1.00  0.00     0.210 C 
ENDBRANCH  16  21
ENDBRANCH  14  15
ENDBRANCH  12  14
ENDBRANCH   1  12
BRANCH   3  23
HETATM   23  N   UNL     1     -44.359  56.612 -53.152  1.00  0.00    -0.273 NA
HETATM   24  H   UNL     1     -45.107  55.918 -53.178  1.00  0.00     0.129 HD
BRANCH  23  25
HETATM   25  C   UNL     1     -43.658  56.517 -51.870  1.00  0.00     0.120 C 
BRANCH  25  26
HETATM   26  C   UNL     1     -43.233  57.899 -51.476  1.00  0.00    -0.022 C 
HETATM   27  C   UNL     1     -44.039  58.968 -51.450  1.00  0.00     0.008 C 
ENDBRANCH  25  26
ENDBRANCH  23  25
ENDBRANCH   3  23
TORSDOF 7
ENDMDL
MODEL 8
REMARK VINA RESULT:      -7.2      1.731      2.495
REMARK  7 active torsions:
REMARK  status: ('A' for Active; 'I' for Inactive)
REMARK    1  A    between atoms: O_2  and  C_3 
REMARK    2  A    between atoms: C_4  and  C_5 
REMARK    3  A    between atoms: C_5  and  N_6 
REMARK    4  A    between atoms: N_6  and  C_7 
REMARK    5  A    between atoms: C_9  and  N_10 
REMARK    6  A    between atoms: N_10  and  C_11 
REMARK    7  A    between atoms: C_11  and  C_12 
ROOT
HETATM    1  C   UNL     1     -43.150  55.160 -55.105  1.00  0.00     0.181 A 
HETATM    2  N   UNL     1     -43.591  55.452 -53.878  1.00  0.00    -0.207 NA
HETATM    3  C   UNL     1     -43.006  54.802 -52.854  1.00  0.00     0.119 A 
HETATM    4  C   UNL     1     -41.925  53.911 -53.034  1.00  0.00     0.031 A 
HETATM    5  C   UNL     1     -41.523  53.677 -54.364  1.00  0.00     0.048 A 
HETATM    6  N   UNL     1     -42.161  54.311 -55.351  1.00  0.00    -0.330 N 
HETATM    7  H   UNL     1     -41.914  54.192 -56.324  1.00  0.00     0.168 HD
HETATM    8  C   UNL     1     -41.199  53.265 -52.007  1.00  0.00     0.017 A 
HETATM    9  C   UNL     1     -40.147  52.395 -52.304  1.00  0.00     0.001 A 
HETATM   10  C   UNL     1     -39.786  52.158 -53.627  1.00  0.00     0.002 A 
HETATM   11  C   UNL     1     -40.467  52.803 -54.658  1.00  0.00     0.030 A 
ENDROOT
BRANCH   1  12
HETATM   12  N   UNL     1     -43.719  55.750 -56.231  1.00  0.00    -0.258 NA
HETATM   13  H   UNL     1     -44.488  55.124 -56.496  1.00  0.00     0.130 HD
BRANCH  12  14
HETATM   14  C   UNL     1     -42.778  55.636 -57.368  1.00  0.00     0.136 C 
BRANCH  14  15
HETATM   15  C   UNL     1     -42.981  56.766 -58.353  1.00  0.00    -0.012 A 
HETATM   16  C   UNL     1     -43.906  56.630 -59.409  1.00  0.00     0.075 A 
HETATM   17  C   UNL     1     -44.009  57.636 -60.376  1.00  0.00     0.037 A 
HETATM   18  C   UNL     1     -43.202  58.772 -60.306  1.00  0.00     0.003 A 
HETATM   19  C   UNL     1     -42.286  58.915 -59.272  1.00  0.00     0.001 A 
HETATM   20  C   UNL     1     -42.171  57.917 -58.306  1.00  0.00     0.011 A 
BRANCH  16  21
HETATM   21  O   UNL     1     -44.639  55.471 -59.416  1.00  0.00    -0.355 OA
HETATM   22  C   UNL     1     -44.925  54.889 -60.685  1.00  0.00     0.210 C 
ENDBRANCH  16  21
ENDBRANCH  14  15
ENDBRANCH  12  14
ENDBRANCH   1  12
BRANCH   3  23
HETATM   23  N   UNL     1     -43.564  55.086 -51.606  1.00  0.00    -0.273 NA
HETATM   24  H   UNL     1     -43.052  54.507 -50.938  1.00  0.00     0.129 HD
BRANCH  23  25
HETATM   25  C   UNL     1     -43.457  56.490 -51.206  1.00  0.00     0.120 C 
BRANCH  25  26
HETATM   26  C   UNL     1     -42.029  56.754 -50.835  1.00  0.00    -0.022 C 
HETATM   27  C   UNL     1     -41.374  56.147 -49.837  1.00  0.00     0.008 C 
ENDBRANCH  25  26
ENDBRANCH  23  25
ENDBRANCH   3  23
TORSDOF 7
ENDMDL
MODEL 9
REMARK VINA RESULT:      -7.1     14.413     17.379
REMARK  7 active torsions:
REMARK  status: ('A' for Active; 'I' for Inactive)
REMARK    1  A    between atoms: O_2  and  C_3 
REMARK    2  A    between atoms: C_4  and  C_5 
REMARK    3  A    between atoms: C_5  and  N_6 
REMARK    4  A    between atoms: N_6  and  C_7 
REMARK    5  A    between atoms: C_9  and  N_10 
REMARK    6  A    between atoms: N_10  and  C_11 
REMARK    7  A    between atoms: C_11  and  C_12 
ROOT
HETATM    1  C   UNL     1     -34.439  41.073 -53.163  1.00  0.00     0.181 A 
HETATM    2  N   UNL     1     -35.648  41.307 -52.646  1.00  0.00    -0.207 NA
HETATM    3  C   UNL     1     -36.615  41.675 -53.508  1.00  0.00     0.119 A 
HETATM    4  C   UNL     1     -36.406  41.740 -54.904  1.00  0.00     0.031 A 
HETATM    5  C   UNL     1     -35.101  41.462 -55.355  1.00  0.00     0.048 A 
HETATM    6  N   UNL     1     -34.164  41.144 -54.458  1.00  0.00    -0.330 N 
HETATM    7  H   UNL     1     -33.211  40.926 -54.720  1.00  0.00     0.168 HD
HETATM    8  C   UNL     1     -37.390  42.025 -55.879  1.00  0.00     0.017 A 
HETATM    9  C   UNL     1     -37.067  42.069 -57.237  1.00  0.00     0.001 A 
HETATM   10  C   UNL     1     -35.764  41.818 -57.657  1.00  0.00     0.002 A 
HETATM   11  C   UNL     1     -34.781  41.508 -56.719  1.00  0.00     0.030 A 
ENDROOT
BRANCH   1  12
HETATM   12  N   UNL     1     -33.365  40.726 -52.347  1.00  0.00    -0.258 NA
HETATM   13  H   UNL     1     -33.416  39.704 -52.263  1.00  0.00     0.130 HD
BRANCH  12  14
HETATM   14  C   UNL     1     -33.630  41.195 -50.968  1.00  0.00     0.136 C 
BRANCH  14  15
HETATM   15  C   UNL     1     -33.315  40.113 -49.958  1.00  0.00    -0.012 A 
HETATM   16  C   UNL     1     -34.294  39.155 -49.617  1.00  0.00     0.075 A 
HETATM   17  C   UNL     1     -34.031  38.225 -48.606  1.00  0.00     0.037 A 
HETATM   18  C   UNL     1     -32.811  38.237 -47.929  1.00  0.00     0.003 A 
HETATM   19  C   UNL     1     -31.842  39.179 -48.256  1.00  0.00     0.001 A 
HETATM   20  C   UNL     1     -32.094  40.114 -49.258  1.00  0.00     0.011 A 
BRANCH  16  21
HETATM   21  O   UNL     1     -35.472  39.231 -50.313  1.00  0.00    -0.355 OA
HETATM   22  C   UNL     1     -36.653  39.509 -49.566  1.00  0.00     0.210 C 
ENDBRANCH  16  21
ENDBRANCH  14  15
ENDBRANCH  12  14
ENDBRANCH   1  12
BRANCH   3  23
HETATM   23  N   UNL     1     -37.832  41.987 -52.900  1.00  0.00    -0.273 NA
HETATM   24  H   UNL     1     -38.357  42.520 -53.596  1.00  0.00     0.129 HD
BRANCH  23  25
HETATM   25  C   UNL     1     -38.617  40.820 -52.495  1.00  0.00     0.120 C 
BRANCH  25  26
HETATM   26  C   UNL     1     -40.063  41.138 -52.722  1.00  0.00    -0.022 C 
HETATM   27  C   UNL     1     -40.582  41.546 -53.888  1.00  0.00     0.008 C 
ENDBRANCH  25  26
ENDBRANCH  23  25
ENDBRANCH   3  23
TORSDOF 7
ENDMDL
MODEL 10
REMARK VINA RESULT:      -7.1      2.306      6.781
REMARK  7 active torsions:
REMARK  status: ('A' for Active; 'I' for Inactive)
REMARK    1  A    between atoms: O_2  and  C_3 
REMARK    2  A    between atoms: C_4  and  C_5 
REMARK    3  A    between atoms: C_5  and  N_6 
REMARK    4  A    between atoms: N_6  and  C_7 
REMARK    5  A    between atoms: C_9  and  N_10 
REMARK    6  A    between atoms: N_10  and  C_11 
REMARK    7  A    between atoms: C_11  and  C_12 
ROOT
HETATM    1  C   UNL     1     -42.981  55.738 -55.204  1.00  0.00     0.181 A 
HETATM    2  N   UNL     1     -42.581  56.964 -54.855  1.00  0.00    -0.207 NA
HETATM    3  C   UNL     1     -42.300  57.817 -55.858  1.00  0.00     0.119 A 
HETATM    4  C   UNL     1     -42.486  57.483 -57.218  1.00  0.00     0.031 A 
HETATM    5  C   UNL     1     -42.923  56.170 -57.485  1.00  0.00     0.048 A 
HETATM    6  N   UNL     1     -43.148  55.345 -56.460  1.00  0.00    -0.330 N 
HETATM    7  H   UNL     1     -43.470  54.395 -56.586  1.00  0.00     0.168 HD
HETATM    8  C   UNL     1     -42.305  58.350 -58.320  1.00  0.00     0.017 A 
HETATM    9  C   UNL     1     -42.513  57.907 -59.629  1.00  0.00     0.001 A 
HETATM   10  C   UNL     1     -42.918  56.597 -59.869  1.00  0.00     0.002 A 
HETATM   11  C   UNL     1     -43.130  55.729 -58.800  1.00  0.00     0.030 A 
ENDROOT
BRANCH   1  12
HETATM   12  N   UNL     1     -43.256  54.772 -54.239  1.00  0.00    -0.258 NA
HETATM   13  H   UNL     1     -44.124  55.086 -53.792  1.00  0.00     0.130 HD
BRANCH  12  14
HETATM   14  C   UNL     1     -42.256  54.871 -53.152  1.00  0.00     0.136 C 
BRANCH  14  15
HETATM   15  C   UNL     1     -41.399  53.625 -53.090  1.00  0.00    -0.012 A 
HETATM   16  C   UNL     1     -40.693  53.308 -51.910  1.00  0.00     0.075 A 
HETATM   17  C   UNL     1     -39.821  52.214 -51.896  1.00  0.00     0.037 A 
HETATM   18  C   UNL     1     -39.640  51.436 -53.040  1.00  0.00     0.003 A 
HETATM   19  C   UNL     1     -40.329  51.742 -54.208  1.00  0.00     0.001 A 
HETATM   20  C   UNL     1     -41.196  52.832 -54.235  1.00  0.00     0.011 A 
BRANCH  16  21
HETATM   21  O   UNL     1     -40.910  54.140 -50.842  1.00  0.00    -0.355 OA
HETATM   22  C   UNL     1     -39.876  54.227 -49.864  1.00  0.00     0.210 C 
ENDBRANCH  16  21
ENDBRANCH  14  15
ENDBRANCH  12  14
ENDBRANCH   1  12
BRANCH   3  23
HETATM   23  N   UNL     1     -41.809  59.054 -55.434  1.00  0.00    -0.273 NA
HETATM   24  H   UNL     1     -42.544  59.729 -55.648  1.00  0.00     0.129 HD
BRANCH  23  25
HETATM   25  C   UNL     1     -41.497  59.117 -54.005  1.00  0.00     0.120 C 
BRANCH  25  26
HETATM   26  C   UNL     1     -42.116  60.366 -53.456  1.00  0.00    -0.022 C 
HETATM   27  C   UNL     1     -43.008  61.127 -54.105  1.00  0.00     0.008 C 
ENDBRANCH  25  26
ENDBRANCH  23  25
ENDBRANCH   3  23
TORSDOF 7
ENDMDL
