MODEL 1
REMARK VINA RESULT:      -7.6      0.000      0.000
REMARK  9 active torsions:
REMARK  status: ('A' for Active; 'I' for Inactive)
REMARK    1  A    between atoms: C_2  and  C_3 
REMARK    2  A    between atoms: C_3  and  N_4 
REMARK    3  A    between atoms: C_7  and  C_8 
REMARK       I    between atoms: C_8  and  N_9 
REMARK    4  A    between atoms: N_9  and  C_10 
REMARK    5  A    between atoms: C_10  and  C_11 
REMARK    6  A    between atoms: C_13  and  O_14 
REMARK    7  A    between atoms: O_14  and  C_15 
REMARK    8  A    between atoms: C_15  and  C_16 
REMARK       I    between atoms: C_16  and  N_17 
REMARK    9  A    between atoms: C_23  and  C_24 
ROOT
HETATM    1  C   UNL     1     -41.599  56.516 -54.603  1.00  0.00     0.255 C 
HETATM    2  N   UNL     1     -40.596  55.624 -54.281  1.00  0.00    -0.353 N 
HETATM    3  O   UNL     1     -42.409  56.318 -55.505  1.00  0.00    -0.268 OA
HETATM    4  H   UNL     1     -40.115  55.746 -53.401  1.00  0.00     0.163 HD
ENDROOT
BRANCH   2   5
HETATM    5  C   UNL     1     -40.627  54.316 -54.895  1.00  0.00     0.161 C 
BRANCH   5   6
HETATM    6  C   UNL     1     -40.369  53.146 -53.980  1.00  0.00    -0.038 A 
HETATM    7  C   UNL     1     -40.338  53.246 -52.582  1.00  0.00     0.045 A 
HETATM    8  C   UNL     1     -39.983  52.147 -51.785  1.00  0.00     0.070 A 
HETATM    9  C   UNL     1     -39.645  50.938 -52.393  1.00  0.00     0.037 A 
HETATM   10  C   UNL     1     -39.665  50.825 -53.783  1.00  0.00     0.003 A 
HETATM   11  C   UNL     1     -40.022  51.919 -54.568  1.00  0.00     0.009 A 
BRANCH   8  12
HETATM   12  O   UNL     1     -39.997  52.382 -50.435  1.00  0.00    -0.342 OA
BRANCH  12  13
HETATM   13  C   UNL     1     -39.857  53.742 -50.026  1.00  0.00     0.278 C 
BRANCH  13  14
HETATM   14  C   UNL     1     -40.753  54.058 -48.832  1.00  0.00     0.239 C 
HETATM   15  N   UNL     1     -40.154  53.999 -47.607  1.00  0.00    -0.368 N 
HETATM   16  H   UNL     1     -39.243  53.564 -47.512  1.00  0.00     0.159 HD
HETATM   17  H   UNL     1     -40.727  54.145 -46.788  1.00  0.00     0.159 HD
HETATM   18  O   UNL     1     -41.927  54.399 -48.945  1.00  0.00    -0.271 OA
ENDBRANCH  13  14
ENDBRANCH  12  13
ENDBRANCH   8  12
ENDBRANCH   5   6
ENDBRANCH   2   5
BRANCH   1  19
HETATM   19  C   UNL     1     -41.705  57.671 -53.743  1.00  0.00     0.075 A 
HETATM   20  C   UNL     1     -41.310  58.977 -54.104  1.00  0.00     0.158 A 
HETATM   21  N   UNL     1     -41.360  59.837 -53.091  1.00  0.00    -0.183 NA
HETATM   22  N   UNL     1     -41.739  59.077 -52.042  1.00  0.00    -0.268 N 
HETATM   23  C   UNL     1     -42.015  57.768 -52.394  1.00  0.00     0.052 A 
BRANCH  22  24
HETATM   24  C   UNL     1     -41.662  59.632 -50.688  1.00  0.00     0.106 C 
HETATM   25  C   UNL     1     -40.193  59.738 -50.262  1.00  0.00     0.034 C 
BRANCH  24  26
HETATM   26  C   UNL     1     -42.353  61.001 -50.507  1.00  0.00     0.022 C 
HETATM   27  C   UNL     1     -43.871  60.904 -50.445  1.00  0.00     0.007 C 
ENDBRANCH  24  26
ENDBRANCH  22  24
BRANCH  23  28
HETATM   28  C   UNL     1     -42.468  56.686 -51.412  1.00  0.00     0.038 A 
HETATM   29  C   UNL     1     -43.923  56.594 -51.016  1.00  0.00     0.011 A 
HETATM   30  C   UNL     1     -43.327  55.534 -51.878  1.00  0.00     0.011 A 
ENDBRANCH  23  28
ENDBRANCH   1  19
TORSDOF 9
ENDMDL
MODEL 2
REMARK VINA RESULT:      -7.4      1.666      1.895
REMARK  9 active torsions:
REMARK  status: ('A' for Active; 'I' for Inactive)
REMARK    1  A    between atoms: C_2  and  C_3 
REMARK    2  A    between atoms: C_3  and  N_4 
REMARK    3  A    between atoms: C_7  and  C_8 
REMARK       I    between atoms: C_8  and  N_9 
REMARK    4  A    between atoms: N_9  and  C_10 
REMARK    5  A    between atoms: C_10  and  C_11 
REMARK    6  A    between atoms: C_13  and  O_14 
REMARK    7  A    between atoms: O_14  and  C_15 
REMARK    8  A    between atoms: C_15  and  C_16 
REMARK       I    between atoms: C_16  and  N_17 
REMARK    9  A    between atoms: C_23  and  C_24 
ROOT
HETATM    1  C   UNL     1     -42.506  54.747 -54.791  1.00  0.00     0.255 C 
HETATM    2  N   UNL     1     -41.146  54.651 -54.575  1.00  0.00    -0.353 N 
HETATM    3  O   UNL     1     -43.154  53.888 -55.381  1.00  0.00    -0.268 OA
HETATM    4  H   UNL     1     -40.726  55.275 -53.901  1.00  0.00     0.163 HD
ENDROOT
BRANCH   2   5
HETATM    5  C   UNL     1     -40.498  53.395 -54.877  1.00  0.00     0.161 C 
BRANCH   5   6
HETATM    6  C   UNL     1     -40.286  52.460 -53.713  1.00  0.00    -0.038 A 
HETATM    7  C   UNL     1     -40.369  52.858 -52.371  1.00  0.00     0.045 A 
HETATM    8  C   UNL     1     -40.051  51.972 -51.332  1.00  0.00     0.070 A 
HETATM    9  C   UNL     1     -39.637  50.675 -51.636  1.00  0.00     0.037 A 
HETATM   10  C   UNL     1     -39.543  50.266 -52.966  1.00  0.00     0.003 A 
HETATM   11  C   UNL     1     -39.862  51.150 -53.993  1.00  0.00     0.009 A 
BRANCH   8  12
HETATM   12  O   UNL     1     -40.179  52.490 -50.069  1.00  0.00    -0.342 OA
BRANCH  12  13
HETATM   13  C   UNL     1     -39.810  53.859 -49.905  1.00  0.00     0.278 C 
BRANCH  13  14
HETATM   14  C   UNL     1     -40.465  54.466 -48.668  1.00  0.00     0.239 C 
HETATM   15  N   UNL     1     -40.174  53.857 -47.482  1.00  0.00    -0.368 N 
HETATM   16  H   UNL     1     -39.732  52.945 -47.478  1.00  0.00     0.159 HD
HETATM   17  H   UNL     1     -40.634  54.193 -46.647  1.00  0.00     0.159 HD
HETATM   18  O   UNL     1     -41.169  55.471 -48.705  1.00  0.00    -0.271 OA
ENDBRANCH  13  14
ENDBRANCH  12  13
ENDBRANCH   8  12
ENDBRANCH   5   6
ENDBRANCH   2   5
BRANCH   1  19
HETATM   19  C   UNL     1     -43.152  55.890 -54.190  1.00  0.00     0.075 A 
HETATM   20  C   UNL     1     -43.608  57.019 -54.903  1.00  0.00     0.158 A 
HETATM   21  N   UNL     1     -44.025  58.003 -54.112  1.00  0.00    -0.183 NA
HETATM   22  N   UNL     1     -43.790  57.538 -52.868  1.00  0.00    -0.268 N 
HETATM   23  C   UNL     1     -43.314  56.239 -52.857  1.00  0.00     0.052 A 
BRANCH  22  24
HETATM   24  C   UNL     1     -43.894  58.452 -51.727  1.00  0.00     0.106 C 
HETATM   25  C   UNL     1     -42.525  59.087 -51.456  1.00  0.00     0.034 C 
BRANCH  24  26
HETATM   26  C   UNL     1     -44.957  59.561 -51.878  1.00  0.00     0.022 C 
HETATM   27  C   UNL     1     -46.178  59.347 -50.995  1.00  0.00     0.007 C 
ENDBRANCH  24  26
ENDBRANCH  22  24
BRANCH  23  28
HETATM   28  C   UNL     1     -42.964  55.457 -51.589  1.00  0.00     0.038 A 
HETATM   29  C   UNL     1     -44.051  55.106 -50.600  1.00  0.00     0.011 A 
HETATM   30  C   UNL     1     -43.422  54.028 -51.414  1.00  0.00     0.011 A 
ENDBRANCH  23  28
ENDBRANCH   1  19
TORSDOF 9
ENDMDL
MODEL 3
REMARK VINA RESULT:      -7.2      3.788      8.272
REMARK  9 active torsions:
REMARK  status: ('A' for Active; 'I' for Inactive)
REMARK    1  A    between atoms: C_2  and  C_3 
REMARK    2  A    between atoms: C_3  and  N_4 
REMARK    3  A    between atoms: C_7  and  C_8 
REMARK       I    between atoms: C_8  and  N_9 
REMARK    4  A    between atoms: N_9  and  C_10 
REMARK    5  A    between atoms: C_10  and  C_11 
REMARK    6  A    between atoms: C_13  and  O_14 
REMARK    7  A    between atoms: O_14  and  C_15 
REMARK    8  A    between atoms: C_15  and  C_16 
REMARK       I    between atoms: C_16  and  N_17 
REMARK    9  A    between atoms: C_23  and  C_24 
ROOT
HETATM    1  C   UNL     1     -42.420  55.804 -54.669  1.00  0.00     0.255 C 
HETATM    2  N   UNL     1     -41.835  56.946 -55.176  1.00  0.00    -0.353 N 
HETATM    3  O   UNL     1     -43.633  55.681 -54.519  1.00  0.00    -0.268 OA
HETATM    4  H   UNL     1     -40.871  56.896 -55.474  1.00  0.00     0.163 HD
ENDROOT
BRANCH   2   5
HETATM    5  C   UNL     1     -42.698  57.959 -55.740  1.00  0.00     0.161 C 
BRANCH   5   6
HETATM    6  C   UNL     1     -42.620  58.141 -57.235  1.00  0.00    -0.038 A 
HETATM    7  C   UNL     1     -42.795  57.097 -58.155  1.00  0.00     0.045 A 
HETATM    8  C   UNL     1     -42.600  57.302 -59.528  1.00  0.00     0.070 A 
HETATM    9  C   UNL     1     -42.216  58.562 -59.988  1.00  0.00     0.037 A 
HETATM   10  C   UNL     1     -42.031  59.608 -59.085  1.00  0.00     0.003 A 
HETATM   11  C   UNL     1     -42.230  59.398 -57.723  1.00  0.00     0.009 A 
BRANCH   8  12
HETATM   12  O   UNL     1     -42.808  56.198 -60.314  1.00  0.00    -0.342 OA
BRANCH  12  13
HETATM   13  C   UNL     1     -43.693  55.207 -59.794  1.00  0.00     0.278 C 
BRANCH  13  14
HETATM   14  C   UNL     1     -44.968  55.108 -60.628  1.00  0.00     0.239 C 
HETATM   15  N   UNL     1     -46.128  55.409 -59.976  1.00  0.00    -0.368 N 
HETATM   16  H   UNL     1     -46.137  55.476 -58.965  1.00  0.00     0.159 HD
HETATM   17  H   UNL     1     -46.999  55.299 -60.477  1.00  0.00     0.159 HD
HETATM   18  O   UNL     1     -44.968  54.830 -61.823  1.00  0.00    -0.271 OA
ENDBRANCH  13  14
ENDBRANCH  12  13
ENDBRANCH   8  12
ENDBRANCH   5   6
ENDBRANCH   2   5
BRANCH   1  19
HETATM   19  C   UNL     1     -41.520  54.705 -54.411  1.00  0.00     0.075 A 
HETATM   20  C   UNL     1     -40.532  54.251 -55.311  1.00  0.00     0.158 A 
HETATM   21  N   UNL     1     -39.937  53.131 -54.912  1.00  0.00    -0.183 NA
HETATM   22  N   UNL     1     -40.577  52.816 -53.767  1.00  0.00    -0.268 N 
HETATM   23  C   UNL     1     -41.507  53.768 -53.388  1.00  0.00     0.052 A 
BRANCH  22  24
HETATM   24  C   UNL     1     -40.362  51.500 -53.161  1.00  0.00     0.106 C 
HETATM   25  C   UNL     1     -39.942  50.501 -54.246  1.00  0.00     0.034 C 
BRANCH  24  26
HETATM   26  C   UNL     1     -39.333  51.474 -52.010  1.00  0.00     0.022 C 
HETATM   27  C   UNL     1     -39.568  50.344 -51.019  1.00  0.00     0.007 C 
ENDBRANCH  24  26
ENDBRANCH  22  24
BRANCH  23  28
HETATM   28  C   UNL     1     -42.377  53.675 -52.132  1.00  0.00     0.038 A 
HETATM   29  C   UNL     1     -41.761  53.916 -50.774  1.00  0.00     0.011 A 
HETATM   30  C   UNL     1     -42.715  54.914 -51.336  1.00  0.00     0.011 A 
ENDBRANCH  23  28
ENDBRANCH   1  19
TORSDOF 9
ENDMDL
MODEL 4
REMARK VINA RESULT:      -6.9      3.783      8.092
REMARK  9 active torsions:
REMARK  status: ('A' for Active; 'I' for Inactive)
REMARK    1  A    between atoms: C_2  and  C_3 
REMARK    2  A    between atoms: C_3  and  N_4 
REMARK    3  A    between atoms: C_7  and  C_8 
REMARK       I    between atoms: C_8  and  N_9 
REMARK    4  A    between atoms: N_9  and  C_10 
REMARK    5  A    between atoms: C_10  and  C_11 
REMARK    6  A    between atoms: C_13  and  O_14 
REMARK    7  A    between atoms: O_14  and  C_15 
REMARK    8  A    between atoms: C_15  and  C_16 
REMARK       I    between atoms: C_16  and  N_17 
REMARK    9  A    between atoms: C_23  and  C_24 
ROOT
HETATM    1  C   UNL     1     -42.655  54.875 -54.291  1.00  0.00     0.255 C 
HETATM    2  N   UNL     1     -42.108  56.125 -54.499  1.00  0.00    -0.353 N 
HETATM    3  O   UNL     1     -43.268  54.258 -55.157  1.00  0.00    -0.268 OA
HETATM    4  H   UNL     1     -41.439  56.471 -53.826  1.00  0.00     0.163 HD
ENDROOT
BRANCH   2   5
HETATM    5  C   UNL     1     -42.081  56.638 -55.850  1.00  0.00     0.161 C 
BRANCH   5   6
HETATM    6  C   UNL     1     -43.409  57.061 -56.427  1.00  0.00    -0.038 A 
HETATM    7  C   UNL     1     -43.778  56.851 -57.763  1.00  0.00     0.045 A 
HETATM    8  C   UNL     1     -44.979  57.366 -58.272  1.00  0.00     0.070 A 
HETATM    9  C   UNL     1     -45.817  58.108 -57.439  1.00  0.00     0.037 A 
HETATM   10  C   UNL     1     -45.460  58.331 -56.109  1.00  0.00     0.003 A 
HETATM   11  C   UNL     1     -44.267  57.814 -55.610  1.00  0.00     0.009 A 
BRANCH   8  12
HETATM   12  O   UNL     1     -45.217  57.083 -59.592  1.00  0.00    -0.342 OA
BRANCH  12  13
HETATM   13  C   UNL     1     -44.227  56.305 -60.263  1.00  0.00     0.278 C 
BRANCH  13  14
HETATM   14  C   UNL     1     -44.808  54.989 -60.774  1.00  0.00     0.239 C 
HETATM   15  N   UNL     1     -45.163  54.084 -59.816  1.00  0.00    -0.368 N 
HETATM   16  H   UNL     1     -44.851  54.213 -58.860  1.00  0.00     0.159 HD
HETATM   17  H   UNL     1     -45.497  53.178 -60.115  1.00  0.00     0.159 HD
HETATM   18  O   UNL     1     -45.005  54.759 -61.963  1.00  0.00    -0.271 OA
ENDBRANCH  13  14
ENDBRANCH  12  13
ENDBRANCH   8  12
ENDBRANCH   5   6
ENDBRANCH   2   5
BRANCH   1  19
HETATM   19  C   UNL     1     -42.378  54.281 -53.004  1.00  0.00     0.075 A 
HETATM   20  C   UNL     1     -43.125  54.528 -51.832  1.00  0.00     0.158 A 
HETATM   21  N   UNL     1     -42.582  53.989 -50.744  1.00  0.00    -0.183 NA
HETATM   22  N   UNL     1     -41.440  53.430 -51.197  1.00  0.00    -0.268 N 
HETATM   23  C   UNL     1     -41.296  53.530 -52.569  1.00  0.00     0.052 A 
BRANCH  22  24
HETATM   24  C   UNL     1     -40.443  52.952 -50.235  1.00  0.00     0.106 C 
HETATM   25  C   UNL     1     -40.424  53.881 -49.015  1.00  0.00     0.034 C 
BRANCH  24  26
HETATM   26  C   UNL     1     -40.637  51.493 -49.770  1.00  0.00     0.022 C 
HETATM   27  C   UNL     1     -39.866  50.487 -50.612  1.00  0.00     0.007 C 
ENDBRANCH  24  26
ENDBRANCH  22  24
BRANCH  23  28
HETATM   28  C   UNL     1     -40.103  52.983 -53.355  1.00  0.00     0.038 A 
HETATM   29  C   UNL     1     -40.214  51.650 -54.056  1.00  0.00     0.011 A 
HETATM   30  C   UNL     1     -40.146  52.901 -54.863  1.00  0.00     0.011 A 
ENDBRANCH  23  28
ENDBRANCH   1  19
TORSDOF 9
ENDMDL
MODEL 5
REMARK VINA RESULT:      -6.6      1.486      2.266
REMARK  9 active torsions:
REMARK  status: ('A' for Active; 'I' for Inactive)
REMARK    1  A    between atoms: C_2  and  C_3 
REMARK    2  A    between atoms: C_3  and  N_4 
REMARK    3  A    between atoms: C_7  and  C_8 
REMARK       I    between atoms: C_8  and  N_9 
REMARK    4  A    between atoms: N_9  and  C_10 
REMARK    5  A    between atoms: C_10  and  C_11 
REMARK    6  A    between atoms: C_13  and  O_14 
REMARK    7  A    between atoms: O_14  and  C_15 
REMARK    8  A    between atoms: C_15  and  C_16 
REMARK       I    between atoms: C_16  and  N_17 
REMARK    9  A    between atoms: C_23  and  C_24 
ROOT
HETATM    1  C   UNL     1     -42.327  56.714 -53.446  1.00  0.00     0.255 C 
HETATM    2  N   UNL     1     -42.873  55.454 -53.312  1.00  0.00    -0.353 N 
HETATM    3  O   UNL     1     -41.322  56.942 -54.114  1.00  0.00    -0.268 OA
HETATM    4  H   UNL     1     -43.809  55.378 -52.939  1.00  0.00     0.163 HD
ENDROOT
BRANCH   2   5
HETATM    5  C   UNL     1     -42.359  54.397 -54.154  1.00  0.00     0.161 C 
BRANCH   5   6
HETATM    6  C   UNL     1     -41.435  53.408 -53.488  1.00  0.00    -0.038 A 
HETATM    7  C   UNL     1     -41.104  53.449 -52.127  1.00  0.00     0.045 A 
HETATM    8  C   UNL     1     -40.153  52.572 -51.586  1.00  0.00     0.070 A 
HETATM    9  C   UNL     1     -39.518  51.650 -52.417  1.00  0.00     0.037 A 
HETATM   10  C   UNL     1     -39.831  51.601 -53.775  1.00  0.00     0.003 A 
HETATM   11  C   UNL     1     -40.779  52.473 -54.305  1.00  0.00     0.009 A 
BRANCH   8  12
HETATM   12  O   UNL     1     -39.928  52.719 -50.242  1.00  0.00    -0.342 OA
BRANCH  12  13
HETATM   13  C   UNL     1     -39.676  54.046 -49.782  1.00  0.00     0.278 C 
BRANCH  13  14
HETATM   14  C   UNL     1     -40.605  54.419 -48.629  1.00  0.00     0.239 C 
HETATM   15  N   UNL     1     -40.235  53.963 -47.397  1.00  0.00    -0.368 N 
HETATM   16  H   UNL     1     -39.516  53.253 -47.316  1.00  0.00     0.159 HD
HETATM   17  H   UNL     1     -40.853  54.140 -46.617  1.00  0.00     0.159 HD
HETATM   18  O   UNL     1     -41.597  55.128 -48.768  1.00  0.00    -0.271 OA
ENDBRANCH  13  14
ENDBRANCH  12  13
ENDBRANCH   8  12
ENDBRANCH   5   6
ENDBRANCH   2   5
BRANCH   1  19
HETATM   19  C   UNL     1     -43.072  57.785 -52.827  1.00  0.00     0.075 A 
HETATM   20  C   UNL     1     -44.450  58.018 -53.023  1.00  0.00     0.158 A 
HETATM   21  N   UNL     1     -44.871  59.152 -52.470  1.00  0.00    -0.183 NA
HETATM   22  N   UNL     1     -43.749  59.695 -51.954  1.00  0.00    -0.268 N 
HETATM   23  C   UNL     1     -42.640  58.880 -52.093  1.00  0.00     0.052 A 
BRANCH  22  24
HETATM   24  C   UNL     1     -43.775  61.080 -51.477  1.00  0.00     0.106 C 
HETATM   25  C   UNL     1     -43.967  62.027 -52.668  1.00  0.00     0.034 C 
BRANCH  24  26
HETATM   26  C   UNL     1     -44.843  61.379 -50.403  1.00  0.00     0.022 C 
HETATM   27  C   UNL     1     -44.295  61.343 -48.984  1.00  0.00     0.007 C 
ENDBRANCH  24  26
ENDBRANCH  22  24
BRANCH  23  28
HETATM   28  C   UNL     1     -41.237  59.237 -51.599  1.00  0.00     0.038 A 
HETATM   29  C   UNL     1     -40.985  59.416 -50.120  1.00  0.00     0.011 A 
HETATM   30  C   UNL     1     -40.414  58.234 -50.826  1.00  0.00     0.011 A 
ENDBRANCH  23  28
ENDBRANCH   1  19
TORSDOF 9
ENDMDL
MODEL 6
REMARK VINA RESULT:      -6.6      4.058      5.969
REMARK  9 active torsions:
REMARK  status: ('A' for Active; 'I' for Inactive)
REMARK    1  A    between atoms: C_2  and  C_3 
REMARK    2  A    between atoms: C_3  and  N_4 
REMARK    3  A    between atoms: C_7  and  C_8 
REMARK       I    between atoms: C_8  and  N_9 
REMARK    4  A    between atoms: N_9  and  C_10 
REMARK    5  A    between atoms: C_10  and  C_11 
REMARK    6  A    between atoms: C_13  and  O_14 
REMARK    7  A    between atoms: O_14  and  C_15 
REMARK    8  A    between atoms: C_15  and  C_16 
REMARK       I    between atoms: C_16  and  N_17 
REMARK    9  A    between atoms: C_23  and  C_24 
ROOT
HETATM    1  C   UNL     1     -42.537  54.992 -56.223  1.00  0.00     0.255 C 
HETATM    2  N   UNL     1     -41.202  55.113 -55.895  1.00  0.00    -0.353 N 
HETATM    3  O   UNL     1     -43.201  53.990 -55.972  1.00  0.00    -0.268 OA
HETATM    4  H   UNL     1     -40.785  56.033 -55.931  1.00  0.00     0.163 HD
ENDROOT
BRANCH   2   5
HETATM    5  C   UNL     1     -40.617  54.103 -55.044  1.00  0.00     0.161 C 
BRANCH   5   6
HETATM    6  C   UNL     1     -40.830  54.278 -53.561  1.00  0.00    -0.038 A 
HETATM    7  C   UNL     1     -41.197  55.494 -52.968  1.00  0.00     0.045 A 
HETATM    8  C   UNL     1     -41.272  55.626 -51.574  1.00  0.00     0.070 A 
HETATM    9  C   UNL     1     -40.967  54.533 -50.762  1.00  0.00     0.037 A 
HETATM   10  C   UNL     1     -40.594  53.319 -51.337  1.00  0.00     0.003 A 
HETATM   11  C   UNL     1     -40.525  53.194 -52.723  1.00  0.00     0.009 A 
BRANCH   8  12
HETATM   12  O   UNL     1     -41.645  56.868 -51.128  1.00  0.00    -0.342 OA
BRANCH  12  13
HETATM   13  C   UNL     1     -41.159  57.982 -51.875  1.00  0.00     0.278 C 
BRANCH  13  14
HETATM   14  C   UNL     1     -40.471  59.000 -50.969  1.00  0.00     0.239 C 
HETATM   15  N   UNL     1     -41.086  59.245 -49.775  1.00  0.00    -0.368 N 
HETATM   16  H   UNL     1     -42.037  58.927 -49.623  1.00  0.00     0.159 HD
HETATM   17  H   UNL     1     -40.693  59.954 -49.172  1.00  0.00     0.159 HD
HETATM   18  O   UNL     1     -39.403  59.535 -51.250  1.00  0.00    -0.271 OA
ENDBRANCH  13  14
ENDBRANCH  12  13
ENDBRANCH   8  12
ENDBRANCH   5   6
ENDBRANCH   2   5
BRANCH   1  19
HETATM   19  C   UNL     1     -43.146  56.167 -56.801  1.00  0.00     0.075 A 
HETATM   20  C   UNL     1     -43.598  57.280 -56.061  1.00  0.00     0.158 A 
HETATM   21  N   UNL     1     -44.260  58.164 -56.800  1.00  0.00    -0.183 NA
HETATM   22  N   UNL     1     -44.292  57.601 -58.026  1.00  0.00    -0.268 N 
HETATM   23  C   UNL     1     -43.582  56.416 -58.094  1.00  0.00     0.052 A 
BRANCH  22  24
HETATM   24  C   UNL     1     -45.160  58.174 -59.058  1.00  0.00     0.106 C 
HETATM   25  C   UNL     1     -46.552  58.432 -58.469  1.00  0.00     0.034 C 
BRANCH  24  26
HETATM   26  C   UNL     1     -44.627  59.468 -59.711  1.00  0.00     0.022 C 
HETATM   27  C   UNL     1     -43.419  59.235 -60.606  1.00  0.00     0.007 C 
ENDBRANCH  24  26
ENDBRANCH  22  24
BRANCH  23  28
HETATM   28  C   UNL     1     -43.442  55.563 -59.357  1.00  0.00     0.038 A 
HETATM   29  C   UNL     1     -44.385  54.406 -59.588  1.00  0.00     0.011 A 
HETATM   30  C   UNL     1     -44.489  55.621 -60.445  1.00  0.00     0.011 A 
ENDBRANCH  23  28
ENDBRANCH   1  19
TORSDOF 9
ENDMDL
MODEL 7
REMARK VINA RESULT:      -6.6      3.200      8.138
REMARK  9 active torsions:
REMARK  status: ('A' for Active; 'I' for Inactive)
REMARK    1  A    between atoms: C_2  and  C_3 
REMARK    2  A    between atoms: C_3  and  N_4 
REMARK    3  A    between atoms: C_7  and  C_8 
REMARK       I    between atoms: C_8  and  N_9 
REMARK    4  A    between atoms: N_9  and  C_10 
REMARK    5  A    between atoms: C_10  and  C_11 
REMARK    6  A    between atoms: C_13  and  O_14 
REMARK    7  A    between atoms: O_14  and  C_15 
REMARK    8  A    between atoms: C_15  and  C_16 
REMARK       I    between atoms: C_16  and  N_17 
REMARK    9  A    between atoms: C_23  and  C_24 
ROOT
HETATM    1  C   UNL     1     -41.586  55.972 -53.644  1.00  0.00     0.255 C 
HETATM    2  N   UNL     1     -42.944  55.924 -53.885  1.00  0.00    -0.353 N 
HETATM    3  O   UNL     1     -40.998  57.001 -53.320  1.00  0.00    -0.268 OA
HETATM    4  H   UNL     1     -43.387  55.017 -53.929  1.00  0.00     0.163 HD
ENDROOT
BRANCH   2   5
HETATM    5  C   UNL     1     -43.736  57.084 -53.547  1.00  0.00     0.161 C 
BRANCH   5   6
HETATM    6  C   UNL     1     -44.216  57.922 -54.706  1.00  0.00    -0.038 A 
HETATM    7  C   UNL     1     -43.862  57.677 -56.040  1.00  0.00     0.045 A 
HETATM    8  C   UNL     1     -44.246  58.555 -57.064  1.00  0.00     0.070 A 
HETATM    9  C   UNL     1     -44.985  59.696 -56.749  1.00  0.00     0.037 A 
HETATM   10  C   UNL     1     -45.339  59.957 -55.426  1.00  0.00     0.003 A 
HETATM   11  C   UNL     1     -44.956  59.079 -54.415  1.00  0.00     0.009 A 
BRANCH   8  12
HETATM   12  O   UNL     1     -43.837  58.194 -58.321  1.00  0.00    -0.342 OA
BRANCH  12  13
HETATM   13  C   UNL     1     -42.885  57.133 -58.398  1.00  0.00     0.278 C 
BRANCH  13  14
HETATM   14  C   UNL     1     -42.551  56.791 -59.848  1.00  0.00     0.239 C 
HETATM   15  N   UNL     1     -41.240  56.926 -60.203  1.00  0.00    -0.368 N 
HETATM   16  H   UNL     1     -40.601  57.424 -59.594  1.00  0.00     0.159 HD
HETATM   17  H   UNL     1     -40.988  56.765 -61.168  1.00  0.00     0.159 HD
HETATM   18  O   UNL     1     -43.381  56.368 -60.646  1.00  0.00    -0.271 OA
ENDBRANCH  13  14
ENDBRANCH  12  13
ENDBRANCH   8  12
ENDBRANCH   5   6
ENDBRANCH   2   5
BRANCH   1  19
HETATM   19  C   UNL     1     -40.898  54.704 -53.699  1.00  0.00     0.075 A 
HETATM   20  C   UNL     1     -40.264  54.187 -54.849  1.00  0.00     0.158 A 
HETATM   21  N   UNL     1     -39.838  52.937 -54.693  1.00  0.00    -0.183 NA
HETATM   22  N   UNL     1     -40.243  52.612 -53.448  1.00  0.00    -0.268 N 
HETATM   23  C   UNL     1     -40.841  53.666 -52.781  1.00  0.00     0.052 A 
BRANCH  22  24
HETATM   24  C   UNL     1     -40.169  51.215 -53.010  1.00  0.00     0.106 C 
HETATM   25  C   UNL     1     -39.796  50.325 -54.202  1.00  0.00     0.034 C 
BRANCH  24  26
HETATM   26  C   UNL     1     -39.194  50.951 -51.843  1.00  0.00     0.022 C 
HETATM   27  C   UNL     1     -39.667  49.851 -50.903  1.00  0.00     0.007 C 
ENDBRANCH  24  26
ENDBRANCH  22  24
BRANCH  23  28
HETATM   28  C   UNL     1     -41.392  53.586 -51.356  1.00  0.00     0.038 A 
HETATM   29  C   UNL     1     -40.486  53.879 -50.183  1.00  0.00     0.011 A 
HETATM   30  C   UNL     1     -41.574  54.837 -50.529  1.00  0.00     0.011 A 
ENDBRANCH  23  28
ENDBRANCH   1  19
TORSDOF 9
ENDMDL
MODEL 8
REMARK VINA RESULT:      -6.6      3.618      5.112
REMARK  9 active torsions:
REMARK  status: ('A' for Active; 'I' for Inactive)
REMARK    1  A    between atoms: C_2  and  C_3 
REMARK    2  A    between atoms: C_3  and  N_4 
REMARK    3  A    between atoms: C_7  and  C_8 
REMARK       I    between atoms: C_8  and  N_9 
REMARK    4  A    between atoms: N_9  and  C_10 
REMARK    5  A    between atoms: C_10  and  C_11 
REMARK    6  A    between atoms: C_13  and  O_14 
REMARK    7  A    between atoms: O_14  and  C_15 
REMARK    8  A    between atoms: C_15  and  C_16 
REMARK       I    between atoms: C_16  and  N_17 
REMARK    9  A    between atoms: C_23  and  C_24 
ROOT
HETATM    1  C   UNL     1     -42.697  55.830 -55.668  1.00  0.00     0.255 C 
HETATM    2  N   UNL     1     -41.319  55.883 -55.614  1.00  0.00    -0.353 N 
HETATM    3  O   UNL     1     -43.395  55.517 -54.707  1.00  0.00    -0.268 OA
HETATM    4  H   UNL     1     -40.831  56.354 -56.362  1.00  0.00     0.163 HD
ENDROOT
BRANCH   2   5
HETATM    5  C   UNL     1     -40.684  55.760 -54.321  1.00  0.00     0.161 C 
BRANCH   5   6
HETATM    6  C   UNL     1     -40.513  54.357 -53.795  1.00  0.00    -0.038 A 
HETATM    7  C   UNL     1     -40.504  54.036 -52.430  1.00  0.00     0.045 A 
HETATM    8  C   UNL     1     -40.230  52.731 -51.996  1.00  0.00     0.070 A 
HETATM    9  C   UNL     1     -39.951  51.738 -52.936  1.00  0.00     0.037 A 
HETATM   10  C   UNL     1     -39.949  52.044 -54.296  1.00  0.00     0.003 A 
HETATM   11  C   UNL     1     -40.226  53.341 -54.720  1.00  0.00     0.009 A 
BRANCH   8  12
HETATM   12  O   UNL     1     -40.257  52.554 -50.637  1.00  0.00    -0.342 OA
BRANCH  12  13
HETATM   13  C   UNL     1     -39.756  53.632 -49.848  1.00  0.00     0.278 C 
BRANCH  13  14
HETATM   14  C   UNL     1     -40.754  54.040 -48.766  1.00  0.00     0.239 C 
HETATM   15  N   UNL     1     -40.284  54.016 -47.485  1.00  0.00    -0.368 N 
HETATM   16  H   UNL     1     -39.407  53.552 -47.278  1.00  0.00     0.159 HD
HETATM   17  H   UNL     1     -40.930  54.223 -46.736  1.00  0.00     0.159 HD
HETATM   18  O   UNL     1     -41.894  54.420 -49.014  1.00  0.00    -0.271 OA
ENDBRANCH  13  14
ENDBRANCH  12  13
ENDBRANCH   8  12
ENDBRANCH   5   6
ENDBRANCH   2   5
BRANCH   1  19
HETATM   19  C   UNL     1     -43.288  56.266 -56.911  1.00  0.00     0.075 A 
HETATM   20  C   UNL     1     -43.224  55.547 -58.123  1.00  0.00     0.158 A 
HETATM   21  N   UNL     1     -43.707  56.226 -59.159  1.00  0.00    -0.183 NA
HETATM   22  N   UNL     1     -44.041  57.422 -58.633  1.00  0.00    -0.268 N 
HETATM   23  C   UNL     1     -43.860  57.480 -57.263  1.00  0.00     0.052 A 
BRANCH  22  24
HETATM   24  C   UNL     1     -44.381  58.532 -59.528  1.00  0.00     0.106 C 
HETATM   25  C   UNL     1     -43.200  58.812 -60.465  1.00  0.00     0.034 C 
BRANCH  24  26
HETATM   26  C   UNL     1     -45.664  58.324 -60.362  1.00  0.00     0.022 C 
HETATM   27  C   UNL     1     -46.873  57.944 -59.520  1.00  0.00     0.007 C 
ENDBRANCH  24  26
ENDBRANCH  22  24
BRANCH  23  28
HETATM   28  C   UNL     1     -44.159  58.710 -56.402  1.00  0.00     0.038 A 
HETATM   29  C   UNL     1     -45.576  59.224 -56.295  1.00  0.00     0.011 A 
HETATM   30  C   UNL     1     -44.936  58.578 -55.114  1.00  0.00     0.011 A 
ENDBRANCH  23  28
ENDBRANCH   1  19
TORSDOF 9
ENDMDL
MODEL 9
REMARK VINA RESULT:      -6.5      4.082      7.841
REMARK  9 active torsions:
REMARK  status: ('A' for Active; 'I' for Inactive)
REMARK    1  A    between atoms: C_2  and  C_3 
REMARK    2  A    between atoms: C_3  and  N_4 
REMARK    3  A    between atoms: C_7  and  C_8 
REMARK       I    between atoms: C_8  and  N_9 
REMARK    4  A    between atoms: N_9  and  C_10 
REMARK    5  A    between atoms: C_10  and  C_11 
REMARK    6  A    between atoms: C_13  and  O_14 
REMARK    7  A    between atoms: O_14  and  C_15 
REMARK    8  A    between atoms: C_15  and  C_16 
REMARK       I    between atoms: C_16  and  N_17 
REMARK    9  A    between atoms: C_23  and  C_24 
ROOT
HETATM    1  C   UNL     1     -42.367  57.939 -54.292  1.00  0.00     0.255 C 
HETATM    2  N   UNL     1     -43.484  57.764 -55.083  1.00  0.00    -0.353 N 
HETATM    3  O   UNL     1     -41.543  58.829 -54.482  1.00  0.00    -0.268 OA
HETATM    4  H   UNL     1     -44.221  57.163 -54.741  1.00  0.00     0.163 HD
ENDROOT
BRANCH   2   5
HETATM    5  C   UNL     1     -43.801  58.791 -56.050  1.00  0.00     0.161 C 
BRANCH   5   6
HETATM    6  C   UNL     1     -43.549  58.444 -57.495  1.00  0.00    -0.038 A 
HETATM    7  C   UNL     1     -44.551  58.013 -58.376  1.00  0.00     0.045 A 
HETATM    8  C   UNL     1     -44.240  57.596 -59.679  1.00  0.00     0.070 A 
HETATM    9  C   UNL     1     -42.911  57.600 -60.103  1.00  0.00     0.037 A 
HETATM   10  C   UNL     1     -41.902  58.019 -59.236  1.00  0.00     0.003 A 
HETATM   11  C   UNL     1     -42.219  58.435 -57.945  1.00  0.00     0.009 A 
BRANCH   8  12
HETATM   12  O   UNL     1     -45.314  57.204 -60.434  1.00  0.00    -0.342 OA
BRANCH  12  13
HETATM   13  C   UNL     1     -45.900  55.946 -60.099  1.00  0.00     0.278 C 
BRANCH  13  14
HETATM   14  C   UNL     1     -45.141  54.790 -60.746  1.00  0.00     0.239 C 
HETATM   15  N   UNL     1     -44.795  53.767 -59.912  1.00  0.00    -0.368 N 
HETATM   16  H   UNL     1     -44.856  53.891 -58.908  1.00  0.00     0.159 HD
HETATM   17  H   UNL     1     -44.241  53.010 -60.289  1.00  0.00     0.159 HD
HETATM   18  O   UNL     1     -44.894  54.738 -61.947  1.00  0.00    -0.271 OA
ENDBRANCH  13  14
ENDBRANCH  12  13
ENDBRANCH   8  12
ENDBRANCH   5   6
ENDBRANCH   2   5
BRANCH   1  19
HETATM   19  C   UNL     1     -42.271  57.063 -53.148  1.00  0.00     0.075 A 
HETATM   20  C   UNL     1     -42.838  57.333 -51.883  1.00  0.00     0.158 A 
HETATM   21  N   UNL     1     -42.480  56.452 -50.953  1.00  0.00    -0.183 NA
HETATM   22  N   UNL     1     -41.629  55.629 -51.599  1.00  0.00    -0.268 N 
HETATM   23  C   UNL     1     -41.510  55.921 -52.946  1.00  0.00     0.052 A 
BRANCH  22  24
HETATM   24  C   UNL     1     -40.831  54.672 -50.828  1.00  0.00     0.106 C 
HETATM   25  C   UNL     1     -40.864  55.058 -49.344  1.00  0.00     0.034 C 
BRANCH  24  26
HETATM   26  C   UNL     1     -41.254  53.196 -50.987  1.00  0.00     0.022 C 
HETATM   27  C   UNL     1     -40.075  52.236 -51.055  1.00  0.00     0.007 C 
ENDBRANCH  24  26
ENDBRANCH  22  24
BRANCH  23  28
HETATM   28  C   UNL     1     -40.618  55.152 -53.922  1.00  0.00     0.038 A 
HETATM   29  C   UNL     1     -41.056  53.799 -54.432  1.00  0.00     0.011 A 
HETATM   30  C   UNL     1     -41.035  54.963 -55.362  1.00  0.00     0.011 A 
ENDBRANCH  23  28
ENDBRANCH   1  19
TORSDOF 9
ENDMDL
MODEL 10
REMARK VINA RESULT:      -6.4      2.982      4.593
REMARK  9 active torsions:
REMARK  status: ('A' for Active; 'I' for Inactive)
REMARK    1  A    between atoms: C_2  and  C_3 
REMARK    2  A    between atoms: C_3  and  N_4 
REMARK    3  A    between atoms: C_7  and  C_8 
REMARK       I    between atoms: C_8  and  N_9 
REMARK    4  A    between atoms: N_9  and  C_10 
REMARK    5  A    between atoms: C_10  and  C_11 
REMARK    6  A    between atoms: C_13  and  O_14 
REMARK    7  A    between atoms: O_14  and  C_15 
REMARK    8  A    between atoms: C_15  and  C_16 
REMARK       I    between atoms: C_16  and  N_17 
REMARK    9  A    between atoms: C_23  and  C_24 
ROOT
HETATM    1  C   UNL     1     -42.106  55.133 -55.875  1.00  0.00     0.255 C 
HETATM    2  N   UNL     1     -40.816  54.747 -55.575  1.00  0.00    -0.353 N 
HETATM    3  O   UNL     1     -43.045  54.344 -55.942  1.00  0.00    -0.268 OA
HETATM    4  H   UNL     1     -40.150  55.464 -55.322  1.00  0.00     0.163 HD
ENDROOT
BRANCH   2   5
HETATM    5  C   UNL     1     -40.600  53.390 -55.124  1.00  0.00     0.161 C 
BRANCH   5   6
HETATM    6  C   UNL     1     -40.587  53.180 -53.631  1.00  0.00    -0.038 A 
HETATM    7  C   UNL     1     -41.190  54.057 -52.719  1.00  0.00     0.045 A 
HETATM    8  C   UNL     1     -41.051  53.871 -51.335  1.00  0.00     0.070 A 
HETATM    9  C   UNL     1     -40.292  52.802 -50.859  1.00  0.00     0.037 A 
HETATM   10  C   UNL     1     -39.680  51.925 -51.754  1.00  0.00     0.003 A 
HETATM   11  C   UNL     1     -39.826  52.114 -53.126  1.00  0.00     0.009 A 
BRANCH   8  12
HETATM   12  O   UNL     1     -41.694  54.799 -50.558  1.00  0.00    -0.342 OA
BRANCH  12  13
HETATM   13  C   UNL     1     -42.485  55.765 -51.248  1.00  0.00     0.278 C 
BRANCH  13  14
HETATM   14  C   UNL     1     -43.940  55.723 -50.787  1.00  0.00     0.239 C 
HETATM   15  N   UNL     1     -44.423  54.490 -50.458  1.00  0.00    -0.368 N 
HETATM   16  H   UNL     1     -43.904  53.659 -50.719  1.00  0.00     0.159 HD
HETATM   17  H   UNL     1     -45.398  54.411 -50.204  1.00  0.00     0.159 HD
HETATM   18  O   UNL     1     -44.633  56.727 -50.659  1.00  0.00    -0.271 OA
ENDBRANCH  13  14
ENDBRANCH  12  13
ENDBRANCH   8  12
ENDBRANCH   5   6
ENDBRANCH   2   5
BRANCH   1  19
HETATM   19  C   UNL     1     -42.314  56.556 -56.012  1.00  0.00     0.075 A 
HETATM   20  C   UNL     1     -42.051  57.504 -55.000  1.00  0.00     0.158 A 
HETATM   21  N   UNL     1     -42.469  58.727 -55.311  1.00  0.00    -0.183 NA
HETATM   22  N   UNL     1     -43.061  58.571 -56.513  1.00  0.00    -0.268 N 
HETATM   23  C   UNL     1     -42.945  57.285 -57.009  1.00  0.00     0.052 A 
BRANCH  22  24
HETATM   24  C   UNL     1     -43.865  59.663 -57.067  1.00  0.00     0.106 C 
HETATM   25  C   UNL     1     -44.338  60.576 -55.929  1.00  0.00     0.034 C 
BRANCH  24  26
HETATM   26  C   UNL     1     -43.157  60.509 -58.147  1.00  0.00     0.022 C 
HETATM   27  C   UNL     1     -41.641  60.503 -58.016  1.00  0.00     0.007 C 
ENDBRANCH  24  26
ENDBRANCH  22  24
BRANCH  23  28
HETATM   28  C   UNL     1     -43.517  56.821 -58.351  1.00  0.00     0.038 A 
HETATM   29  C   UNL     1     -42.812  57.191 -59.635  1.00  0.00     0.011 A 
HETATM   30  C   UNL     1     -42.802  55.774 -59.172  1.00  0.00     0.011 A 
ENDBRANCH  23  28
ENDBRANCH   1  19
TORSDOF 9
ENDMDL
