MODEL 1
REMARK VINA RESULT:      -9.8      0.000      0.000
REMARK  7 active torsions:
REMARK  status: ('A' for Active; 'I' for Inactive)
REMARK    1  A    between atoms: C_2  and  C_3 
REMARK    2  A    between atoms: N_16  and  C_17 
REMARK    3  A    between atoms: C_17  and  C_18 
REMARK       I    between atoms: C_18  and  N_19 
REMARK    4  A    between atoms: N_19  and  C_20 
REMARK    5  A    between atoms: C_21  and  C_22 
REMARK       I    between atoms: C_22  and  N_23 
REMARK    6  A    between atoms: N_23  and  C_24 
REMARK    7  A    between atoms: C_24  and  C_25 
ROOT
HETATM    1  C   UNL     1     -43.404  58.454 -52.408  1.00  0.00     0.240 C 
ENDROOT
BRANCH   1   2
HETATM    2  N   UNL     1     -42.924  57.188 -51.885  1.00  0.00    -0.259 N 
HETATM    3  C   UNL     1     -43.634  56.409 -51.028  1.00  0.00     0.326 A 
HETATM    4  N   UNL     1     -42.855  55.352 -50.642  1.00  0.00    -0.321 N 
HETATM    5  O   UNL     1     -44.785  56.574 -50.668  1.00  0.00    -0.247 OA
HETATM    6  C   UNL     1     -41.503  55.427 -51.160  1.00  0.00     0.140 A 
HETATM    7  H   UNL     1     -43.183  54.675 -49.964  1.00  0.00     0.165 HD
HETATM    8  C   UNL     1     -40.527  55.621 -49.998  1.00  0.00     0.054 C 
HETATM    9  C   UNL     1     -41.633  56.743 -51.970  1.00  0.00     0.261 A 
HETATM   10  O   UNL     1     -40.723  57.313 -52.559  1.00  0.00    -0.270 OA
BRANCH   6  11
HETATM   11  C   UNL     1     -41.140  54.247 -52.056  1.00  0.00    -0.020 A 
HETATM   12  C   UNL     1     -40.569  53.090 -51.491  1.00  0.00     0.022 A 
HETATM   13  C   UNL     1     -40.218  51.973 -52.271  1.00  0.00    -0.025 A 
HETATM   14  C   UNL     1     -40.434  52.010 -53.664  1.00  0.00    -0.026 A 
HETATM   15  C   UNL     1     -39.656  50.823 -51.693  1.00  0.00     0.012 A 
HETATM   16  C   UNL     1     -40.993  53.161 -54.236  1.00  0.00     0.013 A 
HETATM   17  C   UNL     1     -40.081  50.896 -54.444  1.00  0.00     0.012 A 
HETATM   18  C   UNL     1     -41.341  54.262 -53.445  1.00  0.00     0.011 A 
HETATM   19  C   UNL     1     -39.524  49.760 -53.855  1.00  0.00     0.001 A 
HETATM   20  C   UNL     1     -39.313  49.723 -52.481  1.00  0.00     0.001 A 
ENDBRANCH   6  11
ENDBRANCH   1   2
BRANCH   1  21
HETATM   21  C   UNL     1     -43.657  58.447 -53.917  1.00  0.00     0.240 C 
HETATM   22  N   UNL     1     -42.526  58.319 -54.717  1.00  0.00    -0.325 N 
HETATM   23  H   UNL     1     -41.759  57.890 -54.214  1.00  0.00     0.169 HD
HETATM   24  O   UNL     1     -44.792  58.623 -54.364  1.00  0.00    -0.271 OA
BRANCH  22  25
HETATM   25  C   UNL     1     -42.663  57.860 -56.052  1.00  0.00     0.050 A 
HETATM   26  C   UNL     1     -42.632  58.662 -57.210  1.00  0.00     0.058 A 
HETATM   27  C   UNL     1     -42.792  58.043 -58.467  1.00  0.00     0.019 A 
HETATM   28  C   UNL     1     -42.970  56.663 -58.582  1.00  0.00     0.001 A 
HETATM   29  C   UNL     1     -42.960  55.872 -57.442  1.00  0.00     0.002 A 
HETATM   30  C   UNL     1     -42.798  56.465 -56.189  1.00  0.00     0.030 A 
BRANCH  26  31
HETATM   31  C   UNL     1     -42.253  60.103 -57.278  1.00  0.00     0.254 C 
HETATM   32  N   UNL     1     -41.340  60.489 -58.220  1.00  0.00    -0.351 N 
HETATM   33  H   UNL     1     -40.852  59.773 -58.753  1.00  0.00     0.163 HD
HETATM   34  O   UNL     1     -42.727  60.881 -56.454  1.00  0.00    -0.268 OA
BRANCH  32  35
HETATM   35  C   UNL     1     -40.817  61.831 -58.291  1.00  0.00     0.187 C 
BRANCH  35  36
HETATM   36  C   UNL     1     -40.573  62.189 -59.711  1.00  0.00     0.070 A 
HETATM   37  O   UNL     1     -39.544  63.050 -59.969  1.00  0.00    -0.325 OA
HETATM   38  C   UNL     1     -39.530  63.260 -61.310  1.00  0.00     0.142 A 
HETATM   39  C   UNL     1     -40.534  62.544 -61.921  1.00  0.00     0.027 A 
HETATM   40  C   UNL     1     -41.206  61.848 -60.889  1.00  0.00     0.036 A 
ENDBRANCH  35  36
ENDBRANCH  32  35
ENDBRANCH  26  31
ENDBRANCH  22  25
ENDBRANCH   1  21
TORSDOF 7
ENDMDL
MODEL 2
REMARK VINA RESULT:      -9.6      2.132      4.053
REMARK  7 active torsions:
REMARK  status: ('A' for Active; 'I' for Inactive)
REMARK    1  A    between atoms: C_2  and  C_3 
REMARK    2  A    between atoms: N_16  and  C_17 
REMARK    3  A    between atoms: C_17  and  C_18 
REMARK       I    between atoms: C_18  and  N_19 
REMARK    4  A    between atoms: N_19  and  C_20 
REMARK    5  A    between atoms: C_21  and  C_22 
REMARK       I    between atoms: C_22  and  N_23 
REMARK    6  A    between atoms: N_23  and  C_24 
REMARK    7  A    between atoms: C_24  and  C_25 
ROOT
HETATM    1  C   UNL     1     -42.937  59.602 -53.136  1.00  0.00     0.240 C 
ENDROOT
BRANCH   1   2
HETATM    2  N   UNL     1     -43.270  58.202 -52.944  1.00  0.00    -0.259 N 
HETATM    3  C   UNL     1     -44.455  57.651 -53.313  1.00  0.00     0.326 A 
HETATM    4  N   UNL     1     -44.491  56.351 -52.889  1.00  0.00    -0.321 N 
HETATM    5  O   UNL     1     -45.347  58.186 -53.948  1.00  0.00    -0.247 OA
HETATM    6  C   UNL     1     -43.333  55.982 -52.099  1.00  0.00     0.140 A 
HETATM    7  H   UNL     1     -45.312  55.775 -53.023  1.00  0.00     0.165 HD
HETATM    8  C   UNL     1     -43.774  55.691 -50.662  1.00  0.00     0.054 C 
HETATM    9  C   UNL     1     -42.568  57.330 -52.156  1.00  0.00     0.261 A 
HETATM   10  O   UNL     1     -41.527  57.587 -51.566  1.00  0.00    -0.270 OA
BRANCH   6  11
HETATM   11  C   UNL     1     -42.523  54.848 -52.717  1.00  0.00    -0.020 A 
HETATM   12  C   UNL     1     -41.637  54.103 -51.914  1.00  0.00     0.022 A 
HETATM   13  C   UNL     1     -40.868  53.045 -52.434  1.00  0.00    -0.025 A 
HETATM   14  C   UNL     1     -40.979  52.720 -53.801  1.00  0.00    -0.026 A 
HETATM   15  C   UNL     1     -39.994  52.307 -51.620  1.00  0.00     0.012 A 
HETATM   16  C   UNL     1     -41.852  53.461 -54.609  1.00  0.00     0.013 A 
HETATM   17  C   UNL     1     -40.211  51.665 -54.321  1.00  0.00     0.012 A 
HETATM   18  C   UNL     1     -42.613  54.507 -54.076  1.00  0.00     0.011 A 
HETATM   19  C   UNL     1     -39.346  50.940 -53.499  1.00  0.00     0.001 A 
HETATM   20  C   UNL     1     -39.239  51.260 -52.150  1.00  0.00     0.001 A 
ENDBRANCH   6  11
ENDBRANCH   1   2
BRANCH   1  21
HETATM   21  C   UNL     1     -42.258  59.900 -54.475  1.00  0.00     0.240 C 
HETATM   22  N   UNL     1     -43.109  60.025 -55.568  1.00  0.00    -0.325 N 
HETATM   23  H   UNL     1     -44.051  60.263 -55.284  1.00  0.00     0.169 HD
HETATM   24  O   UNL     1     -41.029  59.945 -54.558  1.00  0.00    -0.271 OA
BRANCH  22  25
HETATM   25  C   UNL     1     -42.665  60.721 -56.722  1.00  0.00     0.050 A 
HETATM   26  C   UNL     1     -42.120  60.136 -57.882  1.00  0.00     0.058 A 
HETATM   27  C   UNL     1     -41.720  60.978 -58.940  1.00  0.00     0.019 A 
HETATM   28  C   UNL     1     -41.865  62.364 -58.863  1.00  0.00     0.001 A 
HETATM   29  C   UNL     1     -42.440  62.933 -57.735  1.00  0.00     0.002 A 
HETATM   30  C   UNL     1     -42.846  62.117 -56.678  1.00  0.00     0.030 A 
BRANCH  26  31
HETATM   31  C   UNL     1     -42.084  58.681 -58.207  1.00  0.00     0.254 C 
HETATM   32  N   UNL     1     -42.229  58.306 -59.513  1.00  0.00    -0.351 N 
HETATM   33  H   UNL     1     -42.486  59.010 -60.201  1.00  0.00     0.163 HD
HETATM   34  O   UNL     1     -41.984  57.871 -57.289  1.00  0.00    -0.268 OA
BRANCH  32  35
HETATM   35  C   UNL     1     -42.331  56.925 -59.918  1.00  0.00     0.187 C 
BRANCH  35  36
HETATM   36  C   UNL     1     -43.762  56.557 -60.054  1.00  0.00     0.070 A 
HETATM   37  O   UNL     1     -44.082  55.639 -61.014  1.00  0.00    -0.325 OA
HETATM   38  C   UNL     1     -45.431  55.486 -60.983  1.00  0.00     0.142 A 
HETATM   39  C   UNL     1     -45.985  56.290 -60.013  1.00  0.00     0.027 A 
HETATM   40  C   UNL     1     -44.907  56.979 -59.409  1.00  0.00     0.036 A 
ENDBRANCH  35  36
ENDBRANCH  32  35
ENDBRANCH  26  31
ENDBRANCH  22  25
ENDBRANCH   1  21
TORSDOF 7
ENDMDL
MODEL 3
REMARK VINA RESULT:      -9.5      4.299      7.953
REMARK  7 active torsions:
REMARK  status: ('A' for Active; 'I' for Inactive)
REMARK    1  A    between atoms: C_2  and  C_3 
REMARK    2  A    between atoms: N_16  and  C_17 
REMARK    3  A    between atoms: C_17  and  C_18 
REMARK       I    between atoms: C_18  and  N_19 
REMARK    4  A    between atoms: N_19  and  C_20 
REMARK    5  A    between atoms: C_21  and  C_22 
REMARK       I    between atoms: C_22  and  N_23 
REMARK    6  A    between atoms: N_23  and  C_24 
REMARK    7  A    between atoms: C_24  and  C_25 
ROOT
HETATM    1  C   UNL     1     -41.979  59.014 -51.118  1.00  0.00     0.240 C 
ENDROOT
BRANCH   1   2
HETATM    2  N   UNL     1     -41.616  57.955 -52.042  1.00  0.00    -0.259 N 
HETATM    3  C   UNL     1     -40.686  58.096 -53.022  1.00  0.00     0.326 A 
HETATM    4  N   UNL     1     -40.667  56.958 -53.782  1.00  0.00    -0.321 N 
HETATM    5  O   UNL     1     -39.949  59.049 -53.203  1.00  0.00    -0.247 OA
HETATM    6  C   UNL     1     -41.689  56.005 -53.398  1.00  0.00     0.140 A 
HETATM    7  H   UNL     1     -40.073  56.878 -54.597  1.00  0.00     0.165 HD
HETATM    8  C   UNL     1     -42.703  55.865 -54.535  1.00  0.00     0.054 C 
HETATM    9  C   UNL     1     -42.318  56.794 -52.220  1.00  0.00     0.261 A 
HETATM   10  O   UNL     1     -43.303  56.454 -51.577  1.00  0.00    -0.270 OA
BRANCH   6  11
HETATM   11  C   UNL     1     -41.118  54.667 -52.939  1.00  0.00    -0.020 A 
HETATM   12  C   UNL     1     -41.038  53.592 -53.846  1.00  0.00     0.022 A 
HETATM   13  C   UNL     1     -40.518  52.339 -53.475  1.00  0.00    -0.025 A 
HETATM   14  C   UNL     1     -40.066  52.144 -52.154  1.00  0.00    -0.026 A 
HETATM   15  C   UNL     1     -40.439  51.278 -54.392  1.00  0.00     0.012 A 
HETATM   16  C   UNL     1     -40.149  53.205 -51.242  1.00  0.00     0.013 A 
HETATM   17  C   UNL     1     -39.548  50.892 -51.782  1.00  0.00     0.012 A 
HETATM   18  C   UNL     1     -40.666  54.447 -51.628  1.00  0.00     0.011 A 
HETATM   19  C   UNL     1     -39.475  49.848 -52.705  1.00  0.00     0.001 A 
HETATM   20  C   UNL     1     -39.919  50.041 -54.009  1.00  0.00     0.001 A 
ENDBRANCH   6  11
ENDBRANCH   1   2
BRANCH   1  21
HETATM   21  C   UNL     1     -43.032  59.981 -51.664  1.00  0.00     0.240 C 
HETATM   22  N   UNL     1     -44.356  59.605 -51.468  1.00  0.00    -0.325 N 
HETATM   23  H   UNL     1     -44.451  58.958 -50.695  1.00  0.00     0.169 HD
HETATM   24  O   UNL     1     -42.694  60.982 -52.300  1.00  0.00    -0.271 OA
BRANCH  22  25
HETATM   25  C   UNL     1     -45.377  60.590 -51.518  1.00  0.00     0.050 A 
HETATM   26  C   UNL     1     -45.763  61.436 -50.460  1.00  0.00     0.058 A 
HETATM   27  C   UNL     1     -46.807  62.359 -50.677  1.00  0.00     0.019 A 
HETATM   28  C   UNL     1     -47.449  62.453 -51.913  1.00  0.00     0.001 A 
HETATM   29  C   UNL     1     -47.039  61.645 -52.964  1.00  0.00     0.002 A 
HETATM   30  C   UNL     1     -46.004  60.729 -52.771  1.00  0.00     0.030 A 
BRANCH  26  31
HETATM   31  C   UNL     1     -45.054  61.605 -49.158  1.00  0.00     0.254 C 
HETATM   32  N   UNL     1     -45.435  60.818 -48.107  1.00  0.00    -0.351 N 
HETATM   33  H   UNL     1     -46.268  60.241 -48.201  1.00  0.00     0.163 HD
HETATM   34  O   UNL     1     -44.196  62.478 -49.059  1.00  0.00    -0.268 OA
BRANCH  32  35
HETATM   35  C   UNL     1     -44.900  60.985 -46.778  1.00  0.00     0.187 C 
BRANCH  35  36
HETATM   36  C   UNL     1     -45.574  62.130 -46.117  1.00  0.00     0.070 A 
HETATM   37  O   UNL     1     -46.930  62.217 -46.251  1.00  0.00    -0.325 OA
HETATM   38  C   UNL     1     -47.320  63.347 -45.605  1.00  0.00     0.142 A 
HETATM   39  C   UNL     1     -46.235  63.987 -45.054  1.00  0.00     0.027 A 
HETATM   40  C   UNL     1     -45.106  63.199 -45.380  1.00  0.00     0.036 A 
ENDBRANCH  35  36
ENDBRANCH  32  35
ENDBRANCH  26  31
ENDBRANCH  22  25
ENDBRANCH   1  21
TORSDOF 7
ENDMDL
MODEL 4
REMARK VINA RESULT:      -9.5      1.908      2.940
REMARK  7 active torsions:
REMARK  status: ('A' for Active; 'I' for Inactive)
REMARK    1  A    between atoms: C_2  and  C_3 
REMARK    2  A    between atoms: N_16  and  C_17 
REMARK    3  A    between atoms: C_17  and  C_18 
REMARK       I    between atoms: C_18  and  N_19 
REMARK    4  A    between atoms: N_19  and  C_20 
REMARK    5  A    between atoms: C_21  and  C_22 
REMARK       I    between atoms: C_22  and  N_23 
REMARK    6  A    between atoms: N_23  and  C_24 
REMARK    7  A    between atoms: C_24  and  C_25 
ROOT
HETATM    1  C   UNL     1     -42.862  58.361 -55.537  1.00  0.00     0.240 C 
ENDROOT
BRANCH   1   2
HETATM    2  N   UNL     1     -42.902  57.507 -54.364  1.00  0.00    -0.259 N 
HETATM    3  C   UNL     1     -44.042  56.967 -53.863  1.00  0.00     0.326 A 
HETATM    4  N   UNL     1     -43.749  56.315 -52.696  1.00  0.00    -0.321 N 
HETATM    5  O   UNL     1     -45.153  57.006 -54.361  1.00  0.00    -0.247 OA
HETATM    6  C   UNL     1     -42.366  56.477 -52.291  1.00  0.00     0.140 A 
HETATM    7  H   UNL     1     -44.472  55.883 -52.137  1.00  0.00     0.165 HD
HETATM    8  C   UNL     1     -42.312  57.286 -50.993  1.00  0.00     0.054 C 
HETATM    9  C   UNL     1     -41.872  57.345 -53.477  1.00  0.00     0.261 A 
HETATM   10  O   UNL     1     -40.755  57.836 -53.588  1.00  0.00    -0.270 OA
BRANCH   6  11
HETATM   11  C   UNL     1     -41.609  55.157 -52.204  1.00  0.00    -0.020 A 
HETATM   12  C   UNL     1     -41.600  54.282 -53.309  1.00  0.00     0.022 A 
HETATM   13  C   UNL     1     -40.915  53.053 -53.283  1.00  0.00    -0.025 A 
HETATM   14  C   UNL     1     -40.221  52.676 -52.116  1.00  0.00    -0.026 A 
HETATM   15  C   UNL     1     -40.909  52.194 -54.394  1.00  0.00     0.012 A 
HETATM   16  C   UNL     1     -40.231  53.536 -51.009  1.00  0.00     0.013 A 
HETATM   17  C   UNL     1     -39.538  51.448 -52.088  1.00  0.00     0.012 A 
HETATM   18  C   UNL     1     -40.914  54.757 -51.052  1.00  0.00     0.011 A 
HETATM   19  C   UNL     1     -39.541  50.606 -53.201  1.00  0.00     0.001 A 
HETATM   20  C   UNL     1     -40.225  50.979 -54.353  1.00  0.00     0.001 A 
ENDBRANCH   6  11
ENDBRANCH   1   2
BRANCH   1  21
HETATM   21  C   UNL     1     -42.860  57.596 -56.863  1.00  0.00     0.240 C 
HETATM   22  N   UNL     1     -43.957  56.771 -57.085  1.00  0.00    -0.325 N 
HETATM   23  H   UNL     1     -44.758  57.058 -56.536  1.00  0.00     0.169 HD
HETATM   24  O   UNL     1     -41.895  57.669 -57.627  1.00  0.00    -0.271 OA
BRANCH  22  25
HETATM   25  C   UNL     1     -44.281  56.381 -58.410  1.00  0.00     0.050 A 
HETATM   26  C   UNL     1     -44.773  57.225 -59.424  1.00  0.00     0.058 A 
HETATM   27  C   UNL     1     -45.052  56.671 -60.690  1.00  0.00     0.019 A 
HETATM   28  C   UNL     1     -44.842  55.317 -60.955  1.00  0.00     0.001 A 
HETATM   29  C   UNL     1     -44.319  54.497 -59.965  1.00  0.00     0.002 A 
HETATM   30  C   UNL     1     -44.032  55.027 -58.707  1.00  0.00     0.030 A 
BRANCH  26  31
HETATM   31  C   UNL     1     -44.861  58.714 -59.371  1.00  0.00     0.254 C 
HETATM   32  N   UNL     1     -44.103  59.438 -60.248  1.00  0.00    -0.351 N 
HETATM   33  H   UNL     1     -43.409  58.955 -60.815  1.00  0.00     0.163 HD
HETATM   34  O   UNL     1     -45.563  59.236 -58.510  1.00  0.00    -0.268 OA
BRANCH  32  35
HETATM   35  C   UNL     1     -44.022  60.878 -60.200  1.00  0.00     0.187 C 
BRANCH  35  36
HETATM   36  C   UNL     1     -42.705  61.278 -59.645  1.00  0.00     0.070 A 
HETATM   37  O   UNL     1     -42.414  60.870 -58.375  1.00  0.00    -0.325 OA
HETATM   38  C   UNL     1     -41.191  61.374 -58.067  1.00  0.00     0.142 A 
HETATM   39  C   UNL     1     -40.689  62.099 -59.123  1.00  0.00     0.027 A 
HETATM   40  C   UNL     1     -41.664  62.034 -60.145  1.00  0.00     0.036 A 
ENDBRANCH  35  36
ENDBRANCH  32  35
ENDBRANCH  26  31
ENDBRANCH  22  25
ENDBRANCH   1  21
TORSDOF 7
ENDMDL
MODEL 5
REMARK VINA RESULT:      -9.4      2.906      5.556
REMARK  7 active torsions:
REMARK  status: ('A' for Active; 'I' for Inactive)
REMARK    1  A    between atoms: C_2  and  C_3 
REMARK    2  A    between atoms: N_16  and  C_17 
REMARK    3  A    between atoms: C_17  and  C_18 
REMARK       I    between atoms: C_18  and  N_19 
REMARK    4  A    between atoms: N_19  and  C_20 
REMARK    5  A    between atoms: C_21  and  C_22 
REMARK       I    between atoms: C_22  and  N_23 
REMARK    6  A    between atoms: N_23  and  C_24 
REMARK    7  A    between atoms: C_24  and  C_25 
ROOT
HETATM    1  C   UNL     1     -41.286  59.073 -50.647  1.00  0.00     0.240 C 
ENDROOT
BRANCH   1   2
HETATM    2  N   UNL     1     -41.276  58.009 -51.635  1.00  0.00    -0.259 N 
HETATM    3  C   UNL     1     -40.702  58.124 -52.860  1.00  0.00     0.326 A 
HETATM    4  N   UNL     1     -40.968  56.993 -53.583  1.00  0.00    -0.321 N 
HETATM    5  O   UNL     1     -40.026  59.051 -53.270  1.00  0.00    -0.247 OA
HETATM    6  C   UNL     1     -41.850  56.074 -52.889  1.00  0.00     0.140 A 
HETATM    7  H   UNL     1     -40.668  56.898 -54.544  1.00  0.00     0.165 HD
HETATM    8  C   UNL     1     -43.178  55.982 -53.644  1.00  0.00     0.054 C 
HETATM    9  C   UNL     1     -42.041  56.876 -51.575  1.00  0.00     0.261 A 
HETATM   10  O   UNL     1     -42.782  56.567 -50.650  1.00  0.00    -0.270 OA
BRANCH   6  11
HETATM   11  C   UNL     1     -41.212  54.713 -52.631  1.00  0.00    -0.020 A 
HETATM   12  C   UNL     1     -41.200  53.742 -53.651  1.00  0.00     0.022 A 
HETATM   13  C   UNL     1     -40.623  52.472 -53.466  1.00  0.00    -0.025 A 
HETATM   14  C   UNL     1     -40.044  52.153 -52.221  1.00  0.00    -0.026 A 
HETATM   15  C   UNL     1     -40.612  51.516 -54.495  1.00  0.00     0.012 A 
HETATM   16  C   UNL     1     -40.059  53.109 -51.198  1.00  0.00     0.013 A 
HETATM   17  C   UNL     1     -39.470  50.884 -52.035  1.00  0.00     0.012 A 
HETATM   18  C   UNL     1     -40.633  54.370 -51.399  1.00  0.00     0.011 A 
HETATM   19  C   UNL     1     -39.466  49.945 -53.068  1.00  0.00     0.001 A 
HETATM   20  C   UNL     1     -40.035  50.261 -54.297  1.00  0.00     0.001 A 
ENDBRANCH   6  11
ENDBRANCH   1   2
BRANCH   1  21
HETATM   21  C   UNL     1     -42.400  60.102 -50.853  1.00  0.00     0.240 C 
HETATM   22  N   UNL     1     -43.571  59.874 -50.139  1.00  0.00    -0.325 N 
HETATM   23  H   UNL     1     -43.407  59.293 -49.326  1.00  0.00     0.169 HD
HETATM   24  O   UNL     1     -42.264  61.018 -51.666  1.00  0.00    -0.271 OA
BRANCH  22  25
HETATM   25  C   UNL     1     -44.465  60.950 -49.902  1.00  0.00     0.050 A 
HETATM   26  C   UNL     1     -45.453  61.415 -50.790  1.00  0.00     0.058 A 
HETATM   27  C   UNL     1     -46.257  62.507 -50.399  1.00  0.00     0.019 A 
HETATM   28  C   UNL     1     -46.096  63.120 -49.155  1.00  0.00     0.001 A 
HETATM   29  C   UNL     1     -45.148  62.632 -48.266  1.00  0.00     0.002 A 
HETATM   30  C   UNL     1     -44.347  61.550 -48.633  1.00  0.00     0.030 A 
BRANCH  26  31
HETATM   31  C   UNL     1     -45.888  60.755 -52.055  1.00  0.00     0.254 C 
HETATM   32  N   UNL     1     -44.984  60.650 -53.075  1.00  0.00    -0.351 N 
HETATM   33  H   UNL     1     -44.094  61.136 -52.995  1.00  0.00     0.163 HD
HETATM   34  O   UNL     1     -47.054  60.380 -52.158  1.00  0.00    -0.268 OA
BRANCH  32  35
HETATM   35  C   UNL     1     -45.338  60.140 -54.377  1.00  0.00     0.187 C 
BRANCH  35  36
HETATM   36  C   UNL     1     -44.100  59.864 -55.150  1.00  0.00     0.070 A 
HETATM   37  O   UNL     1     -43.182  60.872 -55.237  1.00  0.00    -0.325 OA
HETATM   38  C   UNL     1     -42.164  60.414 -56.009  1.00  0.00     0.142 A 
HETATM   39  C   UNL     1     -42.411  59.125 -56.419  1.00  0.00     0.027 A 
HETATM   40  C   UNL     1     -43.660  58.766 -55.860  1.00  0.00     0.036 A 
ENDBRANCH  35  36
ENDBRANCH  32  35
ENDBRANCH  26  31
ENDBRANCH  22  25
ENDBRANCH   1  21
TORSDOF 7
ENDMDL
MODEL 6
REMARK VINA RESULT:      -9.3      4.724      7.323
REMARK  7 active torsions:
REMARK  status: ('A' for Active; 'I' for Inactive)
REMARK    1  A    between atoms: C_2  and  C_3 
REMARK    2  A    between atoms: N_16  and  C_17 
REMARK    3  A    between atoms: C_17  and  C_18 
REMARK       I    between atoms: C_18  and  N_19 
REMARK    4  A    between atoms: N_19  and  C_20 
REMARK    5  A    between atoms: C_21  and  C_22 
REMARK       I    between atoms: C_22  and  N_23 
REMARK    6  A    between atoms: N_23  and  C_24 
REMARK    7  A    between atoms: C_24  and  C_25 
ROOT
HETATM    1  C   UNL     1     -44.620  58.941 -53.033  1.00  0.00     0.240 C 
ENDROOT
BRANCH   1   2
HETATM    2  N   UNL     1     -43.870  57.887 -52.376  1.00  0.00    -0.259 N 
HETATM    3  C   UNL     1     -44.317  57.210 -51.287  1.00  0.00     0.326 A 
HETATM    4  N   UNL     1     -43.328  56.371 -50.849  1.00  0.00    -0.321 N 
HETATM    5  O   UNL     1     -45.421  57.286 -50.779  1.00  0.00    -0.247 OA
HETATM    6  C   UNL     1     -42.090  56.524 -51.589  1.00  0.00     0.140 A 
HETATM    7  H   UNL     1     -43.443  55.810 -50.016  1.00  0.00     0.165 HD
HETATM    8  C   UNL     1     -41.012  57.084 -50.658  1.00  0.00     0.054 C 
HETATM    9  C   UNL     1     -42.545  57.616 -52.591  1.00  0.00     0.261 A 
HETATM   10  O   UNL     1     -41.831  58.173 -53.415  1.00  0.00    -0.270 OA
BRANCH   6  11
HETATM   11  C   UNL     1     -41.659  55.248 -52.303  1.00  0.00    -0.020 A 
HETATM   12  C   UNL     1     -40.917  54.273 -51.607  1.00  0.00     0.022 A 
HETATM   13  C   UNL     1     -40.497  53.077 -52.218  1.00  0.00    -0.025 A 
HETATM   14  C   UNL     1     -40.818  52.845 -53.571  1.00  0.00    -0.026 A 
HETATM   15  C   UNL     1     -39.764  52.111 -51.510  1.00  0.00     0.012 A 
HETATM   16  C   UNL     1     -41.548  53.813 -54.274  1.00  0.00     0.013 A 
HETATM   17  C   UNL     1     -40.397  51.652 -54.182  1.00  0.00     0.012 A 
HETATM   18  C   UNL     1     -41.962  54.995 -53.650  1.00  0.00     0.011 A 
HETATM   19  C   UNL     1     -39.670  50.701 -53.464  1.00  0.00     0.001 A 
HETATM   20  C   UNL     1     -39.355  50.930 -52.129  1.00  0.00     0.001 A 
ENDBRANCH   6  11
ENDBRANCH   1   2
BRANCH   1  21
HETATM   21  C   UNL     1     -44.762  60.216 -52.199  1.00  0.00     0.240 C 
HETATM   22  N   UNL     1     -45.914  60.304 -51.424  1.00  0.00    -0.325 N 
HETATM   23  H   UNL     1     -46.307  59.391 -51.233  1.00  0.00     0.169 HD
HETATM   24  O   UNL     1     -43.930  61.121 -52.289  1.00  0.00    -0.271 OA
BRANCH  22  25
HETATM   25  C   UNL     1     -45.941  61.183 -50.311  1.00  0.00     0.050 A 
HETATM   26  C   UNL     1     -46.433  62.503 -50.311  1.00  0.00     0.058 A 
HETATM   27  C   UNL     1     -46.378  63.246 -49.113  1.00  0.00     0.019 A 
HETATM   28  C   UNL     1     -45.859  62.698 -47.939  1.00  0.00     0.001 A 
HETATM   29  C   UNL     1     -45.413  61.384 -47.934  1.00  0.00     0.002 A 
HETATM   30  C   UNL     1     -45.463  60.630 -49.107  1.00  0.00     0.030 A 
BRANCH  26  31
HETATM   31  C   UNL     1     -47.196  63.163 -51.409  1.00  0.00     0.254 C 
HETATM   32  N   UNL     1     -48.457  63.618 -51.139  1.00  0.00    -0.351 N 
HETATM   33  H   UNL     1     -48.885  63.379 -50.247  1.00  0.00     0.163 HD
HETATM   34  O   UNL     1     -46.692  63.224 -52.528  1.00  0.00    -0.268 OA
BRANCH  32  35
HETATM   35  C   UNL     1     -49.322  64.160 -52.158  1.00  0.00     0.187 C 
BRANCH  35  36
HETATM   36  C   UNL     1     -50.406  63.188 -52.450  1.00  0.00     0.070 A 
HETATM   37  O   UNL     1     -51.603  63.382 -51.822  1.00  0.00    -0.325 OA
HETATM   38  C   UNL     1     -52.420  62.368 -52.206  1.00  0.00     0.142 A 
HETATM   39  C   UNL     1     -51.767  61.524 -53.074  1.00  0.00     0.027 A 
HETATM   40  C   UNL     1     -50.466  62.056 -53.237  1.00  0.00     0.036 A 
ENDBRANCH  35  36
ENDBRANCH  32  35
ENDBRANCH  26  31
ENDBRANCH  22  25
ENDBRANCH   1  21
TORSDOF 7
ENDMDL
MODEL 7
REMARK VINA RESULT:      -9.3      2.485      4.190
REMARK  7 active torsions:
REMARK  status: ('A' for Active; 'I' for Inactive)
REMARK    1  A    between atoms: C_2  and  C_3 
REMARK    2  A    between atoms: N_16  and  C_17 
REMARK    3  A    between atoms: C_17  and  C_18 
REMARK       I    between atoms: C_18  and  N_19 
REMARK    4  A    between atoms: N_19  and  C_20 
REMARK    5  A    between atoms: C_21  and  C_22 
REMARK       I    between atoms: C_22  and  N_23 
REMARK    6  A    between atoms: N_23  and  C_24 
REMARK    7  A    between atoms: C_24  and  C_25 
ROOT
HETATM    1  C   UNL     1     -42.991  58.727 -52.072  1.00  0.00     0.240 C 
ENDROOT
BRANCH   1   2
HETATM    2  N   UNL     1     -42.180  57.753 -52.779  1.00  0.00    -0.259 N 
HETATM    3  C   UNL     1     -40.971  58.036 -53.329  1.00  0.00     0.326 A 
HETATM    4  N   UNL     1     -40.528  56.938 -54.016  1.00  0.00    -0.321 N 
HETATM    5  O   UNL     1     -40.340  59.072 -53.221  1.00  0.00    -0.247 OA
HETATM    6  C   UNL     1     -41.499  55.861 -54.045  1.00  0.00     0.140 A 
HETATM    7  H   UNL     1     -39.664  56.957 -54.541  1.00  0.00     0.165 HD
HETATM    8  C   UNL     1     -41.979  55.652 -55.483  1.00  0.00     0.054 C 
HETATM    9  C   UNL     1     -42.618  56.527 -53.204  1.00  0.00     0.261 A 
HETATM   10  O   UNL     1     -43.725  56.054 -52.984  1.00  0.00    -0.270 OA
BRANCH   6  11
HETATM   11  C   UNL     1     -40.990  54.580 -53.393  1.00  0.00    -0.020 A 
HETATM   12  C   UNL     1     -40.845  53.411 -54.167  1.00  0.00     0.022 A 
HETATM   13  C   UNL     1     -40.378  52.204 -53.615  1.00  0.00    -0.025 A 
HETATM   14  C   UNL     1     -40.050  52.153 -52.245  1.00  0.00    -0.026 A 
HETATM   15  C   UNL     1     -40.232  51.048 -54.400  1.00  0.00     0.012 A 
HETATM   16  C   UNL     1     -40.200  53.308 -51.466  1.00  0.00     0.013 A 
HETATM   17  C   UNL     1     -39.586  50.947 -51.693  1.00  0.00     0.012 A 
HETATM   18  C   UNL     1     -40.662  54.503 -52.030  1.00  0.00     0.011 A 
HETATM   19  C   UNL     1     -39.445  49.808 -52.487  1.00  0.00     0.001 A 
HETATM   20  C   UNL     1     -39.767  49.859 -53.839  1.00  0.00     0.001 A 
ENDBRANCH   6  11
ENDBRANCH   1   2
BRANCH   1  21
HETATM   21  C   UNL     1     -43.978  59.480 -52.967  1.00  0.00     0.240 C 
HETATM   22  N   UNL     1     -43.549  60.721 -53.426  1.00  0.00    -0.325 N 
HETATM   23  H   UNL     1     -42.540  60.795 -53.417  1.00  0.00     0.169 HD
HETATM   24  O   UNL     1     -45.102  59.023 -53.184  1.00  0.00    -0.271 OA
BRANCH  22  25
HETATM   25  C   UNL     1     -44.154  61.286 -54.578  1.00  0.00     0.050 A 
HETATM   26  C   UNL     1     -43.725  61.111 -55.908  1.00  0.00     0.058 A 
HETATM   27  C   UNL     1     -44.440  61.754 -56.941  1.00  0.00     0.019 A 
HETATM   28  C   UNL     1     -45.559  62.544 -56.669  1.00  0.00     0.001 A 
HETATM   29  C   UNL     1     -46.001  62.681 -55.361  1.00  0.00     0.002 A 
HETATM   30  C   UNL     1     -45.311  62.049 -54.326  1.00  0.00     0.030 A 
BRANCH  26  31
HETATM   31  C   UNL     1     -42.688  60.150 -56.385  1.00  0.00     0.254 C 
HETATM   32  N   UNL     1     -42.971  59.382 -57.480  1.00  0.00    -0.351 N 
HETATM   33  H   UNL     1     -43.918  59.390 -57.854  1.00  0.00     0.163 HD
HETATM   34  O   UNL     1     -41.644  60.042 -55.748  1.00  0.00    -0.268 OA
BRANCH  32  35
HETATM   35  C   UNL     1     -42.090  58.341 -57.947  1.00  0.00     0.187 C 
BRANCH  35  36
HETATM   36  C   UNL     1     -42.871  57.348 -58.726  1.00  0.00     0.070 A 
HETATM   37  O   UNL     1     -44.219  57.305 -58.507  1.00  0.00    -0.325 OA
HETATM   38  C   UNL     1     -44.716  56.313 -59.290  1.00  0.00     0.142 A 
HETATM   39  C   UNL     1     -43.708  55.718 -60.013  1.00  0.00     0.027 A 
HETATM   40  C   UNL     1     -42.516  56.389 -59.652  1.00  0.00     0.036 A 
ENDBRANCH  35  36
ENDBRANCH  32  35
ENDBRANCH  26  31
ENDBRANCH  22  25
ENDBRANCH   1  21
TORSDOF 7
ENDMDL
MODEL 8
REMARK VINA RESULT:      -9.2      4.613      8.196
REMARK  7 active torsions:
REMARK  status: ('A' for Active; 'I' for Inactive)
REMARK    1  A    between atoms: C_2  and  C_3 
REMARK    2  A    between atoms: N_16  and  C_17 
REMARK    3  A    between atoms: C_17  and  C_18 
REMARK       I    between atoms: C_18  and  N_19 
REMARK    4  A    between atoms: N_19  and  C_20 
REMARK    5  A    between atoms: C_21  and  C_22 
REMARK       I    between atoms: C_22  and  N_23 
REMARK    6  A    between atoms: N_23  and  C_24 
REMARK    7  A    between atoms: C_24  and  C_25 
ROOT
HETATM    1  C   UNL     1     -44.367  57.006 -51.302  1.00  0.00     0.240 C 
ENDROOT
BRANCH   1   2
HETATM    2  N   UNL     1     -43.114  56.611 -51.918  1.00  0.00    -0.259 N 
HETATM    3  C   UNL     1     -41.903  57.099 -51.544  1.00  0.00     0.326 A 
HETATM    4  N   UNL     1     -40.947  56.614 -52.395  1.00  0.00    -0.321 N 
HETATM    5  O   UNL     1     -41.666  57.823 -50.593  1.00  0.00    -0.247 OA
HETATM    6  C   UNL     1     -41.502  55.830 -53.480  1.00  0.00     0.140 A 
HETATM    7  H   UNL     1     -39.979  56.897 -52.316  1.00  0.00     0.165 HD
HETATM    8  C   UNL     1     -41.261  56.558 -54.804  1.00  0.00     0.054 C 
HETATM    9  C   UNL     1     -43.001  55.916 -53.092  1.00  0.00     0.261 A 
HETATM   10  O   UNL     1     -43.936  55.470 -53.746  1.00  0.00    -0.270 OA
BRANCH   6  11
HETATM   11  C   UNL     1     -41.006  54.388 -53.491  1.00  0.00    -0.020 A 
HETATM   12  C   UNL     1     -40.770  53.720 -52.274  1.00  0.00     0.022 A 
HETATM   13  C   UNL     1     -40.314  52.389 -52.228  1.00  0.00    -0.025 A 
HETATM   14  C   UNL     1     -40.077  51.701 -53.435  1.00  0.00    -0.026 A 
HETATM   15  C   UNL     1     -40.090  51.734 -51.007  1.00  0.00     0.012 A 
HETATM   16  C   UNL     1     -40.301  52.360 -54.651  1.00  0.00     0.013 A 
HETATM   17  C   UNL     1     -39.620  50.372 -53.390  1.00  0.00     0.012 A 
HETATM   18  C   UNL     1     -40.758  53.682 -54.679  1.00  0.00     0.011 A 
HETATM   19  C   UNL     1     -39.403  49.734 -52.168  1.00  0.00     0.001 A 
HETATM   20  C   UNL     1     -39.639  50.414 -50.978  1.00  0.00     0.001 A 
ENDBRANCH   6  11
ENDBRANCH   1   2
BRANCH   1  21
HETATM   21  C   UNL     1     -44.686  58.496 -51.443  1.00  0.00     0.240 C 
HETATM   22  N   UNL     1     -44.444  59.273 -50.315  1.00  0.00    -0.325 N 
HETATM   23  H   UNL     1     -43.768  58.840 -49.700  1.00  0.00     0.169 HD
HETATM   24  O   UNL     1     -45.196  58.933 -52.477  1.00  0.00    -0.271 OA
BRANCH  22  25
HETATM   25  C   UNL     1     -44.274  60.675 -50.457  1.00  0.00     0.050 A 
HETATM   26  C   UNL     1     -44.954  61.669 -49.726  1.00  0.00     0.058 A 
HETATM   27  C   UNL     1     -44.670  63.023 -49.998  1.00  0.00     0.019 A 
HETATM   28  C   UNL     1     -43.728  63.390 -50.961  1.00  0.00     0.001 A 
HETATM   29  C   UNL     1     -43.032  62.407 -51.650  1.00  0.00     0.002 A 
HETATM   30  C   UNL     1     -43.295  61.061 -51.392  1.00  0.00     0.030 A 
BRANCH  26  31
HETATM   31  C   UNL     1     -45.828  61.451 -48.537  1.00  0.00     0.254 C 
HETATM   32  N   UNL     1     -46.466  62.532 -47.995  1.00  0.00    -0.351 N 
HETATM   33  H   UNL     1     -46.227  63.463 -48.330  1.00  0.00     0.163 HD
HETATM   34  O   UNL     1     -45.900  60.324 -48.052  1.00  0.00    -0.268 OA
BRANCH  32  35
HETATM   35  C   UNL     1     -47.234  62.451 -46.777  1.00  0.00     0.187 C 
BRANCH  35  36
HETATM   36  C   UNL     1     -46.549  63.225 -45.712  1.00  0.00     0.070 A 
HETATM   37  O   UNL     1     -45.278  62.846 -45.384  1.00  0.00    -0.325 OA
HETATM   38  C   UNL     1     -44.869  63.659 -44.376  1.00  0.00     0.142 A 
HETATM   39  C   UNL     1     -45.857  64.560 -44.053  1.00  0.00     0.027 A 
HETATM   40  C   UNL     1     -46.941  64.284 -44.918  1.00  0.00     0.036 A 
ENDBRANCH  35  36
ENDBRANCH  32  35
ENDBRANCH  26  31
ENDBRANCH  22  25
ENDBRANCH   1  21
TORSDOF 7
ENDMDL
MODEL 9
REMARK VINA RESULT:      -9.2      2.241      4.172
REMARK  7 active torsions:
REMARK  status: ('A' for Active; 'I' for Inactive)
REMARK    1  A    between atoms: C_2  and  C_3 
REMARK    2  A    between atoms: N_16  and  C_17 
REMARK    3  A    between atoms: C_17  and  C_18 
REMARK       I    between atoms: C_18  and  N_19 
REMARK    4  A    between atoms: N_19  and  C_20 
REMARK    5  A    between atoms: C_21  and  C_22 
REMARK       I    between atoms: C_22  and  N_23 
REMARK    6  A    between atoms: N_23  and  C_24 
REMARK    7  A    between atoms: C_24  and  C_25 
ROOT
HETATM    1  C   UNL     1     -44.391  57.352 -51.340  1.00  0.00     0.240 C 
ENDROOT
BRANCH   1   2
HETATM    2  N   UNL     1     -43.078  56.859 -51.715  1.00  0.00    -0.259 N 
HETATM    3  C   UNL     1     -41.915  57.435 -51.317  1.00  0.00     0.326 A 
HETATM    4  N   UNL     1     -40.871  56.800 -51.935  1.00  0.00    -0.321 N 
HETATM    5  O   UNL     1     -41.782  58.345 -50.518  1.00  0.00    -0.247 OA
HETATM    6  C   UNL     1     -41.305  55.797 -52.888  1.00  0.00     0.140 A 
HETATM    7  H   UNL     1     -39.917  57.110 -51.809  1.00  0.00     0.165 HD
HETATM    8  C   UNL     1     -40.910  56.238 -54.299  1.00  0.00     0.054 C 
HETATM    9  C   UNL     1     -42.838  55.937 -52.698  1.00  0.00     0.261 A 
HETATM   10  O   UNL     1     -43.695  55.349 -53.345  1.00  0.00    -0.270 OA
BRANCH   6  11
HETATM   11  C   UNL     1     -40.820  54.394 -52.542  1.00  0.00    -0.020 A 
HETATM   12  C   UNL     1     -40.738  53.413 -53.551  1.00  0.00     0.022 A 
HETATM   13  C   UNL     1     -40.295  52.105 -53.286  1.00  0.00    -0.025 A 
HETATM   14  C   UNL     1     -39.927  51.754 -51.971  1.00  0.00    -0.026 A 
HETATM   15  C   UNL     1     -40.212  51.140 -54.303  1.00  0.00     0.012 A 
HETATM   16  C   UNL     1     -40.014  52.720 -50.960  1.00  0.00     0.013 A 
HETATM   17  C   UNL     1     -39.487  50.447 -51.705  1.00  0.00     0.012 A 
HETATM   18  C   UNL     1     -40.453  54.019 -51.240  1.00  0.00     0.011 A 
HETATM   19  C   UNL     1     -39.408  49.499 -52.728  1.00  0.00     0.001 A 
HETATM   20  C   UNL     1     -39.769  49.846 -54.025  1.00  0.00     0.001 A 
ENDBRANCH   6  11
ENDBRANCH   1   2
BRANCH   1  21
HETATM   21  C   UNL     1     -44.688  58.768 -51.840  1.00  0.00     0.240 C 
HETATM   22  N   UNL     1     -44.176  59.801 -51.063  1.00  0.00    -0.325 N 
HETATM   23  H   UNL     1     -43.392  59.494 -50.501  1.00  0.00     0.169 HD
HETATM   24  O   UNL     1     -45.404  58.947 -52.827  1.00  0.00    -0.271 OA
BRANCH  22  25
HETATM   25  C   UNL     1     -44.000  61.086 -51.638  1.00  0.00     0.050 A 
HETATM   26  C   UNL     1     -43.173  61.395 -52.735  1.00  0.00     0.058 A 
HETATM   27  C   UNL     1     -43.106  62.732 -53.178  1.00  0.00     0.019 A 
HETATM   28  C   UNL     1     -43.846  63.742 -52.560  1.00  0.00     0.001 A 
HETATM   29  C   UNL     1     -44.690  63.426 -51.504  1.00  0.00     0.002 A 
HETATM   30  C   UNL     1     -44.774  62.108 -51.055  1.00  0.00     0.030 A 
BRANCH  26  31
HETATM   31  C   UNL     1     -42.483  60.417 -53.626  1.00  0.00     0.254 C 
HETATM   32  N   UNL     1     -43.159  59.949 -54.719  1.00  0.00    -0.351 N 
HETATM   33  H   UNL     1     -44.146  60.173 -54.820  1.00  0.00     0.163 HD
HETATM   34  O   UNL     1     -41.360  60.026 -53.320  1.00  0.00    -0.268 OA
BRANCH  32  35
HETATM   35  C   UNL     1     -42.630  58.914 -55.574  1.00  0.00     0.187 C 
BRANCH  35  36
HETATM   36  C   UNL     1     -42.419  59.462 -56.937  1.00  0.00     0.070 A 
HETATM   37  O   UNL     1     -41.365  60.314 -57.109  1.00  0.00    -0.325 OA
HETATM   38  C   UNL     1     -41.388  60.713 -58.407  1.00  0.00     0.142 A 
HETATM   39  C   UNL     1     -42.439  60.129 -59.074  1.00  0.00     0.027 A 
HETATM   40  C   UNL     1     -43.104  59.316 -58.125  1.00  0.00     0.036 A 
ENDBRANCH  35  36
ENDBRANCH  32  35
ENDBRANCH  26  31
ENDBRANCH  22  25
ENDBRANCH   1  21
TORSDOF 7
ENDMDL
MODEL 10
REMARK VINA RESULT:      -9.1      4.077      7.555
REMARK  7 active torsions:
REMARK  status: ('A' for Active; 'I' for Inactive)
REMARK    1  A    between atoms: C_2  and  C_3 
REMARK    2  A    between atoms: N_16  and  C_17 
REMARK    3  A    between atoms: C_17  and  C_18 
REMARK       I    between atoms: C_18  and  N_19 
REMARK    4  A    between atoms: N_19  and  C_20 
REMARK    5  A    between atoms: C_21  and  C_22 
REMARK       I    between atoms: C_22  and  N_23 
REMARK    6  A    between atoms: N_23  and  C_24 
REMARK    7  A    between atoms: C_24  and  C_25 
ROOT
HETATM    1  C   UNL     1     -41.669  59.058 -50.780  1.00  0.00     0.240 C 
ENDROOT
BRANCH   1   2
HETATM    2  N   UNL     1     -41.481  58.002 -51.758  1.00  0.00    -0.259 N 
HETATM    3  C   UNL     1     -40.733  58.140 -52.883  1.00  0.00     0.326 A 
HETATM    4  N   UNL     1     -40.857  57.006 -53.640  1.00  0.00    -0.321 N 
HETATM    5  O   UNL     1     -40.031  59.087 -53.185  1.00  0.00    -0.247 OA
HETATM    6  C   UNL     1     -41.806  56.060 -53.087  1.00  0.00     0.140 A 
HETATM    7  H   UNL     1     -40.415  56.926 -54.546  1.00  0.00     0.165 HD
HETATM    8  C   UNL     1     -43.004  55.936 -54.033  1.00  0.00     0.054 C 
HETATM    9  C   UNL     1     -42.214  56.847 -51.815  1.00  0.00     0.261 A 
HETATM   10  O   UNL     1     -43.076  56.512 -51.012  1.00  0.00    -0.270 OA
BRANCH   6  11
HETATM   11  C   UNL     1     -41.177  54.715 -52.740  1.00  0.00    -0.020 A 
HETATM   12  C   UNL     1     -41.138  53.690 -53.706  1.00  0.00     0.022 A 
HETATM   13  C   UNL     1     -40.566  52.433 -53.439  1.00  0.00    -0.025 A 
HETATM   14  C   UNL     1     -40.021  52.181 -52.163  1.00  0.00    -0.026 A 
HETATM   15  C   UNL     1     -40.528  51.423 -54.414  1.00  0.00     0.012 A 
HETATM   16  C   UNL     1     -40.063  53.191 -51.193  1.00  0.00     0.013 A 
HETATM   17  C   UNL     1     -39.452  50.925 -51.894  1.00  0.00     0.012 A 
HETATM   18  C   UNL     1     -40.631  54.439 -51.476  1.00  0.00     0.011 A 
HETATM   19  C   UNL     1     -39.421  49.932 -52.875  1.00  0.00     0.001 A 
HETATM   20  C   UNL     1     -39.957  50.181 -54.134  1.00  0.00     0.001 A 
ENDBRANCH   6  11
ENDBRANCH   1   2
BRANCH   1  21
HETATM   21  C   UNL     1     -42.837  59.995 -51.094  1.00  0.00     0.240 C 
HETATM   22  N   UNL     1     -42.499  61.326 -51.315  1.00  0.00    -0.325 N 
HETATM   23  H   UNL     1     -41.532  61.426 -51.596  1.00  0.00     0.169 HD
HETATM   24  O   UNL     1     -43.997  59.581 -51.070  1.00  0.00    -0.271 OA
BRANCH  22  25
HETATM   25  C   UNL     1     -43.393  62.164 -52.032  1.00  0.00     0.050 A 
HETATM   26  C   UNL     1     -44.417  62.951 -51.472  1.00  0.00     0.058 A 
HETATM   27  C   UNL     1     -45.224  63.724 -52.333  1.00  0.00     0.019 A 
HETATM   28  C   UNL     1     -45.019  63.729 -53.714  1.00  0.00     0.001 A 
HETATM   29  C   UNL     1     -43.983  62.983 -54.257  1.00  0.00     0.002 A 
HETATM   30  C   UNL     1     -43.170  62.215 -53.422  1.00  0.00     0.030 A 
BRANCH  26  31
HETATM   31  C   UNL     1     -44.637  63.216 -50.021  1.00  0.00     0.254 C 
HETATM   32  N   UNL     1     -45.905  63.089 -49.524  1.00  0.00    -0.351 N 
HETATM   33  H   UNL     1     -46.675  62.949 -50.174  1.00  0.00     0.163 HD
HETATM   34  O   UNL     1     -43.689  63.592 -49.336  1.00  0.00    -0.268 OA
BRANCH  32  35
HETATM   35  C   UNL     1     -46.246  63.438 -48.167  1.00  0.00     0.187 C 
BRANCH  35  36
HETATM   36  C   UNL     1     -46.064  62.252 -47.294  1.00  0.00     0.070 A 
HETATM   37  O   UNL     1     -47.162  61.473 -47.063  1.00  0.00    -0.325 OA
HETATM   38  C   UNL     1     -46.775  60.481 -46.221  1.00  0.00     0.142 A 
HETATM   39  C   UNL     1     -45.441  60.607 -45.908  1.00  0.00     0.027 A 
HETATM   40  C   UNL     1     -44.980  61.749 -46.604  1.00  0.00     0.036 A 
ENDBRANCH  35  36
ENDBRANCH  32  35
ENDBRANCH  26  31
ENDBRANCH  22  25
ENDBRANCH   1  21
TORSDOF 7
ENDMDL
