MODEL 1
REMARK VINA RESULT:     -10.1      0.000      0.000
REMARK  8 active torsions:
REMARK  status: ('A' for Active; 'I' for Inactive)
REMARK    1  A    between atoms: C_4  and  C_5 
REMARK    2  A    between atoms: C_5  and  C_6 
REMARK    3  A    between atoms: C_6  and  C_7 
REMARK    4  A    between atoms: C_7  and  N_8 
REMARK       I    between atoms: N_8  and  C_9 
REMARK    5  A    between atoms: C_9  and  C_10 
REMARK    6  A    between atoms: C_11  and  N_12 
REMARK    7  A    between atoms: N_13  and  N_14 
REMARK    8  A    between atoms: C_15  and  C_16 
ROOT
HETATM    1  C   UNL     1     -42.420  58.225 -53.035  1.00  0.00     0.104 C 
HETATM    2  C   UNL     1     -42.989  57.233 -52.245  1.00  0.00     0.123 C 
HETATM    3  N   UNL     1     -42.818  56.042 -52.953  1.00  0.00    -0.202 N 
HETATM    4  C   UNL     1     -42.850  56.373 -54.295  1.00  0.00     0.183 A 
HETATM    5  C   UNL     1     -42.516  57.724 -54.369  1.00  0.00     0.124 A 
HETATM    6  N   UNL     1     -42.294  58.319 -55.569  1.00  0.00    -0.242 NA
HETATM    7  C   UNL     1     -42.496  57.529 -56.637  1.00  0.00     0.086 A 
HETATM    8  C   UNL     1     -42.861  56.161 -56.528  1.00  0.00     0.088 A 
HETATM    9  N   UNL     1     -43.014  55.540 -55.348  1.00  0.00    -0.225 NA
HETATM   10  C   UNL     1     -42.347  58.082 -57.903  1.00  0.00     0.034 A 
HETATM   11  C   UNL     1     -42.564  57.334 -59.061  1.00  0.00     0.002 A 
HETATM   12  C   UNL     1     -42.934  56.000 -58.952  1.00  0.00     0.002 A 
HETATM   13  C   UNL     1     -43.073  55.427 -57.688  1.00  0.00     0.034 A 
ENDROOT
BRANCH   1  14
HETATM   14  C   UNL     1     -41.780  59.449 -52.562  1.00  0.00     0.257 C 
HETATM   15  N   UNL     1     -42.659  60.317 -51.924  1.00  0.00    -0.357 N 
HETATM   16  H   UNL     1     -43.623  60.006 -51.974  1.00  0.00     0.162 HD
HETATM   17  O   UNL     1     -40.568  59.629 -52.577  1.00  0.00    -0.267 OA
BRANCH  15  18
HETATM   18  C   UNL     1     -42.340  60.854 -50.617  1.00  0.00     0.123 C 
BRANCH  18  19
HETATM   19  C   UNL     1     -43.274  61.903 -50.031  1.00  0.00     0.024 C 
BRANCH  19  20
HETATM   20  C   UNL     1     -44.478  61.303 -49.299  1.00  0.00     0.040 C 
BRANCH  20  21
HETATM   21  C   UNL     1     -44.751  61.911 -47.939  1.00  0.00    -0.058 A 
HETATM   22  C   UNL     1     -44.964  63.285 -47.752  1.00  0.00     0.007 A 
HETATM   23  C   UNL     1     -45.179  63.807 -46.475  1.00  0.00     0.001 A 
HETATM   24  C   UNL     1     -45.216  62.960 -45.370  1.00  0.00     0.000 A 
HETATM   25  C   UNL     1     -45.046  61.588 -45.544  1.00  0.00     0.001 A 
HETATM   26  C   UNL     1     -44.819  61.067 -46.820  1.00  0.00     0.007 A 
ENDBRANCH  20  21
ENDBRANCH  19  20
ENDBRANCH  18  19
ENDBRANCH  15  18
ENDBRANCH   1  14
BRANCH   2  27
HETATM   27  N   UNL     1     -43.451  57.249 -50.953  1.00  0.00    -0.286 NA
HETATM   28  H   UNL     1     -42.799  57.617 -50.252  1.00  0.00     0.125 HD
HETATM   29  H   UNL     1     -44.351  57.725 -50.815  1.00  0.00     0.125 HD
ENDBRANCH   2  27
BRANCH   3  30
HETATM   30  N   UNL     1     -42.526  54.800 -52.435  1.00  0.00    -0.176 NA
HETATM   31  C   UNL     1     -41.258  54.659 -52.213  1.00  0.00     0.153 C 
BRANCH  31  32
HETATM   32  C   UNL     1     -40.681  53.413 -51.768  1.00  0.00     0.011 A 
HETATM   33  C   UNL     1     -40.333  52.308 -52.609  1.00  0.00     0.004 A 
HETATM   34  C   UNL     1     -39.940  51.260 -51.779  1.00  0.00     0.043 A 
HETATM   35  C   UNL     1     -40.333  52.098 -54.006  1.00  0.00     0.014 A 
HETATM   36  C   UNL     1     -39.569  50.003 -52.274  1.00  0.00     0.030 A 
HETATM   37  N   UNL     1     -40.013  51.722 -50.484  1.00  0.00    -0.364 N 
HETATM   38  C   UNL     1     -39.581  49.821 -53.661  1.00  0.00     0.002 A 
HETATM   39  C   UNL     1     -39.952  50.854 -54.519  1.00  0.00     0.001 A 
HETATM   40  H   UNL     1     -39.800  51.169 -49.666  1.00  0.00     0.165 HD
HETATM   41  C   UNL     1     -40.441  53.024 -50.467  1.00  0.00     0.102 A 
ENDBRANCH  31  32
ENDBRANCH   3  30
TORSDOF 8
ENDMDL
MODEL 2
REMARK VINA RESULT:      -9.9      2.477      3.551
REMARK  8 active torsions:
REMARK  status: ('A' for Active; 'I' for Inactive)
REMARK    1  A    between atoms: C_4  and  C_5 
REMARK    2  A    between atoms: C_5  and  C_6 
REMARK    3  A    between atoms: C_6  and  C_7 
REMARK    4  A    between atoms: C_7  and  N_8 
REMARK       I    between atoms: N_8  and  C_9 
REMARK    5  A    between atoms: C_9  and  C_10 
REMARK    6  A    between atoms: C_11  and  N_12 
REMARK    7  A    between atoms: N_13  and  N_14 
REMARK    8  A    between atoms: C_15  and  C_16 
ROOT
HETATM    1  C   UNL     1     -44.790  58.534 -54.364  1.00  0.00     0.104 C 
HETATM    2  C   UNL     1     -44.424  57.518 -53.488  1.00  0.00     0.123 C 
HETATM    3  N   UNL     1     -43.408  56.811 -54.132  1.00  0.00    -0.202 N 
HETATM    4  C   UNL     1     -43.667  56.897 -55.487  1.00  0.00     0.183 A 
HETATM    5  C   UNL     1     -44.464  58.028 -55.659  1.00  0.00     0.124 A 
HETATM    6  N   UNL     1     -44.756  58.489 -56.902  1.00  0.00    -0.242 NA
HETATM    7  C   UNL     1     -44.284  57.735 -57.910  1.00  0.00     0.086 A 
HETATM    8  C   UNL     1     -43.495  56.573 -57.701  1.00  0.00     0.088 A 
HETATM    9  N   UNL     1     -43.138  56.145 -56.480  1.00  0.00    -0.225 NA
HETATM   10  C   UNL     1     -44.592  58.109 -59.212  1.00  0.00     0.034 A 
HETATM   11  C   UNL     1     -44.161  57.364 -60.310  1.00  0.00     0.002 A 
HETATM   12  C   UNL     1     -43.400  56.221 -60.104  1.00  0.00     0.002 A 
HETATM   13  C   UNL     1     -43.071  55.841 -58.802  1.00  0.00     0.034 A 
ENDROOT
BRANCH   1  14
HETATM   14  C   UNL     1     -45.296  59.854 -53.999  1.00  0.00     0.257 C 
HETATM   15  N   UNL     1     -46.054  59.848 -52.833  1.00  0.00    -0.357 N 
HETATM   16  H   UNL     1     -46.217  58.913 -52.475  1.00  0.00     0.162 HD
HETATM   17  O   UNL     1     -44.958  60.888 -54.563  1.00  0.00    -0.267 OA
BRANCH  15  18
HETATM   18  C   UNL     1     -45.766  60.785 -51.766  1.00  0.00     0.123 C 
BRANCH  18  19
HETATM   19  C   UNL     1     -44.753  60.369 -50.710  1.00  0.00     0.024 C 
BRANCH  19  20
HETATM   20  C   UNL     1     -43.451  61.174 -50.768  1.00  0.00     0.040 C 
BRANCH  20  21
HETATM   21  C   UNL     1     -42.229  60.364 -51.147  1.00  0.00    -0.058 A 
HETATM   22  C   UNL     1     -41.309  59.892 -50.200  1.00  0.00     0.007 A 
HETATM   23  C   UNL     1     -40.178  59.176 -50.598  1.00  0.00     0.001 A 
HETATM   24  C   UNL     1     -39.966  58.896 -51.945  1.00  0.00     0.000 A 
HETATM   25  C   UNL     1     -40.890  59.325 -52.895  1.00  0.00     0.001 A 
HETATM   26  C   UNL     1     -42.016  60.049 -52.498  1.00  0.00     0.007 A 
ENDBRANCH  20  21
ENDBRANCH  19  20
ENDBRANCH  18  19
ENDBRANCH  15  18
ENDBRANCH   1  14
BRANCH   2  27
HETATM   27  N   UNL     1     -44.751  57.284 -52.176  1.00  0.00    -0.286 NA
HETATM   28  H   UNL     1     -45.699  57.560 -51.897  1.00  0.00     0.125 HD
HETATM   29  H   UNL     1     -44.604  56.320 -51.852  1.00  0.00     0.125 HD
ENDBRANCH   2  27
BRANCH   3  30
HETATM   30  N   UNL     1     -42.285  56.258 -53.559  1.00  0.00    -0.176 NA
HETATM   31  C   UNL     1     -42.478  55.020 -53.226  1.00  0.00     0.153 C 
BRANCH  31  32
HETATM   32  C   UNL     1     -41.490  54.246 -52.513  1.00  0.00     0.011 A 
HETATM   33  C   UNL     1     -40.877  53.040 -52.983  1.00  0.00     0.004 A 
HETATM   34  C   UNL     1     -40.092  52.540 -51.946  1.00  0.00     0.043 A 
HETATM   35  C   UNL     1     -40.934  52.316 -54.195  1.00  0.00     0.014 A 
HETATM   36  C   UNL     1     -39.379  51.339 -52.051  1.00  0.00     0.030 A 
HETATM   37  N   UNL     1     -40.195  53.428 -50.898  1.00  0.00    -0.364 N 
HETATM   38  C   UNL     1     -39.454  50.641 -53.261  1.00  0.00     0.002 A 
HETATM   39  C   UNL     1     -40.216  51.123 -54.323  1.00  0.00     0.001 A 
HETATM   40  H   UNL     1     -39.741  53.312 -50.003  1.00  0.00     0.165 HD
HETATM   41  C   UNL     1     -41.020  54.469 -51.236  1.00  0.00     0.102 A 
ENDBRANCH  31  32
ENDBRANCH   3  30
TORSDOF 8
ENDMDL
MODEL 3
REMARK VINA RESULT:      -9.8      4.129      6.497
REMARK  8 active torsions:
REMARK  status: ('A' for Active; 'I' for Inactive)
REMARK    1  A    between atoms: C_4  and  C_5 
REMARK    2  A    between atoms: C_5  and  C_6 
REMARK    3  A    between atoms: C_6  and  C_7 
REMARK    4  A    between atoms: C_7  and  N_8 
REMARK       I    between atoms: N_8  and  C_9 
REMARK    5  A    between atoms: C_9  and  C_10 
REMARK    6  A    between atoms: C_11  and  N_12 
REMARK    7  A    between atoms: N_13  and  N_14 
REMARK    8  A    between atoms: C_15  and  C_16 
ROOT
HETATM    1  C   UNL     1     -42.320  58.657 -54.937  1.00  0.00     0.104 C 
HETATM    2  C   UNL     1     -42.176  57.726 -53.914  1.00  0.00     0.123 C 
HETATM    3  N   UNL     1     -41.842  56.525 -54.541  1.00  0.00    -0.202 N 
HETATM    4  C   UNL     1     -42.458  56.542 -55.778  1.00  0.00     0.183 A 
HETATM    5  C   UNL     1     -42.686  57.883 -56.080  1.00  0.00     0.124 A 
HETATM    6  N   UNL     1     -43.129  58.253 -57.309  1.00  0.00    -0.242 NA
HETATM    7  C   UNL     1     -43.389  57.234 -58.146  1.00  0.00     0.086 A 
HETATM    8  C   UNL     1     -43.169  55.874 -57.799  1.00  0.00     0.088 A 
HETATM    9  N   UNL     1     -42.663  55.498 -56.614  1.00  0.00    -0.225 NA
HETATM   10  C   UNL     1     -43.902  57.528 -59.403  1.00  0.00     0.034 A 
HETATM   11  C   UNL     1     -44.221  56.524 -60.318  1.00  0.00     0.002 A 
HETATM   12  C   UNL     1     -44.018  55.195 -59.973  1.00  0.00     0.002 A 
HETATM   13  C   UNL     1     -43.489  54.885 -58.720  1.00  0.00     0.034 A 
ENDROOT
BRANCH   1  14
HETATM   14  C   UNL     1     -42.049  60.089 -54.851  1.00  0.00     0.257 C 
HETATM   15  N   UNL     1     -42.058  60.725 -56.087  1.00  0.00    -0.357 N 
HETATM   16  H   UNL     1     -42.156  60.076 -56.861  1.00  0.00     0.162 HD
HETATM   17  O   UNL     1     -41.980  60.702 -53.792  1.00  0.00    -0.267 OA
BRANCH  15  18
HETATM   18  C   UNL     1     -42.849  61.921 -56.291  1.00  0.00     0.123 C 
BRANCH  18  19
HETATM   19  C   UNL     1     -42.962  62.467 -57.707  1.00  0.00     0.024 C 
BRANCH  19  20
HETATM   20  C   UNL     1     -42.325  61.557 -58.761  1.00  0.00     0.040 C 
BRANCH  20  21
HETATM   21  C   UNL     1     -41.193  62.195 -59.538  1.00  0.00    -0.058 A 
HETATM   22  C   UNL     1     -40.109  62.831 -58.915  1.00  0.00     0.007 A 
HETATM   23  C   UNL     1     -39.104  63.435 -59.672  1.00  0.00     0.001 A 
HETATM   24  C   UNL     1     -39.151  63.387 -61.062  1.00  0.00     0.000 A 
HETATM   25  C   UNL     1     -40.200  62.727 -61.697  1.00  0.00     0.001 A 
HETATM   26  C   UNL     1     -41.212  62.132 -60.940  1.00  0.00     0.007 A 
ENDBRANCH  20  21
ENDBRANCH  19  20
ENDBRANCH  18  19
ENDBRANCH  15  18
ENDBRANCH   1  14
BRANCH   2  27
HETATM   27  N   UNL     1     -42.130  57.870 -52.550  1.00  0.00    -0.286 NA
HETATM   28  H   UNL     1     -41.463  57.264 -52.061  1.00  0.00     0.125 HD
HETATM   29  H   UNL     1     -41.976  58.829 -52.215  1.00  0.00     0.125 HD
ENDBRANCH   2  27
BRANCH   3  30
HETATM   30  N   UNL     1     -40.957  55.569 -54.093  1.00  0.00    -0.176 NA
HETATM   31  C   UNL     1     -41.503  54.784 -53.218  1.00  0.00     0.153 C 
BRANCH  31  32
HETATM   32  C   UNL     1     -40.758  53.765 -52.519  1.00  0.00     0.011 A 
HETATM   33  C   UNL     1     -40.424  52.472 -53.037  1.00  0.00     0.004 A 
HETATM   34  C   UNL     1     -39.826  51.751 -52.006  1.00  0.00     0.043 A 
HETATM   35  C   UNL     1     -40.593  51.842 -54.290  1.00  0.00     0.014 A 
HETATM   36  C   UNL     1     -39.410  50.423 -52.156  1.00  0.00     0.030 A 
HETATM   37  N   UNL     1     -39.766  52.586 -50.912  1.00  0.00    -0.364 N 
HETATM   38  C   UNL     1     -39.591  49.821 -53.407  1.00  0.00     0.002 A 
HETATM   39  C   UNL     1     -40.170  50.521 -54.463  1.00  0.00     0.001 A 
HETATM   40  H   UNL     1     -39.394  52.323 -50.010  1.00  0.00     0.165 HD
HETATM   41  C   UNL     1     -40.308  53.808 -51.216  1.00  0.00     0.102 A 
ENDBRANCH  31  32
ENDBRANCH   3  30
TORSDOF 8
ENDMDL
MODEL 4
REMARK VINA RESULT:      -9.8      1.804      9.465
REMARK  8 active torsions:
REMARK  status: ('A' for Active; 'I' for Inactive)
REMARK    1  A    between atoms: C_4  and  C_5 
REMARK    2  A    between atoms: C_5  and  C_6 
REMARK    3  A    between atoms: C_6  and  C_7 
REMARK    4  A    between atoms: C_7  and  N_8 
REMARK       I    between atoms: N_8  and  C_9 
REMARK    5  A    between atoms: C_9  and  C_10 
REMARK    6  A    between atoms: C_11  and  N_12 
REMARK    7  A    between atoms: N_13  and  N_14 
REMARK    8  A    between atoms: C_15  and  C_16 
ROOT
HETATM    1  C   UNL     1     -41.907  57.685 -51.415  1.00  0.00     0.104 C 
HETATM    2  C   UNL     1     -41.462  58.774 -50.674  1.00  0.00     0.123 C 
HETATM    3  N   UNL     1     -41.897  59.905 -51.366  1.00  0.00    -0.202 N 
HETATM    4  C   UNL     1     -41.911  59.566 -52.706  1.00  0.00     0.183 A 
HETATM    5  C   UNL     1     -42.006  58.175 -52.752  1.00  0.00     0.124 A 
HETATM    6  N   UNL     1     -42.212  57.533 -53.930  1.00  0.00    -0.242 NA
HETATM    7  C   UNL     1     -42.238  58.330 -55.012  1.00  0.00     0.086 A 
HETATM    8  C   UNL     1     -42.113  59.743 -54.933  1.00  0.00     0.088 A 
HETATM    9  N   UNL     1     -41.981  60.398 -53.769  1.00  0.00    -0.225 NA
HETATM   10  C   UNL     1     -42.386  57.741 -56.262  1.00  0.00     0.034 A 
HETATM   11  C   UNL     1     -42.396  58.499 -57.433  1.00  0.00     0.002 A 
HETATM   12  C   UNL     1     -42.261  59.878 -57.356  1.00  0.00     0.002 A 
HETATM   13  C   UNL     1     -42.127  60.485 -56.107  1.00  0.00     0.034 A 
ENDROOT
BRANCH   1  14
HETATM   14  C   UNL     1     -42.281  56.374 -50.891  1.00  0.00     0.257 C 
HETATM   15  N   UNL     1     -43.150  55.678 -51.724  1.00  0.00    -0.357 N 
HETATM   16  H   UNL     1     -43.463  56.231 -52.515  1.00  0.00     0.162 HD
HETATM   17  O   UNL     1     -41.761  55.867 -49.905  1.00  0.00    -0.267 OA
BRANCH  15  18
HETATM   18  C   UNL     1     -42.860  54.312 -52.109  1.00  0.00     0.123 C 
BRANCH  18  19
HETATM   19  C   UNL     1     -42.214  54.078 -53.467  1.00  0.00     0.024 C 
BRANCH  19  20
HETATM   20  C   UNL     1     -40.704  53.836 -53.387  1.00  0.00     0.040 C 
BRANCH  20  21
HETATM   21  C   UNL     1     -40.312  52.386 -53.190  1.00  0.00    -0.058 A 
HETATM   22  C   UNL     1     -39.847  51.887 -51.964  1.00  0.00     0.007 A 
HETATM   23  C   UNL     1     -39.465  50.550 -51.836  1.00  0.00     0.001 A 
HETATM   24  C   UNL     1     -39.569  49.686 -52.923  1.00  0.00     0.000 A 
HETATM   25  C   UNL     1     -40.065  50.156 -54.137  1.00  0.00     0.001 A 
HETATM   26  C   UNL     1     -40.438  51.496 -54.267  1.00  0.00     0.007 A 
ENDBRANCH  20  21
ENDBRANCH  19  20
ENDBRANCH  18  19
ENDBRANCH  15  18
ENDBRANCH   1  14
BRANCH   2  27
HETATM   27  N   UNL     1     -40.905  58.859 -49.422  1.00  0.00    -0.286 NA
HETATM   28  H   UNL     1     -41.558  59.056 -48.657  1.00  0.00     0.125 HD
HETATM   29  H   UNL     1     -40.336  58.052 -49.140  1.00  0.00     0.125 HD
ENDBRANCH   2  27
BRANCH   3  30
HETATM   30  N   UNL     1     -42.362  61.084 -50.828  1.00  0.00    -0.176 NA
HETATM   31  C   UNL     1     -43.443  60.901 -50.137  1.00  0.00     0.153 C 
BRANCH  31  32
HETATM   32  C   UNL     1     -44.187  61.994 -49.556  1.00  0.00     0.011 A 
HETATM   33  C   UNL     1     -44.769  62.003 -48.248  1.00  0.00     0.004 A 
HETATM   34  C   UNL     1     -45.509  63.178 -48.129  1.00  0.00     0.043 A 
HETATM   35  C   UNL     1     -44.749  61.106 -47.156  1.00  0.00     0.014 A 
HETATM   36  C   UNL     1     -46.249  63.492 -46.983  1.00  0.00     0.030 A 
HETATM   37  N   UNL     1     -45.352  63.874 -49.308  1.00  0.00    -0.364 N 
HETATM   38  C   UNL     1     -46.214  62.586 -45.917  1.00  0.00     0.002 A 
HETATM   39  C   UNL     1     -45.470  61.411 -45.997  1.00  0.00     0.001 A 
HETATM   40  H   UNL     1     -45.791  64.760 -49.512  1.00  0.00     0.165 HD
HETATM   41  C   UNL     1     -44.543  63.177 -50.167  1.00  0.00     0.102 A 
ENDBRANCH  31  32
ENDBRANCH   3  30
TORSDOF 8
ENDMDL
MODEL 5
REMARK VINA RESULT:      -9.7      2.334      8.655
REMARK  8 active torsions:
REMARK  status: ('A' for Active; 'I' for Inactive)
REMARK    1  A    between atoms: C_4  and  C_5 
REMARK    2  A    between atoms: C_5  and  C_6 
REMARK    3  A    between atoms: C_6  and  C_7 
REMARK    4  A    between atoms: C_7  and  N_8 
REMARK       I    between atoms: N_8  and  C_9 
REMARK    5  A    between atoms: C_9  and  C_10 
REMARK    6  A    between atoms: C_11  and  N_12 
REMARK    7  A    between atoms: N_13  and  N_14 
REMARK    8  A    between atoms: C_15  and  C_16 
ROOT
HETATM    1  C   UNL     1     -42.840  57.382 -51.504  1.00  0.00     0.104 C 
HETATM    2  C   UNL     1     -43.456  56.452 -52.335  1.00  0.00     0.123 C 
HETATM    3  N   UNL     1     -44.013  57.191 -53.380  1.00  0.00    -0.202 N 
HETATM    4  C   UNL     1     -44.357  58.422 -52.854  1.00  0.00     0.183 A 
HETATM    5  C   UNL     1     -43.563  58.594 -51.720  1.00  0.00     0.124 A 
HETATM    6  N   UNL     1     -43.538  59.783 -51.065  1.00  0.00    -0.242 NA
HETATM    7  C   UNL     1     -44.377  60.714 -51.551  1.00  0.00     0.086 A 
HETATM    8  C   UNL     1     -45.191  60.498 -52.694  1.00  0.00     0.088 A 
HETATM    9  N   UNL     1     -45.174  59.353 -53.395  1.00  0.00    -0.225 NA
HETATM   10  C   UNL     1     -44.452  61.938 -50.898  1.00  0.00     0.034 A 
HETATM   11  C   UNL     1     -45.318  62.945 -51.326  1.00  0.00     0.002 A 
HETATM   12  C   UNL     1     -46.123  62.728 -52.436  1.00  0.00     0.002 A 
HETATM   13  C   UNL     1     -46.047  61.510 -53.111  1.00  0.00     0.034 A 
ENDROOT
BRANCH   1  14
HETATM   14  C   UNL     1     -41.654  57.159 -50.683  1.00  0.00     0.257 C 
HETATM   15  N   UNL     1     -41.755  56.040 -49.863  1.00  0.00    -0.357 N 
HETATM   16  H   UNL     1     -42.675  55.614 -49.894  1.00  0.00     0.162 HD
HETATM   17  O   UNL     1     -40.612  57.789 -50.815  1.00  0.00    -0.267 OA
BRANCH  15  18
HETATM   18  C   UNL     1     -40.705  55.043 -49.849  1.00  0.00     0.123 C 
BRANCH  18  19
HETATM   19  C   UNL     1     -40.516  54.192 -51.097  1.00  0.00     0.024 C 
BRANCH  19  20
HETATM   20  C   UNL     1     -39.947  52.802 -50.802  1.00  0.00     0.040 C 
BRANCH  20  21
HETATM   21  C   UNL     1     -39.936  51.864 -51.991  1.00  0.00    -0.058 A 
HETATM   22  C   UNL     1     -39.591  50.508 -51.884  1.00  0.00     0.007 A 
HETATM   23  C   UNL     1     -39.562  49.687 -53.013  1.00  0.00     0.001 A 
HETATM   24  C   UNL     1     -39.908  50.201 -54.261  1.00  0.00     0.000 A 
HETATM   25  C   UNL     1     -40.290  51.535 -54.378  1.00  0.00     0.001 A 
HETATM   26  C   UNL     1     -40.309  52.359 -53.250  1.00  0.00     0.007 A 
ENDBRANCH  20  21
ENDBRANCH  19  20
ENDBRANCH  18  19
ENDBRANCH  15  18
ENDBRANCH   1  14
BRANCH   2  27
HETATM   27  N   UNL     1     -43.417  55.081 -52.356  1.00  0.00    -0.286 NA
HETATM   28  H   UNL     1     -42.482  54.662 -52.298  1.00  0.00     0.125 HD
HETATM   29  H   UNL     1     -44.006  54.614 -51.656  1.00  0.00     0.125 HD
ENDBRANCH   2  27
BRANCH   3  30
HETATM   30  N   UNL     1     -44.079  56.834 -54.708  1.00  0.00    -0.176 NA
HETATM   31  C   UNL     1     -42.929  56.952 -55.294  1.00  0.00     0.153 C 
BRANCH  31  32
HETATM   32  C   UNL     1     -42.755  56.740 -56.711  1.00  0.00     0.011 A 
HETATM   33  C   UNL     1     -42.477  57.757 -57.679  1.00  0.00     0.004 A 
HETATM   34  C   UNL     1     -42.520  57.158 -58.937  1.00  0.00     0.043 A 
HETATM   35  C   UNL     1     -42.211  59.142 -57.601  1.00  0.00     0.014 A 
HETATM   36  C   UNL     1     -42.333  57.879 -60.123  1.00  0.00     0.030 A 
HETATM   37  N   UNL     1     -42.777  55.820 -58.738  1.00  0.00    -0.364 N 
HETATM   38  C   UNL     1     -42.073  59.251 -60.017  1.00  0.00     0.002 A 
HETATM   39  C   UNL     1     -42.007  59.875 -58.774  1.00  0.00     0.001 A 
HETATM   40  H   UNL     1     -42.880  55.140 -59.478  1.00  0.00     0.165 HD
HETATM   41  C   UNL     1     -42.903  55.554 -57.399  1.00  0.00     0.102 A 
ENDBRANCH  31  32
ENDBRANCH   3  30
TORSDOF 8
ENDMDL
MODEL 6
REMARK VINA RESULT:      -9.6      3.081      7.582
REMARK  8 active torsions:
REMARK  status: ('A' for Active; 'I' for Inactive)
REMARK    1  A    between atoms: C_4  and  C_5 
REMARK    2  A    between atoms: C_5  and  C_6 
REMARK    3  A    between atoms: C_6  and  C_7 
REMARK    4  A    between atoms: C_7  and  N_8 
REMARK       I    between atoms: N_8  and  C_9 
REMARK    5  A    between atoms: C_9  and  C_10 
REMARK    6  A    between atoms: C_11  and  N_12 
REMARK    7  A    between atoms: N_13  and  N_14 
REMARK    8  A    between atoms: C_15  and  C_16 
ROOT
HETATM    1  C   UNL     1     -41.498  55.917 -52.019  1.00  0.00     0.104 C 
HETATM    2  C   UNL     1     -41.024  56.438 -53.218  1.00  0.00     0.123 C 
HETATM    3  N   UNL     1     -40.895  55.348 -54.079  1.00  0.00    -0.202 N 
HETATM    4  C   UNL     1     -40.587  54.256 -53.290  1.00  0.00     0.183 A 
HETATM    5  C   UNL     1     -41.040  54.564 -52.007  1.00  0.00     0.124 A 
HETATM    6  N   UNL     1     -41.039  53.626 -51.027  1.00  0.00    -0.242 NA
HETATM    7  C   UNL     1     -40.510  52.442 -51.378  1.00  0.00     0.086 A 
HETATM    8  C   UNL     1     -40.033  52.167 -52.687  1.00  0.00     0.088 A 
HETATM    9  N   UNL     1     -40.093  53.061 -53.687  1.00  0.00    -0.225 NA
HETATM   10  C   UNL     1     -40.419  51.448 -50.411  1.00  0.00     0.034 A 
HETATM   11  C   UNL     1     -39.858  50.201 -50.692  1.00  0.00     0.002 A 
HETATM   12  C   UNL     1     -39.381  49.938 -51.969  1.00  0.00     0.002 A 
HETATM   13  C   UNL     1     -39.479  50.922 -52.953  1.00  0.00     0.034 A 
ENDROOT
BRANCH   1  14
HETATM   14  C   UNL     1     -42.360  56.599 -51.058  1.00  0.00     0.257 C 
HETATM   15  N   UNL     1     -42.271  57.985 -51.127  1.00  0.00    -0.357 N 
HETATM   16  H   UNL     1     -41.550  58.300 -51.768  1.00  0.00     0.162 HD
HETATM   17  O   UNL     1     -43.195  56.024 -50.371  1.00  0.00    -0.267 OA
BRANCH  15  18
HETATM   18  C   UNL     1     -43.469  58.792 -51.234  1.00  0.00     0.123 C 
BRANCH  18  19
HETATM   19  C   UNL     1     -43.853  59.317 -52.610  1.00  0.00     0.024 C 
BRANCH  19  20
HETATM   20  C   UNL     1     -44.464  58.247 -53.519  1.00  0.00     0.040 C 
BRANCH  20  21
HETATM   21  C   UNL     1     -44.860  58.744 -54.894  1.00  0.00    -0.058 A 
HETATM   22  C   UNL     1     -44.464  59.994 -55.391  1.00  0.00     0.007 A 
HETATM   23  C   UNL     1     -44.880  60.426 -56.652  1.00  0.00     0.001 A 
HETATM   24  C   UNL     1     -45.672  59.603 -57.447  1.00  0.00     0.000 A 
HETATM   25  C   UNL     1     -46.043  58.342 -56.984  1.00  0.00     0.001 A 
HETATM   26  C   UNL     1     -45.635  57.915 -55.718  1.00  0.00     0.007 A 
ENDBRANCH  20  21
ENDBRANCH  19  20
ENDBRANCH  18  19
ENDBRANCH  15  18
ENDBRANCH   1  14
BRANCH   2  27
HETATM   27  N   UNL     1     -40.881  57.730 -53.657  1.00  0.00    -0.286 NA
HETATM   28  H   UNL     1     -41.227  57.920 -54.603  1.00  0.00     0.125 HD
HETATM   29  H   UNL     1     -41.272  58.450 -53.037  1.00  0.00     0.125 HD
ENDBRANCH   2  27
BRANCH   3  30
HETATM   30  N   UNL     1     -41.163  55.317 -55.430  1.00  0.00    -0.176 NA
HETATM   31  C   UNL     1     -42.290  55.892 -55.708  1.00  0.00     0.153 C 
BRANCH  31  32
HETATM   32  C   UNL     1     -42.848  55.903 -57.039  1.00  0.00     0.011 A 
HETATM   33  C   UNL     1     -42.780  56.994 -57.964  1.00  0.00     0.004 A 
HETATM   34  C   UNL     1     -43.554  56.651 -59.071  1.00  0.00     0.043 A 
HETATM   35  C   UNL     1     -42.143  58.255 -57.951  1.00  0.00     0.014 A 
HETATM   36  C   UNL     1     -43.742  57.515 -60.157  1.00  0.00     0.030 A 
HETATM   37  N   UNL     1     -44.043  55.384 -58.844  1.00  0.00    -0.364 N 
HETATM   38  C   UNL     1     -43.102  58.759 -60.118  1.00  0.00     0.002 A 
HETATM   39  C   UNL     1     -42.307  59.124 -59.033  1.00  0.00     0.001 A 
HETATM   40  H   UNL     1     -44.653  54.884 -59.475  1.00  0.00     0.165 HD
HETATM   41  C   UNL     1     -43.610  54.917 -57.630  1.00  0.00     0.102 A 
ENDBRANCH  31  32
ENDBRANCH   3  30
TORSDOF 8
ENDMDL
MODEL 7
REMARK VINA RESULT:      -9.5      2.832      7.083
REMARK  8 active torsions:
REMARK  status: ('A' for Active; 'I' for Inactive)
REMARK    1  A    between atoms: C_4  and  C_5 
REMARK    2  A    between atoms: C_5  and  C_6 
REMARK    3  A    between atoms: C_6  and  C_7 
REMARK    4  A    between atoms: C_7  and  N_8 
REMARK       I    between atoms: N_8  and  C_9 
REMARK    5  A    between atoms: C_9  and  C_10 
REMARK    6  A    between atoms: C_11  and  N_12 
REMARK    7  A    between atoms: N_13  and  N_14 
REMARK    8  A    between atoms: C_15  and  C_16 
ROOT
HETATM    1  C   UNL     1     -43.036  56.531 -55.853  1.00  0.00     0.104 C 
HETATM    2  C   UNL     1     -42.036  55.766 -55.264  1.00  0.00     0.123 C 
HETATM    3  N   UNL     1     -42.416  55.611 -53.930  1.00  0.00    -0.202 N 
HETATM    4  C   UNL     1     -43.116  56.751 -53.584  1.00  0.00     0.183 A 
HETATM    5  C   UNL     1     -43.587  57.294 -54.779  1.00  0.00     0.124 A 
HETATM    6  N   UNL     1     -44.459  58.334 -54.772  1.00  0.00    -0.242 NA
HETATM    7  C   UNL     1     -44.752  58.819 -53.553  1.00  0.00     0.086 A 
HETATM    8  C   UNL     1     -44.235  58.258 -52.355  1.00  0.00     0.088 A 
HETATM    9  N   UNL     1     -43.429  57.184 -52.342  1.00  0.00    -0.225 NA
HETATM   10  C   UNL     1     -45.591  59.922 -53.466  1.00  0.00     0.034 A 
HETATM   11  C   UNL     1     -45.921  60.499 -52.239  1.00  0.00     0.002 A 
HETATM   12  C   UNL     1     -45.405  59.957 -51.069  1.00  0.00     0.002 A 
HETATM   13  C   UNL     1     -44.572  58.840 -51.140  1.00  0.00     0.034 A 
ENDROOT
BRANCH   1  14
HETATM   14  C   UNL     1     -43.470  56.467 -57.246  1.00  0.00     0.257 C 
HETATM   15  N   UNL     1     -44.577  57.267 -57.513  1.00  0.00    -0.357 N 
HETATM   16  H   UNL     1     -44.965  57.691 -56.678  1.00  0.00     0.162 HD
HETATM   17  O   UNL     1     -42.836  55.900 -58.127  1.00  0.00    -0.267 OA
BRANCH  15  18
HETATM   18  C   UNL     1     -44.558  58.196 -58.624  1.00  0.00     0.123 C 
BRANCH  18  19
HETATM   19  C   UNL     1     -44.167  59.639 -58.339  1.00  0.00     0.024 C 
BRANCH  19  20
HETATM   20  C   UNL     1     -42.695  59.803 -57.953  1.00  0.00     0.040 C 
BRANCH  20  21
HETATM   21  C   UNL     1     -41.915  60.749 -58.842  1.00  0.00    -0.058 A 
HETATM   22  C   UNL     1     -42.116  60.825 -60.228  1.00  0.00     0.007 A 
HETATM   23  C   UNL     1     -41.351  61.688 -61.015  1.00  0.00     0.001 A 
HETATM   24  C   UNL     1     -40.395  62.510 -60.424  1.00  0.00     0.000 A 
HETATM   25  C   UNL     1     -40.209  62.475 -59.044  1.00  0.00     0.001 A 
HETATM   26  C   UNL     1     -40.968  61.604 -58.258  1.00  0.00     0.007 A 
ENDBRANCH  20  21
ENDBRANCH  19  20
ENDBRANCH  18  19
ENDBRANCH  15  18
ENDBRANCH   1  14
BRANCH   2  27
HETATM   27  N   UNL     1     -40.980  55.075 -55.803  1.00  0.00    -0.286 NA
HETATM   28  H   UNL     1     -40.286  54.728 -55.132  1.00  0.00     0.125 HD
HETATM   29  H   UNL     1     -41.235  54.289 -56.413  1.00  0.00     0.125 HD
ENDBRANCH   2  27
BRANCH   3  30
HETATM   30  N   UNL     1     -42.261  54.490 -53.145  1.00  0.00    -0.176 NA
HETATM   31  C   UNL     1     -41.089  54.451 -52.592  1.00  0.00     0.153 C 
BRANCH  31  32
HETATM   32  C   UNL     1     -40.640  53.327 -51.805  1.00  0.00     0.011 A 
HETATM   33  C   UNL     1     -40.218  52.061 -52.324  1.00  0.00     0.004 A 
HETATM   34  C   UNL     1     -39.999  51.217 -51.236  1.00  0.00     0.043 A 
HETATM   35  C   UNL     1     -40.020  51.548 -53.625  1.00  0.00     0.014 A 
HETATM   36  C   UNL     1     -39.614  49.879 -51.385  1.00  0.00     0.030 A 
HETATM   37  N   UNL     1     -40.244  51.954 -50.099  1.00  0.00    -0.364 N 
HETATM   38  C   UNL     1     -39.427  49.396 -52.685  1.00  0.00     0.002 A 
HETATM   39  C   UNL     1     -39.620  50.219 -53.792  1.00  0.00     0.001 A 
HETATM   40  H   UNL     1     -40.180  51.593 -49.157  1.00  0.00     0.165 HD
HETATM   41  C   UNL     1     -40.613  53.232 -50.429  1.00  0.00     0.102 A 
ENDBRANCH  31  32
ENDBRANCH   3  30
TORSDOF 8
ENDMDL
MODEL 8
REMARK VINA RESULT:      -9.4      2.333      7.485
REMARK  8 active torsions:
REMARK  status: ('A' for Active; 'I' for Inactive)
REMARK    1  A    between atoms: C_4  and  C_5 
REMARK    2  A    between atoms: C_5  and  C_6 
REMARK    3  A    between atoms: C_6  and  C_7 
REMARK    4  A    between atoms: C_7  and  N_8 
REMARK       I    between atoms: N_8  and  C_9 
REMARK    5  A    between atoms: C_9  and  C_10 
REMARK    6  A    between atoms: C_11  and  N_12 
REMARK    7  A    between atoms: N_13  and  N_14 
REMARK    8  A    between atoms: C_15  and  C_16 
ROOT
HETATM    1  C   UNL     1     -43.256  55.517 -55.223  1.00  0.00     0.104 C 
HETATM    2  C   UNL     1     -44.155  56.034 -54.297  1.00  0.00     0.123 C 
HETATM    3  N   UNL     1     -43.495  55.996 -53.068  1.00  0.00    -0.202 N 
HETATM    4  C   UNL     1     -42.642  54.909 -53.112  1.00  0.00     0.183 A 
HETATM    5  C   UNL     1     -42.413  54.651 -54.463  1.00  0.00     0.124 A 
HETATM    6  N   UNL     1     -41.479  53.744 -54.847  1.00  0.00    -0.242 NA
HETATM    7  C   UNL     1     -40.876  53.091 -53.839  1.00  0.00     0.086 A 
HETATM    8  C   UNL     1     -41.151  53.361 -52.471  1.00  0.00     0.088 A 
HETATM    9  N   UNL     1     -42.019  54.305 -52.075  1.00  0.00    -0.225 NA
HETATM   10  C   UNL     1     -39.950  52.104 -54.153  1.00  0.00     0.034 A 
HETATM   11  C   UNL     1     -39.302  51.365 -53.162  1.00  0.00     0.002 A 
HETATM   12  C   UNL     1     -39.580  51.621 -51.826  1.00  0.00     0.002 A 
HETATM   13  C   UNL     1     -40.497  52.619 -51.496  1.00  0.00     0.034 A 
ENDROOT
BRANCH   1  14
HETATM   14  C   UNL     1     -43.159  55.882 -56.634  1.00  0.00     0.257 C 
HETATM   15  N   UNL     1     -43.520  57.201 -56.886  1.00  0.00    -0.357 N 
HETATM   16  H   UNL     1     -43.887  57.671 -56.065  1.00  0.00     0.162 HD
HETATM   17  O   UNL     1     -42.658  55.159 -57.486  1.00  0.00    -0.267 OA
BRANCH  15  18
HETATM   18  C   UNL     1     -42.647  58.067 -57.651  1.00  0.00     0.123 C 
BRANCH  18  19
HETATM   19  C   UNL     1     -42.244  59.397 -57.032  1.00  0.00     0.024 C 
BRANCH  19  20
HETATM   20  C   UNL     1     -42.371  59.420 -55.506  1.00  0.00     0.040 C 
BRANCH  20  21
HETATM   21  C   UNL     1     -43.373  60.424 -54.976  1.00  0.00    -0.058 A 
HETATM   22  C   UNL     1     -44.759  60.263 -55.123  1.00  0.00     0.007 A 
HETATM   23  C   UNL     1     -45.645  61.232 -54.647  1.00  0.00     0.001 A 
HETATM   24  C   UNL     1     -45.161  62.361 -53.991  1.00  0.00     0.000 A 
HETATM   25  C   UNL     1     -43.789  62.517 -53.803  1.00  0.00     0.001 A 
HETATM   26  C   UNL     1     -42.903  61.554 -54.288  1.00  0.00     0.007 A 
ENDBRANCH  20  21
ENDBRANCH  19  20
ENDBRANCH  18  19
ENDBRANCH  15  18
ENDBRANCH   1  14
BRANCH   2  27
HETATM   27  N   UNL     1     -45.361  56.670 -54.454  1.00  0.00    -0.286 NA
HETATM   28  H   UNL     1     -46.170  56.202 -54.032  1.00  0.00     0.125 HD
HETATM   29  H   UNL     1     -45.382  57.652 -54.149  1.00  0.00     0.125 HD
ENDBRANCH   2  27
BRANCH   3  30
HETATM   30  N   UNL     1     -43.560  56.930 -52.059  1.00  0.00    -0.176 NA
HETATM   31  C   UNL     1     -42.966  58.034 -52.389  1.00  0.00     0.153 C 
BRANCH  31  32
HETATM   32  C   UNL     1     -42.804  59.133 -51.467  1.00  0.00     0.011 A 
HETATM   33  C   UNL     1     -43.850  59.997 -51.007  1.00  0.00     0.004 A 
HETATM   34  C   UNL     1     -43.255  61.001 -50.246  1.00  0.00     0.043 A 
HETATM   35  C   UNL     1     -45.251  60.025 -51.184  1.00  0.00     0.014 A 
HETATM   36  C   UNL     1     -43.989  62.047 -49.672  1.00  0.00     0.030 A 
HETATM   37  N   UNL     1     -41.904  60.738 -50.215  1.00  0.00    -0.364 N 
HETATM   38  C   UNL     1     -45.375  62.053 -49.865  1.00  0.00     0.002 A 
HETATM   39  C   UNL     1     -46.001  61.053 -50.605  1.00  0.00     0.001 A 
HETATM   40  H   UNL     1     -41.218  61.314 -49.746  1.00  0.00     0.165 HD
HETATM   41  C   UNL     1     -41.623  59.604 -50.933  1.00  0.00     0.102 A 
ENDBRANCH  31  32
ENDBRANCH   3  30
TORSDOF 8
ENDMDL
MODEL 9
REMARK VINA RESULT:      -9.3      2.246      9.219
REMARK  8 active torsions:
REMARK  status: ('A' for Active; 'I' for Inactive)
REMARK    1  A    between atoms: C_4  and  C_5 
REMARK    2  A    between atoms: C_5  and  C_6 
REMARK    3  A    between atoms: C_6  and  C_7 
REMARK    4  A    between atoms: C_7  and  N_8 
REMARK       I    between atoms: N_8  and  C_9 
REMARK    5  A    between atoms: C_9  and  C_10 
REMARK    6  A    between atoms: C_11  and  N_12 
REMARK    7  A    between atoms: N_13  and  N_14 
REMARK    8  A    between atoms: C_15  and  C_16 
ROOT
HETATM    1  C   UNL     1     -43.249  55.715 -55.317  1.00  0.00     0.104 C 
HETATM    2  C   UNL     1     -44.163  56.233 -54.407  1.00  0.00     0.123 C 
HETATM    3  N   UNL     1     -43.530  56.181 -53.164  1.00  0.00    -0.202 N 
HETATM    4  C   UNL     1     -42.686  55.087 -53.198  1.00  0.00     0.183 A 
HETATM    5  C   UNL     1     -42.430  54.835 -54.545  1.00  0.00     0.124 A 
HETATM    6  N   UNL     1     -41.496  53.922 -54.915  1.00  0.00    -0.242 NA
HETATM    7  C   UNL     1     -40.921  53.257 -53.899  1.00  0.00     0.086 A 
HETATM    8  C   UNL     1     -41.223  53.520 -52.536  1.00  0.00     0.088 A 
HETATM    9  N   UNL     1     -42.091  54.469 -52.152  1.00  0.00    -0.225 NA
HETATM   10  C   UNL     1     -39.997  52.264 -54.200  1.00  0.00     0.034 A 
HETATM   11  C   UNL     1     -39.378  51.512 -53.200  1.00  0.00     0.002 A 
HETATM   12  C   UNL     1     -39.683  51.761 -51.869  1.00  0.00     0.002 A 
HETATM   13  C   UNL     1     -40.598  52.765 -51.552  1.00  0.00     0.034 A 
ENDROOT
BRANCH   1  14
HETATM   14  C   UNL     1     -43.117  56.088 -56.723  1.00  0.00     0.257 C 
HETATM   15  N   UNL     1     -43.141  57.463 -56.930  1.00  0.00    -0.357 N 
HETATM   16  H   UNL     1     -43.343  57.984 -56.083  1.00  0.00     0.162 HD
HETATM   17  O   UNL     1     -42.851  55.289 -57.612  1.00  0.00    -0.267 OA
BRANCH  15  18
HETATM   18  C   UNL     1     -42.107  58.103 -57.716  1.00  0.00     0.123 C 
BRANCH  18  19
HETATM   19  C   UNL     1     -42.516  58.775 -59.019  1.00  0.00     0.024 C 
BRANCH  19  20
HETATM   20  C   UNL     1     -42.759  57.784 -60.162  1.00  0.00     0.040 C 
BRANCH  20  21
HETATM   21  C   UNL     1     -44.182  57.274 -60.257  1.00  0.00    -0.058 A 
HETATM   22  C   UNL     1     -45.298  58.096 -60.047  1.00  0.00     0.007 A 
HETATM   23  C   UNL     1     -46.592  57.576 -60.112  1.00  0.00     0.001 A 
HETATM   24  C   UNL     1     -46.790  56.232 -60.418  1.00  0.00     0.000 A 
HETATM   25  C   UNL     1     -45.693  55.409 -60.667  1.00  0.00     0.001 A 
HETATM   26  C   UNL     1     -44.399  55.928 -60.592  1.00  0.00     0.007 A 
ENDBRANCH  20  21
ENDBRANCH  19  20
ENDBRANCH  18  19
ENDBRANCH  15  18
ENDBRANCH   1  14
BRANCH   2  27
HETATM   27  N   UNL     1     -45.359  56.882 -54.585  1.00  0.00    -0.286 NA
HETATM   28  H   UNL     1     -46.150  56.512 -54.048  1.00  0.00     0.125 HD
HETATM   29  H   UNL     1     -45.333  57.898 -54.433  1.00  0.00     0.125 HD
ENDBRANCH   2  27
BRANCH   3  30
HETATM   30  N   UNL     1     -43.608  57.109 -52.150  1.00  0.00    -0.176 NA
HETATM   31  C   UNL     1     -42.993  58.207 -52.458  1.00  0.00     0.153 C 
BRANCH  31  32
HETATM   32  C   UNL     1     -42.840  59.298 -51.524  1.00  0.00     0.011 A 
HETATM   33  C   UNL     1     -43.894  60.143 -51.049  1.00  0.00     0.004 A 
HETATM   34  C   UNL     1     -43.308  61.147 -50.280  1.00  0.00     0.043 A 
HETATM   35  C   UNL     1     -45.296  60.156 -51.219  1.00  0.00     0.014 A 
HETATM   36  C   UNL     1     -44.052  62.177 -49.690  1.00  0.00     0.030 A 
HETATM   37  N   UNL     1     -41.953  60.900 -50.259  1.00  0.00    -0.364 N 
HETATM   38  C   UNL     1     -45.438  62.167 -49.877  1.00  0.00     0.002 A 
HETATM   39  C   UNL     1     -46.056  61.168 -50.625  1.00  0.00     0.001 A 
HETATM   40  H   UNL     1     -41.273  61.479 -49.787  1.00  0.00     0.165 HD
HETATM   41  C   UNL     1     -41.662  59.778 -50.991  1.00  0.00     0.102 A 
ENDBRANCH  31  32
ENDBRANCH   3  30
TORSDOF 8
ENDMDL
MODEL 10
REMARK VINA RESULT:      -9.1      2.321      8.959
REMARK  8 active torsions:
REMARK  status: ('A' for Active; 'I' for Inactive)
REMARK    1  A    between atoms: C_4  and  C_5 
REMARK    2  A    between atoms: C_5  and  C_6 
REMARK    3  A    between atoms: C_6  and  C_7 
REMARK    4  A    between atoms: C_7  and  N_8 
REMARK       I    between atoms: N_8  and  C_9 
REMARK    5  A    between atoms: C_9  and  C_10 
REMARK    6  A    between atoms: C_11  and  N_12 
REMARK    7  A    between atoms: N_13  and  N_14 
REMARK    8  A    between atoms: C_15  and  C_16 
ROOT
HETATM    1  C   UNL     1     -41.984  56.337 -54.437  1.00  0.00     0.104 C 
HETATM    2  C   UNL     1     -41.574  57.591 -53.998  1.00  0.00     0.123 C 
HETATM    3  N   UNL     1     -42.326  58.511 -54.729  1.00  0.00    -0.202 N 
HETATM    4  C   UNL     1     -42.574  57.931 -55.958  1.00  0.00     0.183 A 
HETATM    5  C   UNL     1     -42.448  56.555 -55.770  1.00  0.00     0.124 A 
HETATM    6  N   UNL     1     -42.796  55.685 -56.752  1.00  0.00    -0.242 NA
HETATM    7  C   UNL     1     -43.185  56.259 -57.903  1.00  0.00     0.086 A 
HETATM    8  C   UNL     1     -43.279  57.666 -58.072  1.00  0.00     0.088 A 
HETATM    9  N   UNL     1     -43.008  58.537 -57.087  1.00  0.00    -0.225 NA
HETATM   10  C   UNL     1     -43.501  55.435 -58.977  1.00  0.00     0.034 A 
HETATM   11  C   UNL     1     -43.887  55.956 -60.212  1.00  0.00     0.002 A 
HETATM   12  C   UNL     1     -43.967  57.332 -60.379  1.00  0.00     0.002 A 
HETATM   13  C   UNL     1     -43.667  58.171 -59.306  1.00  0.00     0.034 A 
ENDROOT
BRANCH   1  14
HETATM   14  C   UNL     1     -42.016  55.109 -53.647  1.00  0.00     0.257 C 
HETATM   15  N   UNL     1     -41.144  55.131 -52.563  1.00  0.00    -0.357 N 
HETATM   16  H   UNL     1     -40.554  55.956 -52.551  1.00  0.00     0.162 HD
HETATM   17  O   UNL     1     -42.837  54.217 -53.817  1.00  0.00    -0.267 OA
BRANCH  15  18
HETATM   18  C   UNL     1     -41.615  54.792 -51.236  1.00  0.00     0.123 C 
BRANCH  18  19
HETATM   19  C   UNL     1     -41.075  53.523 -50.592  1.00  0.00     0.024 C 
BRANCH  19  20
HETATM   20  C   UNL     1     -39.703  53.106 -51.130  1.00  0.00     0.040 C 
BRANCH  20  21
HETATM   21  C   UNL     1     -39.731  51.911 -52.060  1.00  0.00    -0.058 A 
HETATM   22  C   UNL     1     -39.926  52.032 -53.444  1.00  0.00     0.007 A 
HETATM   23  C   UNL     1     -39.978  50.900 -54.259  1.00  0.00     0.001 A 
HETATM   24  C   UNL     1     -39.806  49.633 -53.709  1.00  0.00     0.000 A 
HETATM   25  C   UNL     1     -39.573  49.497 -52.342  1.00  0.00     0.001 A 
HETATM   26  C   UNL     1     -39.532  50.629 -51.525  1.00  0.00     0.007 A 
ENDBRANCH  20  21
ENDBRANCH  19  20
ENDBRANCH  18  19
ENDBRANCH  15  18
ENDBRANCH   1  14
BRANCH   2  27
HETATM   27  N   UNL     1     -40.781  57.974 -52.946  1.00  0.00    -0.286 NA
HETATM   28  H   UNL     1     -41.031  58.864 -52.501  1.00  0.00     0.125 HD
HETATM   29  H   UNL     1     -40.677  57.277 -52.198  1.00  0.00     0.125 HD
ENDBRANCH   2  27
BRANCH   3  30
HETATM   30  N   UNL     1     -42.851  59.702 -54.278  1.00  0.00    -0.176 NA
HETATM   31  C   UNL     1     -43.881  59.514 -53.515  1.00  0.00     0.153 C 
BRANCH  31  32
HETATM   32  C   UNL     1     -44.673  60.604 -52.998  1.00  0.00     0.011 A 
HETATM   33  C   UNL     1     -44.275  61.505 -51.958  1.00  0.00     0.004 A 
HETATM   34  C   UNL     1     -45.372  62.315 -51.667  1.00  0.00     0.043 A 
HETATM   35  C   UNL     1     -43.084  61.693 -51.223  1.00  0.00     0.014 A 
HETATM   36  C   UNL     1     -45.344  63.288 -50.661  1.00  0.00     0.030 A 
HETATM   37  N   UNL     1     -46.385  61.944 -52.522  1.00  0.00    -0.364 N 
HETATM   38  C   UNL     1     -44.152  63.453 -49.946  1.00  0.00     0.002 A 
HETATM   39  C   UNL     1     -43.033  62.671 -50.225  1.00  0.00     0.001 A 
HETATM   40  H   UNL     1     -47.309  62.353 -52.526  1.00  0.00     0.165 HD
HETATM   41  C   UNL     1     -45.969  60.927 -53.341  1.00  0.00     0.102 A 
ENDBRANCH  31  32
ENDBRANCH   3  30
TORSDOF 8
ENDMDL
