MODEL 1
REMARK VINA RESULT:      -9.0      0.000      0.000
REMARK  4 active torsions:
REMARK  status: ('A' for Active; 'I' for Inactive)
REMARK    1  A    between atoms: O_2  and  C_3 
REMARK    2  A    between atoms: C_3  and  C_4 
REMARK    3  A    between atoms: N_11  and  C_13 
REMARK    4  A    between atoms: C_13  and  C_14 
ROOT
HETATM    1  C   UNL     1     -41.735  55.368 -51.356  1.00  0.00     0.290 C 
HETATM    2  N   UNL     1     -41.624  55.994 -52.800  1.00  0.00    -0.047 N 
HETATM    3  H   UNL     1     -40.618  56.219 -52.882  1.00  0.00     0.279 HD
HETATM    4  H   UNL     1     -42.080  56.917 -52.738  1.00  0.00     0.279 HD
HETATM    5  C   UNL     1     -42.011  55.083 -53.947  1.00  0.00     0.172 C 
HETATM    6  C   UNL     1     -43.539  54.930 -54.031  1.00  0.00     0.073 C 
HETATM    7  C   UNL     1     -44.268  56.195 -54.468  1.00  0.00     0.238 C 
HETATM    8  N   UNL     1     -43.687  56.712 -55.759  1.00  0.00    -0.067 N 
HETATM    9  H   UNL     1     -43.893  56.024 -56.500  1.00  0.00     0.280 HD
HETATM   10  C   UNL     1     -42.205  56.951 -55.702  1.00  0.00     0.238 C 
HETATM   11  C   UNL     1     -41.477  55.689 -55.261  1.00  0.00     0.073 C 
HETATM   12  C   UNL     1     -41.353  53.760 -53.654  1.00  0.00     0.053 A 
HETATM   13  C   UNL     1     -40.780  53.361 -52.453  1.00  0.00    -0.018 A 
HETATM   14  C   UNL     1     -40.727  54.221 -51.234  1.00  0.00     0.085 C 
HETATM   15  N   UNL     1     -41.222  52.706 -54.532  1.00  0.00    -0.356 N 
HETATM   16  H   UNL     1     -41.541  52.655 -55.491  1.00  0.00     0.166 HD
HETATM   17  C   UNL     1     -40.552  51.666 -53.928  1.00  0.00     0.043 A 
HETATM   18  C   UNL     1     -40.266  52.048 -52.619  1.00  0.00    -0.001 A 
HETATM   19  C   UNL     1     -40.182  50.419 -54.447  1.00  0.00     0.030 A 
HETATM   20  C   UNL     1     -39.501  49.541 -53.599  1.00  0.00     0.002 A 
HETATM   21  C   UNL     1     -39.204  49.896 -52.287  1.00  0.00     0.001 A 
HETATM   22  C   UNL     1     -39.581  51.146 -51.782  1.00  0.00     0.014 A 
ENDROOT
BRANCH   1  23
HETATM   23  C   UNL     1     -41.496  56.482 -50.346  1.00  0.00     0.289 C 
HETATM   24  O   UNL     1     -41.128  56.197 -49.209  1.00  0.00    -0.263 OA
BRANCH  23  25
HETATM   25  O   UNL     1     -41.672  57.711 -50.866  1.00  0.00    -0.325 OA
HETATM   26  C   UNL     1     -40.710  58.689 -50.445  1.00  0.00     0.213 C 
ENDBRANCH  23  25
ENDBRANCH   1  23
BRANCH   8  27
HETATM   27  C   UNL     1     -44.409  57.980 -56.257  1.00  0.00     0.273 C 
BRANCH  27  28
HETATM   28  C   UNL     1     -45.090  57.797 -57.582  1.00  0.00    -0.033 A 
HETATM   29  C   UNL     1     -46.418  58.219 -57.758  1.00  0.00     0.009 A 
HETATM   30  C   UNL     1     -47.063  58.028 -58.981  1.00  0.00     0.001 A 
HETATM   31  C   UNL     1     -46.392  57.418 -60.037  1.00  0.00     0.000 A 
HETATM   32  C   UNL     1     -45.071  57.005 -59.878  1.00  0.00     0.001 A 
HETATM   33  C   UNL     1     -44.419  57.194 -58.658  1.00  0.00     0.009 A 
ENDBRANCH  27  28
ENDBRANCH   8  27
TORSDOF 4
ENDMDL
MODEL 2
REMARK VINA RESULT:      -8.9      1.935      7.811
REMARK  4 active torsions:
REMARK  status: ('A' for Active; 'I' for Inactive)
REMARK    1  A    between atoms: O_2  and  C_3 
REMARK    2  A    between atoms: C_3  and  C_4 
REMARK    3  A    between atoms: N_11  and  C_13 
REMARK    4  A    between atoms: C_13  and  C_14 
ROOT
HETATM    1  C   UNL     1     -42.085  58.432 -55.141  1.00  0.00     0.290 C 
HETATM    2  N   UNL     1     -42.522  57.137 -54.354  1.00  0.00    -0.047 N 
HETATM    3  H   UNL     1     -43.515  57.320 -54.131  1.00  0.00     0.279 HD
HETATM    4  H   UNL     1     -42.049  57.195 -53.439  1.00  0.00     0.279 HD
HETATM    5  C   UNL     1     -42.431  55.834 -55.122  1.00  0.00     0.172 C 
HETATM    6  C   UNL     1     -40.969  55.375 -55.247  1.00  0.00     0.073 C 
HETATM    7  C   UNL     1     -40.342  54.927 -53.933  1.00  0.00     0.238 C 
HETATM    8  N   UNL     1     -41.201  53.877 -53.275  1.00  0.00    -0.067 N 
HETATM    9  H   UNL     1     -41.187  53.034 -53.871  1.00  0.00     0.280 HD
HETATM   10  C   UNL     1     -42.625  54.310 -53.061  1.00  0.00     0.238 C 
HETATM   11  C   UNL     1     -43.250  54.762 -54.373  1.00  0.00     0.073 C 
HETATM   12  C   UNL     1     -43.024  56.120 -56.477  1.00  0.00     0.053 A 
HETATM   13  C   UNL     1     -43.305  57.368 -57.018  1.00  0.00    -0.018 A 
HETATM   14  C   UNL     1     -43.055  58.656 -56.305  1.00  0.00     0.085 C 
HETATM   15  N   UNL     1     -43.376  55.182 -57.424  1.00  0.00    -0.356 N 
HETATM   16  H   UNL     1     -43.293  54.175 -57.359  1.00  0.00     0.166 HD
HETATM   17  C   UNL     1     -43.903  55.803 -58.533  1.00  0.00     0.043 A 
HETATM   18  C   UNL     1     -43.866  57.178 -58.308  1.00  0.00    -0.001 A 
HETATM   19  C   UNL     1     -44.406  55.247 -59.715  1.00  0.00     0.030 A 
HETATM   20  C   UNL     1     -44.883  56.124 -60.693  1.00  0.00     0.002 A 
HETATM   21  C   UNL     1     -44.856  57.501 -60.495  1.00  0.00     0.001 A 
HETATM   22  C   UNL     1     -44.350  58.043 -59.308  1.00  0.00     0.014 A 
ENDROOT
BRANCH   1  23
HETATM   23  C   UNL     1     -42.060  59.591 -54.153  1.00  0.00     0.289 C 
HETATM   24  O   UNL     1     -43.003  60.378 -54.124  1.00  0.00    -0.263 OA
BRANCH  23  25
HETATM   25  O   UNL     1     -40.978  59.578 -53.353  1.00  0.00    -0.325 OA
HETATM   26  C   UNL     1     -41.267  59.577 -51.948  1.00  0.00     0.213 C 
ENDBRANCH  23  25
ENDBRANCH   1  23
BRANCH   8  27
HETATM   27  C   UNL     1     -40.596  53.372 -51.951  1.00  0.00     0.273 C 
BRANCH  27  28
HETATM   28  C   UNL     1     -40.178  51.931 -51.998  1.00  0.00    -0.033 A 
HETATM   29  C   UNL     1     -39.967  51.296 -53.233  1.00  0.00     0.009 A 
HETATM   30  C   UNL     1     -39.602  49.950 -53.281  1.00  0.00     0.001 A 
HETATM   31  C   UNL     1     -39.442  49.227 -52.102  1.00  0.00     0.000 A 
HETATM   32  C   UNL     1     -39.638  49.849 -50.871  1.00  0.00     0.001 A 
HETATM   33  C   UNL     1     -40.003  51.195 -50.815  1.00  0.00     0.009 A 
ENDBRANCH  27  28
ENDBRANCH   8  27
TORSDOF 4
ENDMDL
MODEL 3
REMARK VINA RESULT:      -8.9      0.929      1.302
REMARK  4 active torsions:
REMARK  status: ('A' for Active; 'I' for Inactive)
REMARK    1  A    between atoms: O_2  and  C_3 
REMARK    2  A    between atoms: C_3  and  C_4 
REMARK    3  A    between atoms: N_11  and  C_13 
REMARK    4  A    between atoms: C_13  and  C_14 
ROOT
HETATM    1  C   UNL     1     -41.704  55.443 -51.426  1.00  0.00     0.290 C 
HETATM    2  N   UNL     1     -41.605  56.009 -52.895  1.00  0.00    -0.047 N 
HETATM    3  H   UNL     1     -40.599  56.227 -52.996  1.00  0.00     0.279 HD
HETATM    4  H   UNL     1     -42.057  56.935 -52.867  1.00  0.00     0.279 HD
HETATM    5  C   UNL     1     -42.005  55.054 -54.001  1.00  0.00     0.172 C 
HETATM    6  C   UNL     1     -43.535  54.903 -54.065  1.00  0.00     0.073 C 
HETATM    7  C   UNL     1     -44.263  56.152 -54.546  1.00  0.00     0.238 C 
HETATM    8  N   UNL     1     -43.694  56.615 -55.862  1.00  0.00    -0.067 N 
HETATM    9  H   UNL     1     -43.909  55.898 -56.573  1.00  0.00     0.280 HD
HETATM   10  C   UNL     1     -42.210  56.851 -55.828  1.00  0.00     0.238 C 
HETATM   11  C   UNL     1     -41.481  55.605 -55.343  1.00  0.00     0.073 C 
HETATM   12  C   UNL     1     -41.349  53.742 -53.660  1.00  0.00     0.053 A 
HETATM   13  C   UNL     1     -40.766  53.390 -52.450  1.00  0.00    -0.018 A 
HETATM   14  C   UNL     1     -40.699  54.298 -51.267  1.00  0.00     0.085 C 
HETATM   15  N   UNL     1     -41.229  52.653 -54.496  1.00  0.00    -0.356 N 
HETATM   16  H   UNL     1     -41.557  52.565 -55.450  1.00  0.00     0.166 HD
HETATM   17  C   UNL     1     -40.556  51.636 -53.858  1.00  0.00     0.043 A 
HETATM   18  C   UNL     1     -40.257  52.070 -52.568  1.00  0.00    -0.001 A 
HETATM   19  C   UNL     1     -40.195  50.368 -54.329  1.00  0.00     0.030 A 
HETATM   20  C   UNL     1     -39.508  49.522 -53.453  1.00  0.00     0.002 A 
HETATM   21  C   UNL     1     -39.198  49.929 -52.159  1.00  0.00     0.001 A 
HETATM   22  C   UNL     1     -39.567  51.200 -51.701  1.00  0.00     0.014 A 
ENDROOT
BRANCH   1  23
HETATM   23  C   UNL     1     -41.453  56.596 -50.465  1.00  0.00     0.289 C 
HETATM   24  O   UNL     1     -41.168  56.354 -49.294  1.00  0.00    -0.263 OA
BRANCH  23  25
HETATM   25  O   UNL     1     -41.522  57.802 -51.058  1.00  0.00    -0.325 OA
HETATM   26  C   UNL     1     -40.477  58.715 -50.694  1.00  0.00     0.213 C 
ENDBRANCH  23  25
ENDBRANCH   1  23
BRANCH   8  27
HETATM   27  C   UNL     1     -44.416  57.864 -56.404  1.00  0.00     0.273 C 
BRANCH  27  28
HETATM   28  C   UNL     1     -44.037  58.206 -57.816  1.00  0.00    -0.033 A 
HETATM   29  C   UNL     1     -44.332  57.317 -58.863  1.00  0.00     0.009 A 
HETATM   30  C   UNL     1     -43.959  57.621 -60.173  1.00  0.00     0.001 A 
HETATM   31  C   UNL     1     -43.291  58.810 -60.451  1.00  0.00     0.000 A 
HETATM   32  C   UNL     1     -43.003  59.705 -59.423  1.00  0.00     0.001 A 
HETATM   33  C   UNL     1     -43.374  59.408 -58.110  1.00  0.00     0.009 A 
ENDBRANCH  27  28
ENDBRANCH   8  27
TORSDOF 4
ENDMDL
MODEL 4
REMARK VINA RESULT:      -8.7      1.975      7.787
REMARK  4 active torsions:
REMARK  status: ('A' for Active; 'I' for Inactive)
REMARK    1  A    between atoms: O_2  and  C_3 
REMARK    2  A    between atoms: C_3  and  C_4 
REMARK    3  A    between atoms: N_11  and  C_13 
REMARK    4  A    between atoms: C_13  and  C_14 
ROOT
HETATM    1  C   UNL     1     -44.295  58.220 -52.762  1.00  0.00     0.290 C 
HETATM    2  N   UNL     1     -43.976  56.677 -52.839  1.00  0.00    -0.047 N 
HETATM    3  H   UNL     1     -44.915  56.244 -52.866  1.00  0.00     0.279 HD
HETATM    4  H   UNL     1     -43.612  56.421 -51.909  1.00  0.00     0.279 HD
HETATM    5  C   UNL     1     -43.199  56.222 -54.058  1.00  0.00     0.172 C 
HETATM    6  C   UNL     1     -41.717  56.615 -53.938  1.00  0.00     0.073 C 
HETATM    7  C   UNL     1     -40.955  55.849 -52.864  1.00  0.00     0.238 C 
HETATM    8  N   UNL     1     -41.124  54.364 -53.061  1.00  0.00    -0.067 N 
HETATM    9  H   UNL     1     -40.659  54.105 -53.946  1.00  0.00     0.280 HD
HETATM   10  C   UNL     1     -42.559  53.921 -53.107  1.00  0.00     0.238 C 
HETATM   11  C   UNL     1     -43.322  54.689 -54.177  1.00  0.00     0.073 C 
HETATM   12  C   UNL     1     -43.846  56.910 -55.231  1.00  0.00     0.053 A 
HETATM   13  C   UNL     1     -44.748  57.966 -55.186  1.00  0.00    -0.018 A 
HETATM   14  C   UNL     1     -45.228  58.592 -53.918  1.00  0.00     0.085 C 
HETATM   15  N   UNL     1     -43.638  56.616 -56.561  1.00  0.00    -0.356 N 
HETATM   16  H   UNL     1     -43.030  55.906 -56.951  1.00  0.00     0.166 HD
HETATM   17  C   UNL     1     -44.409  57.434 -57.355  1.00  0.00     0.043 A 
HETATM   18  C   UNL     1     -45.114  58.296 -56.517  1.00  0.00    -0.001 A 
HETATM   19  C   UNL     1     -44.531  57.472 -58.749  1.00  0.00     0.030 A 
HETATM   20  C   UNL     1     -45.398  58.421 -59.299  1.00  0.00     0.002 A 
HETATM   21  C   UNL     1     -46.112  59.295 -58.485  1.00  0.00     0.001 A 
HETATM   22  C   UNL     1     -45.980  59.246 -57.092  1.00  0.00     0.014 A 
ENDROOT
BRANCH   1  23
HETATM   23  C   UNL     1     -44.898  58.503 -51.393  1.00  0.00     0.289 C 
HETATM   24  O   UNL     1     -45.596  57.648 -50.854  1.00  0.00    -0.263 OA
BRANCH  23  25
HETATM   25  O   UNL     1     -44.527  59.694 -50.890  1.00  0.00    -0.325 OA
HETATM   26  C   UNL     1     -45.606  60.514 -50.419  1.00  0.00     0.213 C 
ENDBRANCH  23  25
ENDBRANCH   1  23
BRANCH   8  27
HETATM   27  C   UNL     1     -40.349  53.544 -52.012  1.00  0.00     0.273 C 
BRANCH  27  28
HETATM   28  C   UNL     1     -40.067  52.135 -52.446  1.00  0.00    -0.033 A 
HETATM   29  C   UNL     1     -39.841  51.132 -51.488  1.00  0.00     0.009 A 
HETATM   30  C   UNL     1     -39.554  49.826 -51.888  1.00  0.00     0.001 A 
HETATM   31  C   UNL     1     -39.490  49.508 -53.242  1.00  0.00     0.000 A 
HETATM   32  C   UNL     1     -39.723  50.492 -54.201  1.00  0.00     0.001 A 
HETATM   33  C   UNL     1     -40.011  51.800 -53.808  1.00  0.00     0.009 A 
ENDBRANCH  27  28
ENDBRANCH   8  27
TORSDOF 4
ENDMDL
MODEL 5
REMARK VINA RESULT:      -8.6      3.256      8.612
REMARK  4 active torsions:
REMARK  status: ('A' for Active; 'I' for Inactive)
REMARK    1  A    between atoms: O_2  and  C_3 
REMARK    2  A    between atoms: C_3  and  C_4 
REMARK    3  A    between atoms: N_11  and  C_13 
REMARK    4  A    between atoms: C_13  and  C_14 
ROOT
HETATM    1  C   UNL     1     -43.461  56.827 -57.423  1.00  0.00     0.290 C 
HETATM    2  N   UNL     1     -42.197  56.417 -56.572  1.00  0.00    -0.047 N 
HETATM    3  H   UNL     1     -41.558  57.219 -56.700  1.00  0.00     0.279 HD
HETATM    4  H   UNL     1     -41.745  55.653 -57.098  1.00  0.00     0.279 HD
HETATM    5  C   UNL     1     -42.434  56.217 -55.090  1.00  0.00     0.172 C 
HETATM    6  C   UNL     1     -43.158  54.885 -54.826  1.00  0.00     0.073 C 
HETATM    7  C   UNL     1     -42.309  53.651 -55.105  1.00  0.00     0.238 C 
HETATM    8  N   UNL     1     -41.004  53.734 -54.356  1.00  0.00    -0.067 N 
HETATM    9  H   UNL     1     -41.212  53.685 -53.346  1.00  0.00     0.280 HD
HETATM   10  C   UNL     1     -40.223  54.986 -54.641  1.00  0.00     0.238 C 
HETATM   11  C   UNL     1     -41.072  56.220 -54.367  1.00  0.00     0.073 C 
HETATM   12  C   UNL     1     -43.281  57.385 -54.654  1.00  0.00     0.053 A 
HETATM   13  C   UNL     1     -43.957  58.277 -55.475  1.00  0.00    -0.018 A 
HETATM   14  C   UNL     1     -43.939  58.209 -56.966  1.00  0.00     0.085 C 
HETATM   15  N   UNL     1     -43.542  57.758 -53.353  1.00  0.00    -0.356 N 
HETATM   16  H   UNL     1     -43.214  57.315 -52.503  1.00  0.00     0.166 HD
HETATM   17  C   UNL     1     -44.337  58.881 -53.332  1.00  0.00     0.043 A 
HETATM   18  C   UNL     1     -44.617  59.227 -54.652  1.00  0.00    -0.001 A 
HETATM   19  C   UNL     1     -44.825  59.611 -52.242  1.00  0.00     0.030 A 
HETATM   20  C   UNL     1     -45.624  60.726 -52.514  1.00  0.00     0.002 A 
HETATM   21  C   UNL     1     -45.921  61.093 -53.823  1.00  0.00     0.001 A 
HETATM   22  C   UNL     1     -45.426  60.353 -54.903  1.00  0.00     0.014 A 
ENDROOT
BRANCH   1  23
HETATM   23  C   UNL     1     -43.066  56.787 -58.893  1.00  0.00     0.289 C 
HETATM   24  O   UNL     1     -42.777  55.711 -59.410  1.00  0.00    -0.263 OA
BRANCH  23  25
HETATM   25  O   UNL     1     -43.140  57.990 -59.491  1.00  0.00    -0.325 OA
HETATM   26  C   UNL     1     -41.997  58.341 -60.284  1.00  0.00     0.213 C 
ENDBRANCH  23  25
ENDBRANCH   1  23
BRANCH   8  27
HETATM   27  C   UNL     1     -40.118  52.494 -54.586  1.00  0.00     0.273 C 
BRANCH  27  28
HETATM   28  C   UNL     1     -39.963  51.636 -53.364  1.00  0.00    -0.033 A 
HETATM   29  C   UNL     1     -40.013  52.214 -52.084  1.00  0.00     0.009 A 
HETATM   30  C   UNL     1     -39.844  51.425 -50.946  1.00  0.00     0.001 A 
HETATM   31  C   UNL     1     -39.626  50.055 -51.072  1.00  0.00     0.000 A 
HETATM   32  C   UNL     1     -39.586  49.469 -52.336  1.00  0.00     0.001 A 
HETATM   33  C   UNL     1     -39.755  50.253 -53.478  1.00  0.00     0.009 A 
ENDBRANCH  27  28
ENDBRANCH   8  27
TORSDOF 4
ENDMDL
MODEL 6
REMARK VINA RESULT:      -8.6      3.513      6.149
REMARK  4 active torsions:
REMARK  status: ('A' for Active; 'I' for Inactive)
REMARK    1  A    between atoms: O_2  and  C_3 
REMARK    2  A    between atoms: C_3  and  C_4 
REMARK    3  A    between atoms: N_11  and  C_13 
REMARK    4  A    between atoms: C_13  and  C_14 
ROOT
HETATM    1  C   UNL     1     -42.247  56.211 -56.079  1.00  0.00     0.290 C 
HETATM    2  N   UNL     1     -42.995  56.854 -54.848  1.00  0.00    -0.047 N 
HETATM    3  H   UNL     1     -43.820  56.242 -54.727  1.00  0.00     0.279 HD
HETATM    4  H   UNL     1     -43.393  57.740 -55.197  1.00  0.00     0.279 HD
HETATM    5  C   UNL     1     -42.221  56.885 -53.546  1.00  0.00     0.172 C 
HETATM    6  C   UNL     1     -41.141  57.980 -53.579  1.00  0.00     0.073 C 
HETATM    7  C   UNL     1     -41.694  59.399 -53.567  1.00  0.00     0.238 C 
HETATM    8  N   UNL     1     -42.638  59.583 -52.407  1.00  0.00    -0.067 N 
HETATM    9  H   UNL     1     -42.091  59.509 -51.535  1.00  0.00     0.280 HD
HETATM   10  C   UNL     1     -43.758  58.581 -52.376  1.00  0.00     0.238 C 
HETATM   11  C   UNL     1     -43.207  57.162 -52.392  1.00  0.00     0.073 C 
HETATM   12  C   UNL     1     -41.600  55.519 -53.411  1.00  0.00     0.053 A 
HETATM   13  C   UNL     1     -41.495  54.549 -54.400  1.00  0.00    -0.018 A 
HETATM   14  C   UNL     1     -42.006  54.726 -55.792  1.00  0.00     0.085 C 
HETATM   15  N   UNL     1     -41.011  55.003 -52.277  1.00  0.00    -0.356 N 
HETATM   16  H   UNL     1     -40.905  55.452 -51.376  1.00  0.00     0.166 HD
HETATM   17  C   UNL     1     -40.567  53.722 -52.514  1.00  0.00     0.043 A 
HETATM   18  C   UNL     1     -40.855  53.412 -53.842  1.00  0.00    -0.001 A 
HETATM   19  C   UNL     1     -39.935  52.820 -51.650  1.00  0.00     0.030 A 
HETATM   20  C   UNL     1     -39.586  51.568 -52.162  1.00  0.00     0.002 A 
HETATM   21  C   UNL     1     -39.859  51.233 -53.485  1.00  0.00     0.001 A 
HETATM   22  C   UNL     1     -40.492  52.145 -54.337  1.00  0.00     0.014 A 
ENDROOT
BRANCH   1  23
HETATM   23  C   UNL     1     -43.099  56.449 -57.318  1.00  0.00     0.289 C 
HETATM   24  O   UNL     1     -43.533  57.576 -57.544  1.00  0.00    -0.263 OA
BRANCH  23  25
HETATM   25  O   UNL     1     -43.234  55.351 -58.084  1.00  0.00    -0.325 OA
HETATM   26  C   UNL     1     -43.670  55.601 -59.427  1.00  0.00     0.213 C 
ENDBRANCH  23  25
ENDBRANCH   1  23
BRANCH   8  27
HETATM   27  C   UNL     1     -43.206  61.014 -52.337  1.00  0.00     0.273 C 
BRANCH  27  28
HETATM   28  C   UNL     1     -44.075  61.253 -51.136  1.00  0.00    -0.033 A 
HETATM   29  C   UNL     1     -45.430  61.588 -51.299  1.00  0.00     0.009 A 
HETATM   30  C   UNL     1     -46.235  61.835 -50.186  1.00  0.00     0.001 A 
HETATM   31  C   UNL     1     -45.699  61.750 -48.904  1.00  0.00     0.000 A 
HETATM   32  C   UNL     1     -44.360  61.407 -48.730  1.00  0.00     0.001 A 
HETATM   33  C   UNL     1     -43.549  61.158 -49.838  1.00  0.00     0.009 A 
ENDBRANCH  27  28
ENDBRANCH   8  27
TORSDOF 4
ENDMDL
MODEL 7
REMARK VINA RESULT:      -8.5      1.106      1.564
REMARK  4 active torsions:
REMARK  status: ('A' for Active; 'I' for Inactive)
REMARK    1  A    between atoms: O_2  and  C_3 
REMARK    2  A    between atoms: C_3  and  C_4 
REMARK    3  A    between atoms: N_11  and  C_13 
REMARK    4  A    between atoms: C_13  and  C_14 
ROOT
HETATM    1  C   UNL     1     -42.080  56.704 -51.864  1.00  0.00     0.290 C 
HETATM    2  N   UNL     1     -42.062  57.117 -53.386  1.00  0.00    -0.047 N 
HETATM    3  H   UNL     1     -41.070  57.353 -53.554  1.00  0.00     0.279 HD
HETATM    4  H   UNL     1     -42.544  58.028 -53.432  1.00  0.00     0.279 HD
HETATM    5  C   UNL     1     -42.477  56.041 -54.369  1.00  0.00     0.172 C 
HETATM    6  C   UNL     1     -44.001  55.840 -54.347  1.00  0.00     0.073 C 
HETATM    7  C   UNL     1     -44.791  57.010 -54.920  1.00  0.00     0.238 C 
HETATM    8  N   UNL     1     -44.294  57.350 -56.301  1.00  0.00    -0.067 N 
HETATM    9  H   UNL     1     -44.514  56.557 -56.924  1.00  0.00     0.280 HD
HETATM   10  C   UNL     1     -42.819  57.632 -56.359  1.00  0.00     0.238 C 
HETATM   11  C   UNL     1     -42.029  56.465 -55.783  1.00  0.00     0.073 C 
HETATM   12  C   UNL     1     -41.762  54.791 -53.926  1.00  0.00     0.053 A 
HETATM   13  C   UNL     1     -41.116  54.584 -52.714  1.00  0.00    -0.018 A 
HETATM   14  C   UNL     1     -41.031  55.612 -51.634  1.00  0.00     0.085 C 
HETATM   15  N   UNL     1     -41.641  53.625 -54.651  1.00  0.00    -0.356 N 
HETATM   16  H   UNL     1     -42.006  53.429 -55.575  1.00  0.00     0.166 HD
HETATM   17  C   UNL     1     -40.907  52.700 -53.943  1.00  0.00     0.043 A 
HETATM   18  C   UNL     1     -40.569  53.275 -52.720  1.00  0.00    -0.001 A 
HETATM   19  C   UNL     1     -40.523  51.402 -54.298  1.00  0.00     0.030 A 
HETATM   20  C   UNL     1     -39.772  50.672 -53.372  1.00  0.00     0.002 A 
HETATM   21  C   UNL     1     -39.422  51.220 -52.142  1.00  0.00     0.001 A 
HETATM   22  C   UNL     1     -39.814  52.520 -51.801  1.00  0.00     0.014 A 
ENDROOT
BRANCH   1  23
HETATM   23  C   UNL     1     -41.828  57.957 -51.038  1.00  0.00     0.289 C 
HETATM   24  O   UNL     1     -40.756  58.089 -50.453  1.00  0.00    -0.263 OA
BRANCH  23  25
HETATM   25  O   UNL     1     -42.841  58.841 -51.098  1.00  0.00    -0.325 OA
HETATM   26  C   UNL     1     -42.445  60.199 -51.341  1.00  0.00     0.213 C 
ENDBRANCH  23  25
ENDBRANCH   1  23
BRANCH   8  27
HETATM   27  C   UNL     1     -45.080  58.514 -56.935  1.00  0.00     0.273 C 
BRANCH  27  28
HETATM   28  C   UNL     1     -45.765  58.143 -58.219  1.00  0.00    -0.033 A 
HETATM   29  C   UNL     1     -45.393  56.976 -58.906  1.00  0.00     0.009 A 
HETATM   30  C   UNL     1     -46.009  56.640 -60.112  1.00  0.00     0.001 A 
HETATM   31  C   UNL     1     -47.000  57.462 -60.643  1.00  0.00     0.000 A 
HETATM   32  C   UNL     1     -47.385  58.617 -59.964  1.00  0.00     0.001 A 
HETATM   33  C   UNL     1     -46.773  58.958 -58.757  1.00  0.00     0.009 A 
ENDBRANCH  27  28
ENDBRANCH   8  27
TORSDOF 4
ENDMDL
MODEL 8
REMARK VINA RESULT:      -8.4      3.101      5.102
REMARK  4 active torsions:
REMARK  status: ('A' for Active; 'I' for Inactive)
REMARK    1  A    between atoms: O_2  and  C_3 
REMARK    2  A    between atoms: C_3  and  C_4 
REMARK    3  A    between atoms: N_11  and  C_13 
REMARK    4  A    between atoms: C_13  and  C_14 
ROOT
HETATM    1  C   UNL     1     -42.084  56.025 -55.387  1.00  0.00     0.290 C 
HETATM    2  N   UNL     1     -43.001  56.360 -54.147  1.00  0.00    -0.047 N 
HETATM    3  H   UNL     1     -43.779  55.685 -54.240  1.00  0.00     0.279 HD
HETATM    4  H   UNL     1     -43.436  57.270 -54.361  1.00  0.00     0.279 HD
HETATM    5  C   UNL     1     -42.364  56.178 -52.785  1.00  0.00     0.172 C 
HETATM    6  C   UNL     1     -41.382  57.323 -52.484  1.00  0.00     0.073 C 
HETATM    7  C   UNL     1     -42.051  58.673 -52.261  1.00  0.00     0.238 C 
HETATM    8  N   UNL     1     -43.117  58.560 -51.201  1.00  0.00    -0.067 N 
HETATM    9  H   UNL     1     -42.653  58.348 -50.304  1.00  0.00     0.280 HD
HETATM   10  C   UNL     1     -44.146  57.503 -51.491  1.00  0.00     0.238 C 
HETATM   11  C   UNL     1     -43.478  56.155 -51.718  1.00  0.00     0.073 C 
HETATM   12  C   UNL     1     -41.645  54.855 -52.847  1.00  0.00     0.053 A 
HETATM   13  C   UNL     1     -41.363  54.112 -53.986  1.00  0.00    -0.018 A 
HETATM   14  C   UNL     1     -41.748  54.531 -55.365  1.00  0.00     0.085 C 
HETATM   15  N   UNL     1     -41.129  54.160 -51.774  1.00  0.00    -0.356 N 
HETATM   16  H   UNL     1     -41.150  54.425 -50.797  1.00  0.00     0.166 HD
HETATM   17  C   UNL     1     -40.558  52.983 -52.202  1.00  0.00     0.043 A 
HETATM   18  C   UNL     1     -40.686  52.929 -53.588  1.00  0.00    -0.001 A 
HETATM   19  C   UNL     1     -39.939  51.969 -51.462  1.00  0.00     0.030 A 
HETATM   20  C   UNL     1     -39.437  50.869 -52.163  1.00  0.00     0.002 A 
HETATM   21  C   UNL     1     -39.550  50.790 -53.548  1.00  0.00     0.001 A 
HETATM   22  C   UNL     1     -40.171  51.812 -54.275  1.00  0.00     0.014 A 
ENDROOT
BRANCH   1  23
HETATM   23  C   UNL     1     -42.828  56.452 -56.644  1.00  0.00     0.289 C 
HETATM   24  O   UNL     1     -43.044  57.646 -56.841  1.00  0.00    -0.263 OA
BRANCH  23  25
HETATM   25  O   UNL     1     -43.125  55.422 -57.457  1.00  0.00    -0.325 OA
HETATM   26  C   UNL     1     -43.330  55.776 -58.832  1.00  0.00     0.213 C 
ENDBRANCH  23  25
ENDBRANCH   1  23
BRANCH   8  27
HETATM   27  C   UNL     1     -43.808  59.909 -50.921  1.00  0.00     0.273 C 
BRANCH  27  28
HETATM   28  C   UNL     1     -44.092  60.703 -52.163  1.00  0.00    -0.033 A 
HETATM   29  C   UNL     1     -43.277  61.795 -52.506  1.00  0.00     0.009 A 
HETATM   30  C   UNL     1     -43.552  62.551 -53.646  1.00  0.00     0.001 A 
HETATM   31  C   UNL     1     -44.640  62.227 -54.453  1.00  0.00     0.000 A 
HETATM   32  C   UNL     1     -45.449  61.140 -54.128  1.00  0.00     0.001 A 
HETATM   33  C   UNL     1     -45.179  60.379 -52.990  1.00  0.00     0.009 A 
ENDBRANCH  27  28
ENDBRANCH   8  27
TORSDOF 4
ENDMDL
MODEL 9
REMARK VINA RESULT:      -8.2      1.530      2.768
REMARK  4 active torsions:
REMARK  status: ('A' for Active; 'I' for Inactive)
REMARK    1  A    between atoms: O_2  and  C_3 
REMARK    2  A    between atoms: C_3  and  C_4 
REMARK    3  A    between atoms: N_11  and  C_13 
REMARK    4  A    between atoms: C_13  and  C_14 
ROOT
HETATM    1  C   UNL     1     -41.483  55.407 -51.360  1.00  0.00     0.290 C 
HETATM    2  N   UNL     1     -41.456  55.995 -52.824  1.00  0.00    -0.047 N 
HETATM    3  H   UNL     1     -40.453  56.189 -52.982  1.00  0.00     0.279 HD
HETATM    4  H   UNL     1     -41.881  56.932 -52.754  1.00  0.00     0.279 HD
HETATM    5  C   UNL     1     -41.948  55.070 -53.918  1.00  0.00     0.172 C 
HETATM    6  C   UNL     1     -43.482  54.960 -53.891  1.00  0.00     0.073 C 
HETATM    7  C   UNL     1     -44.204  56.235 -54.309  1.00  0.00     0.238 C 
HETATM    8  N   UNL     1     -43.702  56.705 -55.650  1.00  0.00    -0.067 N 
HETATM    9  H   UNL     1     -43.978  56.006 -56.357  1.00  0.00     0.280 HD
HETATM   10  C   UNL     1     -42.213  56.902 -55.701  1.00  0.00     0.238 C 
HETATM   11  C   UNL     1     -41.491  55.629 -55.280  1.00  0.00     0.073 C 
HETATM   12  C   UNL     1     -41.308  53.735 -53.638  1.00  0.00     0.053 A 
HETATM   13  C   UNL     1     -40.663  53.348 -52.470  1.00  0.00    -0.018 A 
HETATM   14  C   UNL     1     -40.501  54.234 -51.280  1.00  0.00     0.085 C 
HETATM   15  N   UNL     1     -41.268  52.657 -54.496  1.00  0.00    -0.356 N 
HETATM   16  H   UNL     1     -41.655  52.594 -55.429  1.00  0.00     0.166 HD
HETATM   17  C   UNL     1     -40.586  51.613 -53.914  1.00  0.00     0.043 A 
HETATM   18  C   UNL     1     -40.198  52.017 -52.639  1.00  0.00    -0.001 A 
HETATM   19  C   UNL     1     -40.287  50.344 -54.426  1.00  0.00     0.030 A 
HETATM   20  C   UNL     1     -39.573  49.466 -53.606  1.00  0.00     0.002 A 
HETATM   21  C   UNL     1     -39.175  49.843 -52.327  1.00  0.00     0.001 A 
HETATM   22  C   UNL     1     -39.481  51.116 -51.829  1.00  0.00     0.014 A 
ENDROOT
BRANCH   1  23
HETATM   23  C   UNL     1     -41.143  56.537 -50.398  1.00  0.00     0.289 C 
HETATM   24  O   UNL     1     -41.221  56.342 -49.188  1.00  0.00    -0.263 OA
BRANCH  23  25
HETATM   25  O   UNL     1     -40.723  57.653 -51.023  1.00  0.00    -0.325 OA
HETATM   26  C   UNL     1     -40.965  58.873 -50.308  1.00  0.00     0.213 C 
ENDBRANCH  23  25
ENDBRANCH   1  23
BRANCH   8  27
HETATM   27  C   UNL     1     -44.421  57.981 -56.128  1.00  0.00     0.273 C 
BRANCH  27  28
HETATM   28  C   UNL     1     -44.269  59.141 -55.187  1.00  0.00    -0.033 A 
HETATM   29  C   UNL     1     -43.098  59.917 -55.205  1.00  0.00     0.009 A 
HETATM   30  C   UNL     1     -42.943  60.980 -54.315  1.00  0.00     0.001 A 
HETATM   31  C   UNL     1     -43.950  61.280 -53.402  1.00  0.00     0.000 A 
HETATM   32  C   UNL     1     -45.120  60.524 -53.382  1.00  0.00     0.001 A 
HETATM   33  C   UNL     1     -45.283  59.460 -54.270  1.00  0.00     0.009 A 
ENDBRANCH  27  28
ENDBRANCH   8  27
TORSDOF 4
ENDMDL
MODEL 10
REMARK VINA RESULT:      -8.2      2.112      3.282
REMARK  4 active torsions:
REMARK  status: ('A' for Active; 'I' for Inactive)
REMARK    1  A    between atoms: O_2  and  C_3 
REMARK    2  A    between atoms: C_3  and  C_4 
REMARK    3  A    between atoms: N_11  and  C_13 
REMARK    4  A    between atoms: C_13  and  C_14 
ROOT
HETATM    1  C   UNL     1     -42.893  58.773 -51.901  1.00  0.00     0.290 C 
HETATM    2  N   UNL     1     -42.654  58.567 -53.447  1.00  0.00    -0.047 N 
HETATM    3  H   UNL     1     -41.660  58.824 -53.568  1.00  0.00     0.279 HD
HETATM    4  H   UNL     1     -43.166  59.333 -53.911  1.00  0.00     0.279 HD
HETATM    5  C   UNL     1     -42.857  57.159 -53.966  1.00  0.00     0.172 C 
HETATM    6  C   UNL     1     -44.355  56.821 -54.059  1.00  0.00     0.073 C 
HETATM    7  C   UNL     1     -45.100  57.590 -55.144  1.00  0.00     0.238 C 
HETATM    8  N   UNL     1     -44.407  57.422 -56.472  1.00  0.00    -0.067 N 
HETATM    9  H   UNL     1     -44.489  56.432 -56.752  1.00  0.00     0.280 HD
HETATM   10  C   UNL     1     -42.956  57.814 -56.450  1.00  0.00     0.238 C 
HETATM   11  C   UNL     1     -42.213  57.050 -55.363  1.00  0.00     0.073 C 
HETATM   12  C   UNL     1     -42.163  56.259 -52.978  1.00  0.00     0.053 A 
HETATM   13  C   UNL     1     -41.708  56.604 -51.712  1.00  0.00    -0.018 A 
HETATM   14  C   UNL     1     -41.842  57.971 -51.127  1.00  0.00     0.085 C 
HETATM   15  N   UNL     1     -41.874  54.923 -53.159  1.00  0.00    -0.356 N 
HETATM   16  H   UNL     1     -42.079  54.349 -53.967  1.00  0.00     0.166 HD
HETATM   17  C   UNL     1     -41.219  54.425 -52.055  1.00  0.00     0.043 A 
HETATM   18  C   UNL     1     -41.105  55.459 -51.128  1.00  0.00    -0.001 A 
HETATM   19  C   UNL     1     -40.722  53.139 -51.815  1.00  0.00     0.030 A 
HETATM   20  C   UNL     1     -40.093  52.906 -50.589  1.00  0.00     0.002 A 
HETATM   21  C   UNL     1     -39.967  53.919 -49.643  1.00  0.00     0.001 A 
HETATM   22  C   UNL     1     -40.469  55.201 -49.898  1.00  0.00     0.014 A 
ENDROOT
BRANCH   1  23
HETATM   23  C   UNL     1     -42.833  60.267 -51.616  1.00  0.00     0.289 C 
HETATM   24  O   UNL     1     -42.584  61.047 -52.532  1.00  0.00    -0.263 OA
BRANCH  23  25
HETATM   25  O   UNL     1     -43.133  60.572 -50.340  1.00  0.00    -0.325 OA
HETATM   26  C   UNL     1     -44.536  60.687 -50.059  1.00  0.00     0.213 C 
ENDBRANCH  23  25
ENDBRANCH   1  23
BRANCH   8  27
HETATM   27  C   UNL     1     -45.138  58.162 -57.609  1.00  0.00     0.273 C 
BRANCH  27  28
HETATM   28  C   UNL     1     -45.452  57.285 -58.787  1.00  0.00    -0.033 A 
HETATM   29  C   UNL     1     -44.432  56.545 -59.408  1.00  0.00     0.009 A 
HETATM   30  C   UNL     1     -44.716  55.748 -60.518  1.00  0.00     0.001 A 
HETATM   31  C   UNL     1     -46.014  55.680 -61.017  1.00  0.00     0.000 A 
HETATM   32  C   UNL     1     -47.035  56.402 -60.402  1.00  0.00     0.001 A 
HETATM   33  C   UNL     1     -46.759  57.200 -59.291  1.00  0.00     0.009 A 
ENDBRANCH  27  28
ENDBRANCH   8  27
TORSDOF 4
ENDMDL
