MODEL 1
REMARK VINA RESULT:      -7.8      0.000      0.000
REMARK  9 active torsions:
REMARK  status: ('A' for Active; 'I' for Inactive)
REMARK    1  A    between atoms: O_2  and  C_3 
REMARK    2  A    between atoms: C_4  and  C_5 
REMARK    3  A    between atoms: C_9  and  C_10 
REMARK       I    between atoms: C_10  and  N_11 
REMARK    4  A    between atoms: N_11  and  C_12 
REMARK    5  A    between atoms: C_12  and  C_13 
REMARK    6  A    between atoms: C_13  and  C_14 
REMARK    7  A    between atoms: C_14  and  C_15 
REMARK    8  A    between atoms: C_15  and  O_16 
REMARK    9  A    between atoms: O_16  and  C_17 
ROOT
HETATM    1  C   UNL     1     -42.319  56.841 -54.200  1.00  0.00     0.270 C 
HETATM    2  N   UNL     1     -41.574  57.982 -54.049  1.00  0.00    -0.345 N 
HETATM    3  O   UNL     1     -43.540  56.858 -54.308  1.00  0.00    -0.266 OA
HETATM    4  H   UNL     1     -40.568  57.930 -54.043  1.00  0.00     0.163 HD
ENDROOT
BRANCH   1   5
HETATM    5  C   UNL     1     -41.561  55.619 -54.210  1.00  0.00     0.120 A 
HETATM    6  N   UNL     1     -40.613  55.365 -55.162  1.00  0.00    -0.272 N 
HETATM    7  N   UNL     1     -40.022  54.167 -55.046  1.00  0.00    -0.174 NA
HETATM    8  H   UNL     1     -40.340  55.975 -55.927  1.00  0.00     0.189 HD
HETATM    9  C   UNL     1     -40.588  53.611 -53.965  1.00  0.00     0.092 A 
HETATM   10  C   UNL     1     -41.559  54.493 -53.410  1.00  0.00     0.071 A 
BRANCH   9  11
HETATM   11  C   UNL     1     -40.249  52.267 -53.494  1.00  0.00     0.028 A 
HETATM   12  C   UNL     1     -39.775  51.989 -52.201  1.00  0.00     0.080 A 
HETATM   13  C   UNL     1     -39.413  50.682 -51.845  1.00  0.00     0.037 A 
HETATM   14  C   UNL     1     -39.560  49.634 -52.751  1.00  0.00     0.003 A 
HETATM   15  C   UNL     1     -40.055  49.888 -54.026  1.00  0.00     0.001 A 
HETATM   16  C   UNL     1     -40.391  51.193 -54.396  1.00  0.00     0.017 A 
BRANCH  12  17
HETATM   17  O   UNL     1     -39.585  52.923 -51.216  1.00  0.00    -0.355 OA
HETATM   18  C   UNL     1     -40.479  52.754 -50.118  1.00  0.00     0.210 C 
ENDBRANCH  12  17
ENDBRANCH   9  11
ENDBRANCH   1   5
BRANCH   2  19
HETATM   19  C   UNL     1     -42.185  59.285 -54.020  1.00  0.00     0.217 C 
BRANCH  19  20
HETATM   20  C   UNL     1     -42.089  59.885 -55.413  1.00  0.00    -0.085 C 
BRANCH  20  21
HETATM   21  C   UNL     1     -42.007  60.401 -56.608  1.00  0.00    -0.078 C 
BRANCH  21  22
HETATM   22  C   UNL     1     -41.912  61.004 -58.000  1.00  0.00     0.269 C 
BRANCH  22  23
HETATM   23  O   UNL     1     -43.140  60.797 -58.690  1.00  0.00    -0.339 OA
BRANCH  23  24
HETATM   24  C   UNL     1     -43.365  59.531 -59.163  1.00  0.00     0.072 A 
HETATM   25  C   UNL     1     -44.547  58.799 -59.013  1.00  0.00     0.076 A 
HETATM   26  C   UNL     1     -44.595  57.532 -59.560  1.00  0.00     0.107 A 
HETATM   27  C   UNL     1     -43.529  56.986 -60.234  1.00  0.00     0.105 A 
HETATM   28  O   UNL     1     -45.661  56.689 -59.506  1.00  0.00    -0.323 OA
HETATM   29  O   UNL     1     -43.789  55.733 -60.689  1.00  0.00    -0.323 OA
HETATM   30  C   UNL     1     -42.351  57.679 -60.401  1.00  0.00     0.042 A 
HETATM   31  C   UNL     1     -45.142  55.549 -60.224  1.00  0.00     0.352 A 
HETATM   32  C   UNL     1     -42.275  58.966 -59.856  1.00  0.00     0.040 A 
ENDBRANCH  23  24
ENDBRANCH  22  23
ENDBRANCH  21  22
ENDBRANCH  20  21
ENDBRANCH  19  20
ENDBRANCH   2  19
TORSDOF 9
ENDMDL
MODEL 2
REMARK VINA RESULT:      -7.8      2.459      4.610
REMARK  9 active torsions:
REMARK  status: ('A' for Active; 'I' for Inactive)
REMARK    1  A    between atoms: O_2  and  C_3 
REMARK    2  A    between atoms: C_4  and  C_5 
REMARK    3  A    between atoms: C_9  and  C_10 
REMARK       I    between atoms: C_10  and  N_11 
REMARK    4  A    between atoms: N_11  and  C_12 
REMARK    5  A    between atoms: C_12  and  C_13 
REMARK    6  A    between atoms: C_13  and  C_14 
REMARK    7  A    between atoms: C_14  and  C_15 
REMARK    8  A    between atoms: C_15  and  O_16 
REMARK    9  A    between atoms: O_16  and  C_17 
ROOT
HETATM    1  C   UNL     1     -43.070  56.008 -55.525  1.00  0.00     0.270 C 
HETATM    2  N   UNL     1     -42.847  56.574 -56.753  1.00  0.00    -0.345 N 
HETATM    3  O   UNL     1     -44.032  56.304 -54.824  1.00  0.00    -0.266 OA
HETATM    4  H   UNL     1     -42.089  56.245 -57.330  1.00  0.00     0.163 HD
ENDROOT
BRANCH   1   5
HETATM    5  C   UNL     1     -42.084  55.046 -55.112  1.00  0.00     0.120 A 
HETATM    6  N   UNL     1     -40.785  55.117 -55.535  1.00  0.00    -0.272 N 
HETATM    7  N   UNL     1     -40.003  54.127 -55.083  1.00  0.00    -0.174 NA
HETATM    8  H   UNL     1     -40.383  55.819 -56.149  1.00  0.00     0.189 HD
HETATM    9  C   UNL     1     -40.810  53.378 -54.317  1.00  0.00     0.092 A 
HETATM   10  C   UNL     1     -42.125  53.925 -54.307  1.00  0.00     0.071 A 
BRANCH   9  11
HETATM   11  C   UNL     1     -40.359  52.158 -53.645  1.00  0.00     0.028 A 
HETATM   12  C   UNL     1     -39.943  52.113 -52.303  1.00  0.00     0.080 A 
HETATM   13  C   UNL     1     -39.466  50.917 -51.749  1.00  0.00     0.037 A 
HETATM   14  C   UNL     1     -39.439  49.747 -52.504  1.00  0.00     0.003 A 
HETATM   15  C   UNL     1     -39.874  49.768 -53.825  1.00  0.00     0.001 A 
HETATM   16  C   UNL     1     -40.325  50.963 -54.392  1.00  0.00     0.017 A 
BRANCH  12  17
HETATM   17  O   UNL     1     -39.920  53.187 -51.451  1.00  0.00    -0.355 OA
HETATM   18  C   UNL     1     -40.443  52.878 -50.162  1.00  0.00     0.210 C 
ENDBRANCH  12  17
ENDBRANCH   9  11
ENDBRANCH   1   5
BRANCH   2  19
HETATM   19  C   UNL     1     -43.744  57.554 -57.308  1.00  0.00     0.217 C 
BRANCH  19  20
HETATM   20  C   UNL     1     -43.671  58.805 -56.447  1.00  0.00    -0.085 C 
BRANCH  20  21
HETATM   21  C   UNL     1     -43.607  59.878 -55.711  1.00  0.00    -0.078 C 
BRANCH  21  22
HETATM   22  C   UNL     1     -43.534  61.129 -54.851  1.00  0.00     0.269 C 
BRANCH  22  23
HETATM   23  O   UNL     1     -42.437  61.022 -53.950  1.00  0.00    -0.339 OA
BRANCH  23  24
HETATM   24  C   UNL     1     -42.266  59.805 -53.344  1.00  0.00     0.072 A 
HETATM   25  C   UNL     1     -43.173  59.190 -52.474  1.00  0.00     0.076 A 
HETATM   26  C   UNL     1     -42.832  57.956 -51.955  1.00  0.00     0.107 A 
HETATM   27  C   UNL     1     -41.649  57.333 -52.268  1.00  0.00     0.105 A 
HETATM   28  O   UNL     1     -43.594  57.223 -51.100  1.00  0.00    -0.323 OA
HETATM   29  O   UNL     1     -41.516  56.130 -51.650  1.00  0.00    -0.323 OA
HETATM   30  C   UNL     1     -40.734  57.909 -53.121  1.00  0.00     0.042 A 
HETATM   31  C   UNL     1     -42.752  56.065 -50.910  1.00  0.00     0.352 A 
HETATM   32  C   UNL     1     -41.053  59.160 -53.661  1.00  0.00     0.040 A 
ENDBRANCH  23  24
ENDBRANCH  22  23
ENDBRANCH  21  22
ENDBRANCH  20  21
ENDBRANCH  19  20
ENDBRANCH   2  19
TORSDOF 9
ENDMDL
MODEL 3
REMARK VINA RESULT:      -7.7      1.625      2.001
REMARK  9 active torsions:
REMARK  status: ('A' for Active; 'I' for Inactive)
REMARK    1  A    between atoms: O_2  and  C_3 
REMARK    2  A    between atoms: C_4  and  C_5 
REMARK    3  A    between atoms: C_9  and  C_10 
REMARK       I    between atoms: C_10  and  N_11 
REMARK    4  A    between atoms: N_11  and  C_12 
REMARK    5  A    between atoms: C_12  and  C_13 
REMARK    6  A    between atoms: C_13  and  C_14 
REMARK    7  A    between atoms: C_14  and  C_15 
REMARK    8  A    between atoms: C_15  and  O_16 
REMARK    9  A    between atoms: O_16  and  C_17 
ROOT
HETATM    1  C   UNL     1     -41.388  58.645 -53.985  1.00  0.00     0.270 C 
HETATM    2  N   UNL     1     -42.131  59.012 -55.078  1.00  0.00    -0.345 N 
HETATM    3  O   UNL     1     -40.704  59.442 -53.353  1.00  0.00    -0.266 OA
HETATM    4  H   UNL     1     -42.739  58.342 -55.521  1.00  0.00     0.163 HD
ENDROOT
BRANCH   1   5
HETATM    5  C   UNL     1     -41.460  57.250 -53.642  1.00  0.00     0.120 A 
HETATM    6  N   UNL     1     -42.500  56.738 -52.915  1.00  0.00    -0.272 N 
HETATM    7  N   UNL     1     -42.398  55.428 -52.655  1.00  0.00    -0.174 NA
HETATM    8  H   UNL     1     -43.301  57.249 -52.558  1.00  0.00     0.189 HD
HETATM    9  C   UNL     1     -41.255  55.051 -53.246  1.00  0.00     0.092 A 
HETATM   10  C   UNL     1     -40.638  56.167 -53.880  1.00  0.00     0.071 A 
BRANCH   9  11
HETATM   11  C   UNL     1     -40.741  53.681 -53.180  1.00  0.00     0.028 A 
HETATM   12  C   UNL     1     -40.112  53.137 -52.047  1.00  0.00     0.080 A 
HETATM   13  C   UNL     1     -39.591  51.836 -52.083  1.00  0.00     0.037 A 
HETATM   14  C   UNL     1     -39.728  51.049 -53.224  1.00  0.00     0.003 A 
HETATM   15  C   UNL     1     -40.372  51.563 -54.344  1.00  0.00     0.001 A 
HETATM   16  C   UNL     1     -40.870  52.869 -54.324  1.00  0.00     0.017 A 
BRANCH  12  17
HETATM   17  O   UNL     1     -39.913  53.800 -50.863  1.00  0.00    -0.355 OA
HETATM   18  C   UNL     1     -40.440  53.093 -49.743  1.00  0.00     0.210 C 
ENDBRANCH  12  17
ENDBRANCH   9  11
ENDBRANCH   1   5
BRANCH   2  19
HETATM   19  C   UNL     1     -42.163  60.372 -55.548  1.00  0.00     0.217 C 
BRANCH  19  20
HETATM   20  C   UNL     1     -42.091  60.350 -57.066  1.00  0.00    -0.085 C 
BRANCH  20  21
HETATM   21  C   UNL     1     -42.027  60.331 -58.368  1.00  0.00    -0.078 C 
BRANCH  21  22
HETATM   22  C   UNL     1     -41.952  60.307 -59.885  1.00  0.00     0.269 C 
BRANCH  22  23
HETATM   23  O   UNL     1     -41.685  58.979 -60.325  1.00  0.00    -0.339 OA
BRANCH  23  24
HETATM   24  C   UNL     1     -42.724  58.090 -60.236  1.00  0.00     0.072 A 
HETATM   25  C   UNL     1     -44.072  58.381 -60.468  1.00  0.00     0.076 A 
HETATM   26  C   UNL     1     -44.985  57.353 -60.332  1.00  0.00     0.107 A 
HETATM   27  C   UNL     1     -44.606  56.080 -59.982  1.00  0.00     0.105 A 
HETATM   28  O   UNL     1     -46.328  57.462 -60.520  1.00  0.00    -0.323 OA
HETATM   29  O   UNL     1     -45.661  55.227 -59.905  1.00  0.00    -0.323 OA
HETATM   30  C   UNL     1     -43.288  55.759 -59.747  1.00  0.00     0.042 A 
HETATM   31  C   UNL     1     -46.750  56.108 -60.246  1.00  0.00     0.352 A 
HETATM   32  C   UNL     1     -42.341  56.781 -59.877  1.00  0.00     0.040 A 
ENDBRANCH  23  24
ENDBRANCH  22  23
ENDBRANCH  21  22
ENDBRANCH  20  21
ENDBRANCH  19  20
ENDBRANCH   2  19
TORSDOF 9
ENDMDL
MODEL 4
REMARK VINA RESULT:      -7.5      1.753      2.111
REMARK  9 active torsions:
REMARK  status: ('A' for Active; 'I' for Inactive)
REMARK    1  A    between atoms: O_2  and  C_3 
REMARK    2  A    between atoms: C_4  and  C_5 
REMARK    3  A    between atoms: C_9  and  C_10 
REMARK       I    between atoms: C_10  and  N_11 
REMARK    4  A    between atoms: N_11  and  C_12 
REMARK    5  A    between atoms: C_12  and  C_13 
REMARK    6  A    between atoms: C_13  and  C_14 
REMARK    7  A    between atoms: C_14  and  C_15 
REMARK    8  A    between atoms: C_15  and  O_16 
REMARK    9  A    between atoms: O_16  and  C_17 
ROOT
HETATM    1  C   UNL     1     -42.441  57.152 -52.984  1.00  0.00     0.270 C 
HETATM    2  N   UNL     1     -43.801  57.042 -53.122  1.00  0.00    -0.345 N 
HETATM    3  O   UNL     1     -41.895  58.192 -52.632  1.00  0.00    -0.266 OA
HETATM    4  H   UNL     1     -44.214  56.148 -53.338  1.00  0.00     0.163 HD
ENDROOT
BRANCH   1   5
HETATM    5  C   UNL     1     -41.700  55.961 -53.297  1.00  0.00     0.120 A 
HETATM    6  N   UNL     1     -40.828  55.907 -54.349  1.00  0.00    -0.272 N 
HETATM    7  N   UNL     1     -40.244  54.714 -54.522  1.00  0.00    -0.174 NA
HETATM    8  H   UNL     1     -40.607  56.660 -54.994  1.00  0.00     0.189 HD
HETATM    9  C   UNL     1     -40.734  53.949 -53.536  1.00  0.00     0.092 A 
HETATM   10  C   UNL     1     -41.650  54.697 -52.742  1.00  0.00     0.071 A 
BRANCH   9  11
HETATM   11  C   UNL     1     -40.375  52.539 -53.372  1.00  0.00     0.028 A 
HETATM   12  C   UNL     1     -39.798  52.010 -52.204  1.00  0.00     0.080 A 
HETATM   13  C   UNL     1     -39.425  50.660 -52.148  1.00  0.00     0.037 A 
HETATM   14  C   UNL     1     -39.661  49.813 -53.228  1.00  0.00     0.003 A 
HETATM   15  C   UNL     1     -40.258  50.314 -54.380  1.00  0.00     0.001 A 
HETATM   16  C   UNL     1     -40.606  51.666 -54.454  1.00  0.00     0.017 A 
BRANCH  12  17
HETATM   17  O   UNL     1     -39.513  52.730 -51.073  1.00  0.00    -0.355 OA
HETATM   18  C   UNL     1     -40.449  52.496 -50.023  1.00  0.00     0.210 C 
ENDBRANCH  12  17
ENDBRANCH   9  11
ENDBRANCH   1   5
BRANCH   2  19
HETATM   19  C   UNL     1     -44.681  58.147 -52.847  1.00  0.00     0.217 C 
BRANCH  19  20
HETATM   20  C   UNL     1     -44.978  58.854 -54.159  1.00  0.00    -0.085 C 
BRANCH  20  21
HETATM   21  C   UNL     1     -45.232  59.460 -55.285  1.00  0.00    -0.078 C 
BRANCH  21  22
HETATM   22  C   UNL     1     -45.528  60.168 -56.597  1.00  0.00     0.269 C 
BRANCH  22  23
HETATM   23  O   UNL     1     -44.578  59.765 -57.577  1.00  0.00    -0.339 OA
BRANCH  23  24
HETATM   24  C   UNL     1     -44.864  58.613 -58.263  1.00  0.00     0.072 A 
HETATM   25  C   UNL     1     -43.979  57.555 -58.490  1.00  0.00     0.076 A 
HETATM   26  C   UNL     1     -44.444  56.467 -59.204  1.00  0.00     0.107 A 
HETATM   27  C   UNL     1     -45.729  56.405 -59.686  1.00  0.00     0.105 A 
HETATM   28  O   UNL     1     -43.719  55.358 -59.512  1.00  0.00    -0.323 OA
HETATM   29  O   UNL     1     -45.976  55.250 -60.358  1.00  0.00    -0.323 OA
HETATM   30  C   UNL     1     -46.626  57.429 -59.481  1.00  0.00     0.042 A 
HETATM   31  C   UNL     1     -44.698  54.590 -60.246  1.00  0.00     0.352 A 
HETATM   32  C   UNL     1     -46.181  58.543 -58.760  1.00  0.00     0.040 A 
ENDBRANCH  23  24
ENDBRANCH  22  23
ENDBRANCH  21  22
ENDBRANCH  20  21
ENDBRANCH  19  20
ENDBRANCH   2  19
TORSDOF 9
ENDMDL
MODEL 5
REMARK VINA RESULT:      -7.5     15.572     18.884
REMARK  9 active torsions:
REMARK  status: ('A' for Active; 'I' for Inactive)
REMARK    1  A    between atoms: O_2  and  C_3 
REMARK    2  A    between atoms: C_4  and  C_5 
REMARK    3  A    between atoms: C_9  and  C_10 
REMARK       I    between atoms: C_10  and  N_11 
REMARK    4  A    between atoms: N_11  and  C_12 
REMARK    5  A    between atoms: C_12  and  C_13 
REMARK    6  A    between atoms: C_13  and  C_14 
REMARK    7  A    between atoms: C_14  and  C_15 
REMARK    8  A    between atoms: C_15  and  O_16 
REMARK    9  A    between atoms: O_16  and  C_17 
ROOT
HETATM    1  C   UNL     1     -35.742  41.726 -52.873  1.00  0.00     0.270 C 
HETATM    2  N   UNL     1     -36.331  40.616 -52.323  1.00  0.00    -0.345 N 
HETATM    3  O   UNL     1     -35.283  42.637 -52.193  1.00  0.00    -0.266 OA
HETATM    4  H   UNL     1     -36.625  39.856 -52.916  1.00  0.00     0.163 HD
ENDROOT
BRANCH   1   5
HETATM    5  C   UNL     1     -35.715  41.749 -54.310  1.00  0.00     0.120 A 
HETATM    6  N   UNL     1     -34.908  42.609 -55.003  1.00  0.00    -0.272 N 
HETATM    7  N   UNL     1     -35.027  42.524 -56.336  1.00  0.00    -0.174 NA
HETATM    8  H   UNL     1     -34.265  43.289 -54.610  1.00  0.00     0.189 HD
HETATM    9  C   UNL     1     -35.936  41.559 -56.536  1.00  0.00     0.092 A 
HETATM   10  C   UNL     1     -36.390  41.045 -55.288  1.00  0.00     0.071 A 
BRANCH   9  11
HETATM   11  C   UNL     1     -36.391  41.162 -57.869  1.00  0.00     0.028 A 
HETATM   12  C   UNL     1     -36.201  39.878 -58.410  1.00  0.00     0.080 A 
HETATM   13  C   UNL     1     -36.611  39.593 -59.719  1.00  0.00     0.037 A 
HETATM   14  C   UNL     1     -37.253  40.561 -60.488  1.00  0.00     0.003 A 
HETATM   15  C   UNL     1     -37.474  41.828 -59.959  1.00  0.00     0.001 A 
HETATM   16  C   UNL     1     -37.042  42.127 -58.663  1.00  0.00     0.017 A 
BRANCH  12  17
HETATM   17  O   UNL     1     -35.588  38.836 -57.763  1.00  0.00    -0.355 OA
HETATM   18  C   UNL     1     -34.907  37.959 -58.656  1.00  0.00     0.210 C 
ENDBRANCH  12  17
ENDBRANCH   9  11
ENDBRANCH   1   5
BRANCH   2  19
HETATM   19  C   UNL     1     -36.435  40.444 -50.898  1.00  0.00     0.217 C 
BRANCH  19  20
HETATM   20  C   UNL     1     -35.100  39.933 -50.383  1.00  0.00    -0.085 C 
BRANCH  20  21
HETATM   21  C   UNL     1     -33.954  39.494 -49.942  1.00  0.00    -0.078 C 
BRANCH  21  22
HETATM   22  C   UNL     1     -32.619  38.981 -49.429  1.00  0.00     0.269 C 
BRANCH  22  23
HETATM   23  O   UNL     1     -31.579  39.411 -50.302  1.00  0.00    -0.339 OA
BRANCH  23  24
HETATM   24  C   UNL     1     -31.807  39.249 -51.644  1.00  0.00     0.072 A 
HETATM   25  C   UNL     1     -31.986  40.279 -52.573  1.00  0.00     0.076 A 
HETATM   26  C   UNL     1     -32.205  39.927 -53.891  1.00  0.00     0.107 A 
HETATM   27  C   UNL     1     -32.250  38.616 -54.299  1.00  0.00     0.105 A 
HETATM   28  O   UNL     1     -32.398  40.797 -54.918  1.00  0.00    -0.323 OA
HETATM   29  O   UNL     1     -32.477  38.495 -55.634  1.00  0.00    -0.323 OA
HETATM   30  C   UNL     1     -32.078  37.578 -53.411  1.00  0.00     0.042 A 
HETATM   31  C   UNL     1     -32.570  39.881 -56.021  1.00  0.00     0.352 A 
HETATM   32  C   UNL     1     -31.855  37.906 -52.069  1.00  0.00     0.040 A 
ENDBRANCH  23  24
ENDBRANCH  22  23
ENDBRANCH  21  22
ENDBRANCH  20  21
ENDBRANCH  19  20
ENDBRANCH   2  19
TORSDOF 9
ENDMDL
MODEL 6
REMARK VINA RESULT:      -7.4      1.791      1.989
REMARK  9 active torsions:
REMARK  status: ('A' for Active; 'I' for Inactive)
REMARK    1  A    between atoms: O_2  and  C_3 
REMARK    2  A    between atoms: C_4  and  C_5 
REMARK    3  A    between atoms: C_9  and  C_10 
REMARK       I    between atoms: C_10  and  N_11 
REMARK    4  A    between atoms: N_11  and  C_12 
REMARK    5  A    between atoms: C_12  and  C_13 
REMARK    6  A    between atoms: C_13  and  C_14 
REMARK    7  A    between atoms: C_14  and  C_15 
REMARK    8  A    between atoms: C_15  and  O_16 
REMARK    9  A    between atoms: O_16  and  C_17 
ROOT
HETATM    1  C   UNL     1     -42.857  57.945 -52.642  1.00  0.00     0.270 C 
HETATM    2  N   UNL     1     -43.774  58.405 -53.552  1.00  0.00    -0.345 N 
HETATM    3  O   UNL     1     -42.276  58.686 -51.856  1.00  0.00    -0.266 OA
HETATM    4  H   UNL     1     -44.285  57.753 -54.125  1.00  0.00     0.163 HD
ENDROOT
BRANCH   1   5
HETATM    5  C   UNL     1     -42.617  56.528 -52.685  1.00  0.00     0.120 A 
HETATM    6  N   UNL     1     -43.603  55.620 -52.415  1.00  0.00    -0.272 N 
HETATM    7  N   UNL     1     -43.205  54.341 -52.468  1.00  0.00    -0.174 NA
HETATM    8  H   UNL     1     -44.568  55.824 -52.173  1.00  0.00     0.189 HD
HETATM    9  C   UNL     1     -41.908  54.402 -52.802  1.00  0.00     0.092 A 
HETATM   10  C   UNL     1     -41.501  55.758 -52.951  1.00  0.00     0.071 A 
BRANCH   9  11
HETATM   11  C   UNL     1     -41.067  53.211 -52.939  1.00  0.00     0.028 A 
HETATM   12  C   UNL     1     -40.138  52.795 -51.969  1.00  0.00     0.080 A 
HETATM   13  C   UNL     1     -39.325  51.677 -52.202  1.00  0.00     0.037 A 
HETATM   14  C   UNL     1     -39.455  50.937 -53.374  1.00  0.00     0.003 A 
HETATM   15  C   UNL     1     -40.389  51.319 -54.332  1.00  0.00     0.001 A 
HETATM   16  C   UNL     1     -41.183  52.449 -54.118  1.00  0.00     0.017 A 
BRANCH  12  17
HETATM   17  O   UNL     1     -39.911  53.429 -50.775  1.00  0.00    -0.355 OA
HETATM   18  C   UNL     1     -40.463  52.725 -49.665  1.00  0.00     0.210 C 
ENDBRANCH  12  17
ENDBRANCH   9  11
ENDBRANCH   1   5
BRANCH   2  19
HETATM   19  C   UNL     1     -44.124  59.799 -53.634  1.00  0.00     0.217 C 
BRANCH  19  20
HETATM   20  C   UNL     1     -43.455  60.383 -54.867  1.00  0.00    -0.085 C 
BRANCH  20  21
HETATM   21  C   UNL     1     -42.881  60.886 -55.924  1.00  0.00    -0.078 C 
BRANCH  21  22
HETATM   22  C   UNL     1     -42.211  61.474 -57.155  1.00  0.00     0.269 C 
BRANCH  22  23
HETATM   23  O   UNL     1     -41.288  60.530 -57.689  1.00  0.00    -0.339 OA
BRANCH  23  24
HETATM   24  C   UNL     1     -41.827  59.484 -58.390  1.00  0.00     0.072 A 
HETATM   25  C   UNL     1     -42.100  58.211 -57.878  1.00  0.00     0.076 A 
HETATM   26  C   UNL     1     -42.648  57.276 -58.735  1.00  0.00     0.107 A 
HETATM   27  C   UNL     1     -42.924  57.563 -60.050  1.00  0.00     0.105 A 
HETATM   28  O   UNL     1     -42.974  55.998 -58.403  1.00  0.00    -0.323 OA
HETATM   29  O   UNL     1     -43.458  56.502 -60.711  1.00  0.00    -0.323 OA
HETATM   30  C   UNL     1     -42.668  58.805 -60.586  1.00  0.00     0.042 A 
HETATM   31  C   UNL     1     -43.487  55.513 -59.662  1.00  0.00     0.352 A 
HETATM   32  C   UNL     1     -42.113  59.771 -59.740  1.00  0.00     0.040 A 
ENDBRANCH  23  24
ENDBRANCH  22  23
ENDBRANCH  21  22
ENDBRANCH  20  21
ENDBRANCH  19  20
ENDBRANCH   2  19
TORSDOF 9
ENDMDL
MODEL 7
REMARK VINA RESULT:      -7.2      2.287      8.233
REMARK  9 active torsions:
REMARK  status: ('A' for Active; 'I' for Inactive)
REMARK    1  A    between atoms: O_2  and  C_3 
REMARK    2  A    between atoms: C_4  and  C_5 
REMARK    3  A    between atoms: C_9  and  C_10 
REMARK       I    between atoms: C_10  and  N_11 
REMARK    4  A    between atoms: N_11  and  C_12 
REMARK    5  A    between atoms: C_12  and  C_13 
REMARK    6  A    between atoms: C_13  and  C_14 
REMARK    7  A    between atoms: C_14  and  C_15 
REMARK    8  A    between atoms: C_15  and  O_16 
REMARK    9  A    between atoms: O_16  and  C_17 
ROOT
HETATM    1  C   UNL     1     -41.755  59.669 -53.467  1.00  0.00     0.270 C 
HETATM    2  N   UNL     1     -40.640  59.022 -53.001  1.00  0.00    -0.345 N 
HETATM    3  O   UNL     1     -42.460  60.372 -52.750  1.00  0.00    -0.266 OA
HETATM    4  H   UNL     1     -40.046  58.518 -53.641  1.00  0.00     0.163 HD
ENDROOT
BRANCH   1   5
HETATM    5  C   UNL     1     -42.045  59.453 -54.858  1.00  0.00     0.120 A 
HETATM    6  N   UNL     1     -41.896  60.444 -55.789  1.00  0.00    -0.272 N 
HETATM    7  N   UNL     1     -42.239  60.087 -57.035  1.00  0.00    -0.174 NA
HETATM    8  H   UNL     1     -41.574  61.393 -55.621  1.00  0.00     0.189 HD
HETATM    9  C   UNL     1     -42.617  58.805 -56.930  1.00  0.00     0.092 A 
HETATM   10  C   UNL     1     -42.506  58.369 -55.579  1.00  0.00     0.071 A 
BRANCH   9  11
HETATM   11  C   UNL     1     -43.106  58.026 -58.069  1.00  0.00     0.028 A 
HETATM   12  C   UNL     1     -44.435  57.591 -58.205  1.00  0.00     0.080 A 
HETATM   13  C   UNL     1     -44.811  56.795 -59.296  1.00  0.00     0.037 A 
HETATM   14  C   UNL     1     -43.887  56.460 -60.282  1.00  0.00     0.003 A 
HETATM   15  C   UNL     1     -42.573  56.905 -60.177  1.00  0.00     0.001 A 
HETATM   16  C   UNL     1     -42.185  57.676 -59.077  1.00  0.00     0.017 A 
BRANCH  12  17
HETATM   17  O   UNL     1     -45.442  57.850 -57.312  1.00  0.00    -0.355 OA
HETATM   18  C   UNL     1     -46.679  58.158 -57.951  1.00  0.00     0.210 C 
ENDBRANCH  12  17
ENDBRANCH   9  11
ENDBRANCH   1   5
BRANCH   2  19
HETATM   19  C   UNL     1     -40.216  59.137 -51.630  1.00  0.00     0.217 C 
BRANCH  19  20
HETATM   20  C   UNL     1     -40.654  57.883 -50.891  1.00  0.00    -0.085 C 
BRANCH  20  21
HETATM   21  C   UNL     1     -41.032  56.808 -50.258  1.00  0.00    -0.078 C 
BRANCH  21  22
HETATM   22  C   UNL     1     -41.473  55.555 -49.520  1.00  0.00     0.269 C 
BRANCH  22  23
HETATM   23  O   UNL     1     -42.368  54.812 -50.340  1.00  0.00    -0.339 OA
BRANCH  23  24
HETATM   24  C   UNL     1     -41.798  54.073 -51.344  1.00  0.00     0.072 A 
HETATM   25  C   UNL     1     -40.758  53.151 -51.192  1.00  0.00     0.076 A 
HETATM   26  C   UNL     1     -40.309  52.494 -52.321  1.00  0.00     0.107 A 
HETATM   27  C   UNL     1     -40.850  52.722 -53.563  1.00  0.00     0.105 A 
HETATM   28  O   UNL     1     -39.310  51.570 -52.352  1.00  0.00    -0.323 OA
HETATM   29  O   UNL     1     -40.261  51.972 -54.532  1.00  0.00    -0.323 OA
HETATM   30  C   UNL     1     -41.874  53.622 -53.749  1.00  0.00     0.042 A 
HETATM   31  C   UNL     1     -39.285  51.244 -53.758  1.00  0.00     0.352 A 
HETATM   32  C   UNL     1     -42.349  54.302 -52.622  1.00  0.00     0.040 A 
ENDBRANCH  23  24
ENDBRANCH  22  23
ENDBRANCH  21  22
ENDBRANCH  20  21
ENDBRANCH  19  20
ENDBRANCH   2  19
TORSDOF 9
ENDMDL
MODEL 8
REMARK VINA RESULT:      -7.1     15.526     20.547
REMARK  9 active torsions:
REMARK  status: ('A' for Active; 'I' for Inactive)
REMARK    1  A    between atoms: O_2  and  C_3 
REMARK    2  A    between atoms: C_4  and  C_5 
REMARK    3  A    between atoms: C_9  and  C_10 
REMARK       I    between atoms: C_10  and  N_11 
REMARK    4  A    between atoms: N_11  and  C_12 
REMARK    5  A    between atoms: C_12  and  C_13 
REMARK    6  A    between atoms: C_13  and  C_14 
REMARK    7  A    between atoms: C_14  and  C_15 
REMARK    8  A    between atoms: C_15  and  O_16 
REMARK    9  A    between atoms: O_16  and  C_17 
ROOT
HETATM    1  C   UNL     1     -35.789  42.072 -53.294  1.00  0.00     0.270 C 
HETATM    2  N   UNL     1     -34.605  42.008 -52.606  1.00  0.00    -0.345 N 
HETATM    3  O   UNL     1     -36.860  42.313 -52.746  1.00  0.00    -0.266 OA
HETATM    4  H   UNL     1     -33.738  41.884 -53.106  1.00  0.00     0.163 HD
ENDROOT
BRANCH   1   5
HETATM    5  C   UNL     1     -35.686  41.821 -54.706  1.00  0.00     0.120 A 
HETATM    6  N   UNL     1     -34.544  42.098 -55.407  1.00  0.00    -0.272 N 
HETATM    7  N   UNL     1     -34.625  41.835 -56.718  1.00  0.00    -0.174 NA
HETATM    8  H   UNL     1     -33.681  42.483 -55.035  1.00  0.00     0.189 HD
HETATM    9  C   UNL     1     -35.863  41.350 -56.893  1.00  0.00     0.092 A 
HETATM   10  C   UNL     1     -36.560  41.323 -55.652  1.00  0.00     0.071 A 
BRANCH   9  11
HETATM   11  C   UNL     1     -36.385  40.960 -58.204  1.00  0.00     0.028 A 
HETATM   12  C   UNL     1     -36.275  39.664 -58.735  1.00  0.00     0.080 A 
HETATM   13  C   UNL     1     -36.746  39.385 -60.026  1.00  0.00     0.037 A 
HETATM   14  C   UNL     1     -37.370  40.373 -60.782  1.00  0.00     0.003 A 
HETATM   15  C   UNL     1     -37.513  41.655 -60.260  1.00  0.00     0.001 A 
HETATM   16  C   UNL     1     -37.020  41.947 -58.985  1.00  0.00     0.017 A 
BRANCH  12  17
HETATM   17  O   UNL     1     -35.687  38.601 -58.099  1.00  0.00    -0.355 OA
HETATM   18  C   UNL     1     -36.562  37.483 -57.973  1.00  0.00     0.210 C 
ENDBRANCH  12  17
ENDBRANCH   9  11
ENDBRANCH   1   5
BRANCH   2  19
HETATM   19  C   UNL     1     -34.542  42.235 -51.186  1.00  0.00     0.217 C 
BRANCH  19  20
HETATM   20  C   UNL     1     -33.701  41.130 -50.567  1.00  0.00    -0.085 C 
BRANCH  20  21
HETATM   21  C   UNL     1     -32.982  40.182 -50.036  1.00  0.00    -0.078 C 
BRANCH  21  22
HETATM   22  C   UNL     1     -32.141  39.077 -49.418  1.00  0.00     0.269 C 
BRANCH  22  23
HETATM   23  O   UNL     1     -30.951  39.636 -48.871  1.00  0.00    -0.339 OA
BRANCH  23  24
HETATM   24  C   UNL     1     -30.765  39.468 -47.524  1.00  0.00     0.072 A 
HETATM   25  C   UNL     1     -29.770  40.079 -46.753  1.00  0.00     0.076 A 
HETATM   26  C   UNL     1     -29.735  39.792 -45.402  1.00  0.00     0.107 A 
HETATM   27  C   UNL     1     -30.636  38.939 -44.812  1.00  0.00     0.105 A 
HETATM   28  O   UNL     1     -28.839  40.297 -44.512  1.00  0.00    -0.323 OA
HETATM   29  O   UNL     1     -30.422  38.799 -43.478  1.00  0.00    -0.323 OA
HETATM   30  C   UNL     1     -31.628  38.322 -45.541  1.00  0.00     0.042 A 
HETATM   31  C   UNL     1     -29.280  39.662 -43.293  1.00  0.00     0.352 A 
HETATM   32  C   UNL     1     -31.687  38.594 -46.912  1.00  0.00     0.040 A 
ENDBRANCH  23  24
ENDBRANCH  22  23
ENDBRANCH  21  22
ENDBRANCH  20  21
ENDBRANCH  19  20
ENDBRANCH   2  19
TORSDOF 9
ENDMDL
MODEL 9
REMARK VINA RESULT:      -6.9      2.474      8.353
REMARK  9 active torsions:
REMARK  status: ('A' for Active; 'I' for Inactive)
REMARK    1  A    between atoms: O_2  and  C_3 
REMARK    2  A    between atoms: C_4  and  C_5 
REMARK    3  A    between atoms: C_9  and  C_10 
REMARK       I    between atoms: C_10  and  N_11 
REMARK    4  A    between atoms: N_11  and  C_12 
REMARK    5  A    between atoms: C_12  and  C_13 
REMARK    6  A    between atoms: C_13  and  C_14 
REMARK    7  A    between atoms: C_14  and  C_15 
REMARK    8  A    between atoms: C_15  and  O_16 
REMARK    9  A    between atoms: O_16  and  C_17 
ROOT
HETATM    1  C   UNL     1     -43.503  57.084 -52.472  1.00  0.00     0.270 C 
HETATM    2  N   UNL     1     -44.281  56.090 -51.937  1.00  0.00    -0.345 N 
HETATM    3  O   UNL     1     -42.787  57.805 -51.785  1.00  0.00    -0.266 OA
HETATM    4  H   UNL     1     -44.795  55.471 -52.544  1.00  0.00     0.163 HD
ENDROOT
BRANCH   1   5
HETATM    5  C   UNL     1     -43.599  57.229 -53.899  1.00  0.00     0.120 A 
HETATM    6  N   UNL     1     -44.794  57.459 -54.523  1.00  0.00    -0.272 N 
HETATM    7  N   UNL     1     -44.713  57.537 -55.859  1.00  0.00    -0.174 NA
HETATM    8  H   UNL     1     -45.702  57.556 -54.080  1.00  0.00     0.189 HD
HETATM    9  C   UNL     1     -43.411  57.368 -56.132  1.00  0.00     0.092 A 
HETATM   10  C   UNL     1     -42.677  57.175 -54.926  1.00  0.00     0.071 A 
BRANCH   9  11
HETATM   11  C   UNL     1     -42.881  57.351 -57.496  1.00  0.00     0.028 A 
HETATM   12  C   UNL     1     -43.050  56.277 -58.387  1.00  0.00     0.080 A 
HETATM   13  C   UNL     1     -42.459  56.311 -59.657  1.00  0.00     0.037 A 
HETATM   14  C   UNL     1     -41.734  57.426 -60.073  1.00  0.00     0.003 A 
HETATM   15  C   UNL     1     -41.581  58.509 -59.214  1.00  0.00     0.001 A 
HETATM   16  C   UNL     1     -42.145  58.470 -57.936  1.00  0.00     0.017 A 
BRANCH  12  17
HETATM   17  O   UNL     1     -43.738  55.125 -58.107  1.00  0.00    -0.355 OA
HETATM   18  C   UNL     1     -44.306  54.527 -59.270  1.00  0.00     0.210 C 
ENDBRANCH  12  17
ENDBRANCH   9  11
ENDBRANCH   1   5
BRANCH   2  19
HETATM   19  C   UNL     1     -44.297  55.820 -50.524  1.00  0.00     0.217 C 
BRANCH  19  20
HETATM   20  C   UNL     1     -43.015  55.085 -50.168  1.00  0.00    -0.085 C 
BRANCH  20  21
HETATM   21  C   UNL     1     -41.915  54.455 -49.864  1.00  0.00    -0.078 C 
BRANCH  21  22
HETATM   22  C   UNL     1     -40.632  53.721 -49.512  1.00  0.00     0.269 C 
BRANCH  22  23
HETATM   23  O   UNL     1     -39.687  53.886 -50.564  1.00  0.00    -0.339 OA
BRANCH  23  24
HETATM   24  C   UNL     1     -39.835  53.060 -51.647  1.00  0.00     0.072 A 
HETATM   25  C   UNL     1     -39.490  51.705 -51.696  1.00  0.00     0.076 A 
HETATM   26  C   UNL     1     -39.711  51.026 -52.878  1.00  0.00     0.107 A 
HETATM   27  C   UNL     1     -40.251  51.639 -53.983  1.00  0.00     0.105 A 
HETATM   28  O   UNL     1     -39.436  49.712 -53.096  1.00  0.00    -0.323 OA
HETATM   29  O   UNL     1     -40.382  50.789 -55.036  1.00  0.00    -0.323 OA
HETATM   30  C   UNL     1     -40.601  52.970 -53.970  1.00  0.00     0.042 A 
HETATM   31  C   UNL     1     -39.864  49.569 -54.468  1.00  0.00     0.352 A 
HETATM   32  C   UNL     1     -40.387  53.683 -52.785  1.00  0.00     0.040 A 
ENDBRANCH  23  24
ENDBRANCH  22  23
ENDBRANCH  21  22
ENDBRANCH  20  21
ENDBRANCH  19  20
ENDBRANCH   2  19
TORSDOF 9
ENDMDL
MODEL 10
REMARK VINA RESULT:      -6.9      5.166      9.542
REMARK  9 active torsions:
REMARK  status: ('A' for Active; 'I' for Inactive)
REMARK    1  A    between atoms: O_2  and  C_3 
REMARK    2  A    between atoms: C_4  and  C_5 
REMARK    3  A    between atoms: C_9  and  C_10 
REMARK       I    between atoms: C_10  and  N_11 
REMARK    4  A    between atoms: N_11  and  C_12 
REMARK    5  A    between atoms: C_12  and  C_13 
REMARK    6  A    between atoms: C_13  and  C_14 
REMARK    7  A    between atoms: C_14  and  C_15 
REMARK    8  A    between atoms: C_15  and  O_16 
REMARK    9  A    between atoms: O_16  and  C_17 
ROOT
HETATM    1  C   UNL     1     -42.526  59.668 -51.535  1.00  0.00     0.270 C 
HETATM    2  N   UNL     1     -42.707  59.916 -52.871  1.00  0.00    -0.345 N 
HETATM    3  O   UNL     1     -41.495  59.179 -51.087  1.00  0.00    -0.266 OA
HETATM    4  H   UNL     1     -43.538  60.391 -53.188  1.00  0.00     0.163 HD
ENDROOT
BRANCH   1   5
HETATM    5  C   UNL     1     -43.642  60.012 -50.697  1.00  0.00     0.120 A 
HETATM    6  N   UNL     1     -44.759  59.226 -50.623  1.00  0.00    -0.272 N 
HETATM    7  N   UNL     1     -45.719  59.706 -49.820  1.00  0.00    -0.174 NA
HETATM    8  H   UNL     1     -44.922  58.353 -51.115  1.00  0.00     0.189 HD
HETATM    9  C   UNL     1     -45.215  60.848 -49.330  1.00  0.00     0.092 A 
HETATM   10  C   UNL     1     -43.910  61.074 -49.855  1.00  0.00     0.071 A 
BRANCH   9  11
HETATM   11  C   UNL     1     -45.961  61.720 -48.422  1.00  0.00     0.028 A 
HETATM   12  C   UNL     1     -46.122  61.464 -47.049  1.00  0.00     0.080 A 
HETATM   13  C   UNL     1     -46.904  62.316 -46.257  1.00  0.00     0.037 A 
HETATM   14  C   UNL     1     -47.495  63.451 -46.806  1.00  0.00     0.003 A 
HETATM   15  C   UNL     1     -47.322  63.735 -48.157  1.00  0.00     0.001 A 
HETATM   16  C   UNL     1     -46.567  62.874 -48.959  1.00  0.00     0.017 A 
BRANCH  12  17
HETATM   17  O   UNL     1     -45.595  60.388 -46.383  1.00  0.00    -0.355 OA
HETATM   18  C   UNL     1     -46.592  59.464 -45.956  1.00  0.00     0.210 C 
ENDBRANCH  12  17
ENDBRANCH   9  11
ENDBRANCH   1   5
BRANCH   2  19
HETATM   19  C   UNL     1     -41.682  59.626 -53.840  1.00  0.00     0.217 C 
BRANCH  19  20
HETATM   20  C   UNL     1     -42.048  58.329 -54.543  1.00  0.00    -0.085 C 
BRANCH  20  21
HETATM   21  C   UNL     1     -42.362  57.216 -55.144  1.00  0.00    -0.078 C 
BRANCH  21  22
HETATM   22  C   UNL     1     -42.728  55.919 -55.848  1.00  0.00     0.269 C 
BRANCH  22  23
HETATM   23  O   UNL     1     -43.305  55.018 -54.909  1.00  0.00    -0.339 OA
BRANCH  23  24
HETATM   24  C   UNL     1     -42.434  54.386 -54.060  1.00  0.00     0.072 A 
HETATM   25  C   UNL     1     -42.517  54.374 -52.664  1.00  0.00     0.076 A 
HETATM   26  C   UNL     1     -41.546  53.681 -51.967  1.00  0.00     0.107 A 
HETATM   27  C   UNL     1     -40.523  53.019 -52.601  1.00  0.00     0.105 A 
HETATM   28  O   UNL     1     -41.478  53.567 -50.613  1.00  0.00    -0.323 OA
HETATM   29  O   UNL     1     -39.682  52.405 -51.728  1.00  0.00    -0.323 OA
HETATM   30  C   UNL     1     -40.412  53.010 -53.973  1.00  0.00     0.042 A 
HETATM   31  C   UNL     1     -40.292  52.756 -50.469  1.00  0.00     0.352 A 
HETATM   32  C   UNL     1     -41.381  53.705 -54.705  1.00  0.00     0.040 A 
ENDBRANCH  23  24
ENDBRANCH  22  23
ENDBRANCH  21  22
ENDBRANCH  20  21
ENDBRANCH  19  20
ENDBRANCH   2  19
TORSDOF 9
ENDMDL
