MODEL 1
REMARK VINA RESULT:      -8.6      0.000      0.000
REMARK  6 active torsions:
REMARK  status: ('A' for Active; 'I' for Inactive)
REMARK    1  A    between atoms: C_3  and  C_4 
REMARK       I    between atoms: C_4  and  N_5 
REMARK    2  A    between atoms: N_5  and  C_6 
REMARK    3  A    between atoms: C_6  and  C_7 
REMARK    4  A    between atoms: C_7  and  C_8 
REMARK    5  A    between atoms: C_19  and  O_20 
REMARK    6  A    between atoms: C_29  and  O_30 
ROOT
HETATM    1  C   UNL     1     -41.588  58.220 -52.279  1.00  0.00     0.158 A 
HETATM    2  N   UNL     1     -41.750  58.344 -50.956  1.00  0.00    -0.111 NA
HETATM    3  O   UNL     1     -41.496  57.057 -50.481  1.00  0.00    -0.189 OA
HETATM    4  C   UNL     1     -41.192  56.284 -51.570  1.00  0.00     0.223 A 
HETATM    5  C   UNL     1     -40.872  54.897 -51.501  1.00  0.00     0.089 A 
HETATM    6  N   UNL     1     -40.591  54.160 -52.623  1.00  0.00    -0.352 N 
HETATM    7  H   UNL     1     -40.590  54.533 -53.564  1.00  0.00     0.166 HD
HETATM    8  C   UNL     1     -40.318  52.855 -52.286  1.00  0.00     0.045 A 
HETATM    9  C   UNL     1     -40.432  52.759 -50.900  1.00  0.00    -0.007 A 
HETATM   10  C   UNL     1     -40.781  54.049 -50.415  1.00  0.00     0.048 A 
HETATM   11  C   UNL     1     -39.983  51.761 -53.092  1.00  0.00     0.067 A 
HETATM   12  C   UNL     1     -39.757  50.525 -52.472  1.00  0.00     0.070 A 
HETATM   13  C   UNL     1     -39.867  50.404 -51.086  1.00  0.00     0.038 A 
HETATM   14  C   UNL     1     -40.202  51.511 -50.291  1.00  0.00     0.016 A 
HETATM   15  N   UNL     1     -41.223  56.965 -52.698  1.00  0.00    -0.203 NA
ENDROOT
BRANCH   1  16
HETATM   16  C   UNL     1     -41.748  59.376 -53.196  1.00  0.00     0.103 C 
BRANCH  16  17
HETATM   17  C   UNL     1     -43.134  59.446 -53.841  1.00  0.00     0.133 C 
BRANCH  17  18
HETATM   18  N   UNL     1     -43.136  58.950 -55.220  1.00  0.00    -0.352 N 
HETATM   19  C   UNL     1     -44.058  57.960 -55.559  1.00  0.00     0.254 C 
HETATM   20  O   UNL     1     -44.934  57.567 -54.792  1.00  0.00    -0.267 OA
HETATM   21  C   UNL     1     -42.241  59.611 -56.162  1.00  0.00     0.152 C 
BRANCH  19  22
HETATM   22  C   UNL     1     -43.971  57.337 -56.901  1.00  0.00     0.038 A 
HETATM   23  C   UNL     1     -43.137  56.230 -57.137  1.00  0.00    -0.044 A 
HETATM   24  C   UNL     1     -42.284  55.639 -56.048  1.00  0.00     0.049 C 
HETATM   25  C   UNL     1     -43.087  55.686 -58.434  1.00  0.00     0.044 A 
HETATM   26  C   UNL     1     -43.852  56.230 -59.470  1.00  0.00     0.068 A 
HETATM   27  C   UNL     1     -44.654  57.345 -59.220  1.00  0.00     0.038 A 
HETATM   28  C   UNL     1     -44.712  57.904 -57.944  1.00  0.00     0.020 A 
BRANCH  26  29
HETATM   29  O   UNL     1     -43.895  55.778 -60.761  1.00  0.00    -0.356 OA
HETATM   30  C   UNL     1     -45.086  55.124 -61.176  1.00  0.00     0.210 C 
ENDBRANCH  26  29
ENDBRANCH  19  22
ENDBRANCH  17  18
ENDBRANCH  16  17
ENDBRANCH   1  16
BRANCH  12  31
HETATM   31  O   UNL     1     -39.436  49.515 -53.340  1.00  0.00    -0.356 OA
HETATM   32  C   UNL     1     -39.573  49.788 -54.728  1.00  0.00     0.210 C 
ENDBRANCH  12  31
TORSDOF 6
ENDMDL
MODEL 2
REMARK VINA RESULT:      -8.5      1.763      7.740
REMARK  6 active torsions:
REMARK  status: ('A' for Active; 'I' for Inactive)
REMARK    1  A    between atoms: C_3  and  C_4 
REMARK       I    between atoms: C_4  and  N_5 
REMARK    2  A    between atoms: N_5  and  C_6 
REMARK    3  A    between atoms: C_6  and  C_7 
REMARK    4  A    between atoms: C_7  and  C_8 
REMARK    5  A    between atoms: C_19  and  O_20 
REMARK    6  A    between atoms: C_29  and  O_30 
ROOT
HETATM    1  C   UNL     1     -43.450  57.399 -52.358  1.00  0.00     0.158 A 
HETATM    2  N   UNL     1     -42.620  58.448 -52.302  1.00  0.00    -0.111 NA
HETATM    3  O   UNL     1     -42.318  58.689 -53.642  1.00  0.00    -0.189 OA
HETATM    4  C   UNL     1     -43.010  57.765 -54.379  1.00  0.00     0.223 A 
HETATM    5  C   UNL     1     -42.963  57.680 -55.800  1.00  0.00     0.089 A 
HETATM    6  N   UNL     1     -43.661  56.724 -56.493  1.00  0.00    -0.352 N 
HETATM    7  H   UNL     1     -44.249  56.022 -56.061  1.00  0.00     0.166 HD
HETATM    8  C   UNL     1     -43.446  56.857 -57.845  1.00  0.00     0.045 A 
HETATM    9  C   UNL     1     -42.579  57.933 -58.017  1.00  0.00    -0.007 A 
HETATM   10  C   UNL     1     -42.280  58.445 -56.724  1.00  0.00     0.048 A 
HETATM   11  C   UNL     1     -43.946  56.113 -58.920  1.00  0.00     0.067 A 
HETATM   12  C   UNL     1     -43.552  56.472 -60.216  1.00  0.00     0.070 A 
HETATM   13  C   UNL     1     -42.683  57.547 -60.413  1.00  0.00     0.038 A 
HETATM   14  C   UNL     1     -42.191  58.283 -59.324  1.00  0.00     0.016 A 
HETATM   15  N   UNL     1     -43.733  56.958 -53.627  1.00  0.00    -0.203 NA
ENDROOT
BRANCH   1  16
HETATM   16  C   UNL     1     -44.045  56.807 -51.134  1.00  0.00     0.103 C 
BRANCH  16  17
HETATM   17  C   UNL     1     -43.018  56.102 -50.246  1.00  0.00     0.133 C 
BRANCH  17  18
HETATM   18  N   UNL     1     -42.534  54.850 -50.834  1.00  0.00    -0.352 N 
HETATM   19  C   UNL     1     -41.155  54.650 -50.904  1.00  0.00     0.254 C 
HETATM   20  O   UNL     1     -40.338  55.416 -50.399  1.00  0.00    -0.267 OA
HETATM   21  C   UNL     1     -43.538  53.860 -51.203  1.00  0.00     0.152 C 
BRANCH  19  22
HETATM   22  C   UNL     1     -40.646  53.465 -51.635  1.00  0.00     0.038 A 
HETATM   23  C   UNL     1     -40.591  53.444 -53.039  1.00  0.00    -0.044 A 
HETATM   24  C   UNL     1     -41.062  54.611 -53.864  1.00  0.00     0.049 C 
HETATM   25  C   UNL     1     -40.108  52.288 -53.680  1.00  0.00     0.044 A 
HETATM   26  C   UNL     1     -39.685  51.180 -52.938  1.00  0.00     0.068 A 
HETATM   27  C   UNL     1     -39.771  51.213 -51.545  1.00  0.00     0.038 A 
HETATM   28  C   UNL     1     -40.255  52.345 -50.891  1.00  0.00     0.020 A 
BRANCH  26  29
HETATM   29  O   UNL     1     -39.186  50.014 -53.449  1.00  0.00    -0.356 OA
HETATM   30  C   UNL     1     -39.552  49.684 -54.782  1.00  0.00     0.210 C 
ENDBRANCH  26  29
ENDBRANCH  19  22
ENDBRANCH  17  18
ENDBRANCH  16  17
ENDBRANCH   1  16
BRANCH  12  31
HETATM   31  O   UNL     1     -44.091  55.689 -61.202  1.00  0.00    -0.356 OA
HETATM   32  C   UNL     1     -45.435  55.261 -61.025  1.00  0.00     0.210 C 
ENDBRANCH  12  31
TORSDOF 6
ENDMDL
MODEL 3
REMARK VINA RESULT:      -8.0      1.235      1.922
REMARK  6 active torsions:
REMARK  status: ('A' for Active; 'I' for Inactive)
REMARK    1  A    between atoms: C_3  and  C_4 
REMARK       I    between atoms: C_4  and  N_5 
REMARK    2  A    between atoms: N_5  and  C_6 
REMARK    3  A    between atoms: C_6  and  C_7 
REMARK    4  A    between atoms: C_7  and  C_8 
REMARK    5  A    between atoms: C_19  and  O_20 
REMARK    6  A    between atoms: C_29  and  O_30 
ROOT
HETATM    1  C   UNL     1     -42.532  59.429 -52.899  1.00  0.00     0.158 A 
HETATM    2  N   UNL     1     -42.552  59.534 -51.564  1.00  0.00    -0.111 NA
HETATM    3  O   UNL     1     -42.108  58.282 -51.138  1.00  0.00    -0.189 OA
HETATM    4  C   UNL     1     -41.851  57.546 -52.264  1.00  0.00     0.223 A 
HETATM    5  C   UNL     1     -41.378  56.202 -52.249  1.00  0.00     0.089 A 
HETATM    6  N   UNL     1     -41.151  55.500 -53.405  1.00  0.00    -0.352 N 
HETATM    7  H   UNL     1     -41.298  55.871 -54.335  1.00  0.00     0.166 HD
HETATM    8  C   UNL     1     -40.702  54.232 -53.118  1.00  0.00     0.045 A 
HETATM    9  C   UNL     1     -40.645  54.124 -51.730  1.00  0.00    -0.007 A 
HETATM   10  C   UNL     1     -41.072  55.369 -51.192  1.00  0.00     0.048 A 
HETATM   11  C   UNL     1     -40.348  53.180 -53.971  1.00  0.00     0.067 A 
HETATM   12  C   UNL     1     -39.920  51.976 -53.397  1.00  0.00     0.070 A 
HETATM   13  C   UNL     1     -39.856  51.843 -52.009  1.00  0.00     0.038 A 
HETATM   14  C   UNL     1     -40.214  52.908 -51.167  1.00  0.00     0.016 A 
HETATM   15  N   UNL     1     -42.085  58.220 -53.373  1.00  0.00    -0.203 NA
ENDROOT
BRANCH   1  16
HETATM   16  C   UNL     1     -42.919  60.561 -53.777  1.00  0.00     0.103 C 
BRANCH  16  17
HETATM   17  C   UNL     1     -44.336  60.429 -54.338  1.00  0.00     0.133 C 
BRANCH  17  18
HETATM   18  N   UNL     1     -44.355  59.844 -55.682  1.00  0.00    -0.352 N 
HETATM   19  C   UNL     1     -44.784  58.523 -55.816  1.00  0.00     0.254 C 
HETATM   20  O   UNL     1     -45.248  57.870 -54.886  1.00  0.00    -0.267 OA
HETATM   21  C   UNL     1     -44.024  60.728 -56.793  1.00  0.00     0.152 C 
BRANCH  19  22
HETATM   22  C   UNL     1     -44.660  57.867 -57.140  1.00  0.00     0.038 A 
HETATM   23  C   UNL     1     -45.738  57.839 -58.041  1.00  0.00    -0.044 A 
HETATM   24  C   UNL     1     -47.068  58.454 -57.700  1.00  0.00     0.049 C 
HETATM   25  C   UNL     1     -45.567  57.192 -59.280  1.00  0.00     0.044 A 
HETATM   26  C   UNL     1     -44.348  56.592 -59.613  1.00  0.00     0.068 A 
HETATM   27  C   UNL     1     -43.298  56.610 -58.693  1.00  0.00     0.038 A 
HETATM   28  C   UNL     1     -43.450  57.238 -57.457  1.00  0.00     0.020 A 
BRANCH  26  29
HETATM   29  O   UNL     1     -44.062  55.952 -60.788  1.00  0.00    -0.356 OA
HETATM   30  C   UNL     1     -45.033  55.036 -61.276  1.00  0.00     0.210 C 
ENDBRANCH  26  29
ENDBRANCH  19  22
ENDBRANCH  17  18
ENDBRANCH  16  17
ENDBRANCH   1  16
BRANCH  12  31
HETATM   31  O   UNL     1     -39.595  51.006 -54.308  1.00  0.00    -0.356 OA
HETATM   32  C   UNL     1     -39.861  49.659 -53.940  1.00  0.00     0.210 C 
ENDBRANCH  12  31
TORSDOF 6
ENDMDL
MODEL 4
REMARK VINA RESULT:      -8.0      3.427     10.285
REMARK  6 active torsions:
REMARK  status: ('A' for Active; 'I' for Inactive)
REMARK    1  A    between atoms: C_3  and  C_4 
REMARK       I    between atoms: C_4  and  N_5 
REMARK    2  A    between atoms: N_5  and  C_6 
REMARK    3  A    between atoms: C_6  and  C_7 
REMARK    4  A    between atoms: C_7  and  C_8 
REMARK    5  A    between atoms: C_19  and  O_20 
REMARK    6  A    between atoms: C_29  and  O_30 
ROOT
HETATM    1  C   UNL     1     -43.295  56.675 -57.493  1.00  0.00     0.158 A 
HETATM    2  N   UNL     1     -43.231  55.405 -57.911  1.00  0.00    -0.111 NA
HETATM    3  O   UNL     1     -44.229  55.337 -58.882  1.00  0.00    -0.189 OA
HETATM    4  C   UNL     1     -44.792  56.583 -58.963  1.00  0.00     0.223 A 
HETATM    5  C   UNL     1     -45.857  56.923 -59.847  1.00  0.00     0.089 A 
HETATM    6  N   UNL     1     -46.399  58.182 -59.879  1.00  0.00    -0.352 N 
HETATM    7  H   UNL     1     -46.094  58.949 -59.294  1.00  0.00     0.166 HD
HETATM    8  C   UNL     1     -47.408  58.248 -60.812  1.00  0.00     0.045 A 
HETATM    9  C   UNL     1     -47.512  56.984 -61.391  1.00  0.00    -0.007 A 
HETATM   10  C   UNL     1     -46.531  56.157 -60.776  1.00  0.00     0.048 A 
HETATM   11  C   UNL     1     -48.230  59.317 -61.184  1.00  0.00     0.067 A 
HETATM   12  C   UNL     1     -49.194  59.098 -62.178  1.00  0.00     0.070 A 
HETATM   13  C   UNL     1     -49.318  57.841 -62.771  1.00  0.00     0.038 A 
HETATM   14  C   UNL     1     -48.485  56.779 -62.387  1.00  0.00     0.016 A 
HETATM   15  N   UNL     1     -44.236  57.443 -58.134  1.00  0.00    -0.203 NA
ENDROOT
BRANCH   1  16
HETATM   16  C   UNL     1     -42.378  57.202 -56.452  1.00  0.00     0.103 C 
BRANCH  16  17
HETATM   17  C   UNL     1     -42.904  57.002 -55.029  1.00  0.00     0.133 C 
BRANCH  17  18
HETATM   18  N   UNL     1     -42.514  55.706 -54.465  1.00  0.00    -0.352 N 
HETATM   19  C   UNL     1     -41.203  55.557 -54.012  1.00  0.00     0.254 C 
HETATM   20  O   UNL     1     -40.400  56.485 -53.962  1.00  0.00    -0.267 OA
HETATM   21  C   UNL     1     -43.564  54.705 -54.320  1.00  0.00     0.152 C 
BRANCH  19  22
HETATM   22  C   UNL     1     -40.748  54.212 -53.585  1.00  0.00     0.038 A 
HETATM   23  C   UNL     1     -40.701  53.858 -52.226  1.00  0.00    -0.044 A 
HETATM   24  C   UNL     1     -41.090  54.827 -51.144  1.00  0.00     0.049 C 
HETATM   25  C   UNL     1     -40.251  52.570 -51.879  1.00  0.00     0.044 A 
HETATM   26  C   UNL     1     -39.861  51.657 -52.863  1.00  0.00     0.068 A 
HETATM   27  C   UNL     1     -39.892  52.038 -54.206  1.00  0.00     0.038 A 
HETATM   28  C   UNL     1     -40.327  53.312 -54.571  1.00  0.00     0.020 A 
BRANCH  26  29
HETATM   29  O   UNL     1     -39.422  50.379 -52.646  1.00  0.00    -0.356 OA
HETATM   30  C   UNL     1     -39.484  49.893 -51.312  1.00  0.00     0.210 C 
ENDBRANCH  26  29
ENDBRANCH  19  22
ENDBRANCH  17  18
ENDBRANCH  16  17
ENDBRANCH   1  16
BRANCH  12  31
HETATM   31  O   UNL     1     -49.951  60.200 -62.475  1.00  0.00    -0.356 OA
HETATM   32  C   UNL     1     -51.202  59.972 -63.112  1.00  0.00     0.210 C 
ENDBRANCH  12  31
TORSDOF 6
ENDMDL
MODEL 5
REMARK VINA RESULT:      -8.0      2.628      8.596
REMARK  6 active torsions:
REMARK  status: ('A' for Active; 'I' for Inactive)
REMARK    1  A    between atoms: C_3  and  C_4 
REMARK       I    between atoms: C_4  and  N_5 
REMARK    2  A    between atoms: N_5  and  C_6 
REMARK    3  A    between atoms: C_6  and  C_7 
REMARK    4  A    between atoms: C_7  and  C_8 
REMARK    5  A    between atoms: C_19  and  O_20 
REMARK    6  A    between atoms: C_29  and  O_30 
ROOT
HETATM    1  C   UNL     1     -44.027  56.941 -53.728  1.00  0.00     0.158 A 
HETATM    2  N   UNL     1     -43.991  55.704 -54.240  1.00  0.00    -0.111 NA
HETATM    3  O   UNL     1     -43.610  55.916 -55.564  1.00  0.00    -0.189 OA
HETATM    4  C   UNL     1     -43.441  57.267 -55.719  1.00  0.00     0.223 A 
HETATM    5  C   UNL     1     -43.052  57.888 -56.941  1.00  0.00     0.089 A 
HETATM    6  N   UNL     1     -42.912  59.248 -57.050  1.00  0.00    -0.352 N 
HETATM    7  H   UNL     1     -43.071  59.900 -56.292  1.00  0.00     0.166 HD
HETATM    8  C   UNL     1     -42.533  59.592 -58.326  1.00  0.00     0.045 A 
HETATM    9  C   UNL     1     -42.431  58.408 -59.054  1.00  0.00    -0.007 A 
HETATM   10  C   UNL     1     -42.760  57.342 -58.173  1.00  0.00     0.048 A 
HETATM   11  C   UNL     1     -42.276  60.847 -58.889  1.00  0.00     0.067 A 
HETATM   12  C   UNL     1     -41.903  60.906 -60.238  1.00  0.00     0.070 A 
HETATM   13  C   UNL     1     -41.795  59.733 -60.988  1.00  0.00     0.038 A 
HETATM   14  C   UNL     1     -42.055  58.482 -60.409  1.00  0.00     0.016 A 
HETATM   15  N   UNL     1     -43.674  57.935 -54.607  1.00  0.00    -0.203 NA
ENDROOT
BRANCH   1  16
HETATM   16  C   UNL     1     -44.376  57.188 -52.307  1.00  0.00     0.103 C 
BRANCH  16  17
HETATM   17  C   UNL     1     -43.196  56.988 -51.355  1.00  0.00     0.133 C 
BRANCH  17  18
HETATM   18  N   UNL     1     -42.616  55.645 -51.454  1.00  0.00    -0.352 N 
HETATM   19  C   UNL     1     -41.349  55.520 -52.022  1.00  0.00     0.254 C 
HETATM   20  O   UNL     1     -40.655  56.483 -52.337  1.00  0.00    -0.267 OA
HETATM   21  C   UNL     1     -43.370  54.553 -50.850  1.00  0.00     0.152 C 
BRANCH  19  22
HETATM   22  C   UNL     1     -40.815  54.160 -52.274  1.00  0.00     0.038 A 
HETATM   23  C   UNL     1     -40.090  53.468 -51.288  1.00  0.00    -0.044 A 
HETATM   24  C   UNL     1     -39.807  54.080 -49.943  1.00  0.00     0.049 C 
HETATM   25  C   UNL     1     -39.598  52.184 -51.587  1.00  0.00     0.044 A 
HETATM   26  C   UNL     1     -39.827  51.601 -52.838  1.00  0.00     0.068 A 
HETATM   27  C   UNL     1     -40.528  52.316 -53.811  1.00  0.00     0.038 A 
HETATM   28  C   UNL     1     -41.017  53.593 -53.538  1.00  0.00     0.020 A 
BRANCH  26  29
HETATM   29  O   UNL     1     -39.413  50.359 -53.234  1.00  0.00    -0.356 OA
HETATM   30  C   UNL     1     -39.926  49.870 -54.465  1.00  0.00     0.210 C 
ENDBRANCH  26  29
ENDBRANCH  19  22
ENDBRANCH  17  18
ENDBRANCH  16  17
ENDBRANCH   1  16
BRANCH  12  31
HETATM   31  O   UNL     1     -41.672  62.174 -60.701  1.00  0.00    -0.356 OA
HETATM   32  C   UNL     1     -40.330  62.643 -60.659  1.00  0.00     0.210 C 
ENDBRANCH  12  31
TORSDOF 6
ENDMDL
MODEL 6
REMARK VINA RESULT:      -7.9      4.865      8.144
REMARK  6 active torsions:
REMARK  status: ('A' for Active; 'I' for Inactive)
REMARK    1  A    between atoms: C_3  and  C_4 
REMARK       I    between atoms: C_4  and  N_5 
REMARK    2  A    between atoms: N_5  and  C_6 
REMARK    3  A    between atoms: C_6  and  C_7 
REMARK    4  A    between atoms: C_7  and  C_8 
REMARK    5  A    between atoms: C_19  and  O_20 
REMARK    6  A    between atoms: C_29  and  O_30 
ROOT
HETATM    1  C   UNL     1     -42.491  59.172 -53.205  1.00  0.00     0.158 A 
HETATM    2  N   UNL     1     -42.459  59.210 -54.543  1.00  0.00    -0.111 NA
HETATM    3  O   UNL     1     -41.979  57.946 -54.888  1.00  0.00    -0.189 OA
HETATM    4  C   UNL     1     -41.780  57.263 -53.717  1.00  0.00     0.223 A 
HETATM    5  C   UNL     1     -41.289  55.927 -53.646  1.00  0.00     0.089 A 
HETATM    6  N   UNL     1     -41.090  55.291 -52.447  1.00  0.00    -0.352 N 
HETATM    7  H   UNL     1     -41.270  55.709 -51.543  1.00  0.00     0.166 HD
HETATM    8  C   UNL     1     -40.612  54.018 -52.652  1.00  0.00     0.045 A 
HETATM    9  C   UNL     1     -40.502  53.840 -54.030  1.00  0.00    -0.007 A 
HETATM   10  C   UNL     1     -40.930  55.047 -54.646  1.00  0.00     0.048 A 
HETATM   11  C   UNL     1     -40.271  53.019 -51.734  1.00  0.00     0.067 A 
HETATM   12  C   UNL     1     -39.799  51.795 -52.229  1.00  0.00     0.070 A 
HETATM   13  C   UNL     1     -39.679  51.594 -53.605  1.00  0.00     0.038 A 
HETATM   14  C   UNL     1     -40.027  52.606 -54.513  1.00  0.00     0.016 A 
HETATM   15  N   UNL     1     -42.097  57.977 -52.655  1.00  0.00    -0.203 NA
ENDROOT
BRANCH   1  16
HETATM   16  C   UNL     1     -42.966  60.326 -52.402  1.00  0.00     0.103 C 
BRANCH  16  17
HETATM   17  C   UNL     1     -44.254  60.033 -51.631  1.00  0.00     0.133 C 
BRANCH  17  18
HETATM   18  N   UNL     1     -44.364  60.825 -50.402  1.00  0.00    -0.352 N 
HETATM   19  C   UNL     1     -45.331  60.454 -49.468  1.00  0.00     0.254 C 
HETATM   20  O   UNL     1     -46.013  59.437 -49.575  1.00  0.00    -0.267 OA
HETATM   21  C   UNL     1     -43.376  61.878 -50.204  1.00  0.00     0.152 C 
BRANCH  19  22
HETATM   22  C   UNL     1     -45.562  61.333 -48.297  1.00  0.00     0.038 A 
HETATM   23  C   UNL     1     -46.364  62.483 -48.398  1.00  0.00    -0.044 A 
HETATM   24  C   UNL     1     -47.008  62.885 -49.696  1.00  0.00     0.049 C 
HETATM   25  C   UNL     1     -46.539  63.286 -47.255  1.00  0.00     0.044 A 
HETATM   26  C   UNL     1     -45.933  62.949 -46.041  1.00  0.00     0.068 A 
HETATM   27  C   UNL     1     -45.121  61.815 -45.970  1.00  0.00     0.038 A 
HETATM   28  C   UNL     1     -44.927  61.011 -47.092  1.00  0.00     0.020 A 
BRANCH  26  29
HETATM   29  O   UNL     1     -46.045  63.642 -44.867  1.00  0.00    -0.356 OA
HETATM   30  C   UNL     1     -44.900  63.675 -44.026  1.00  0.00     0.210 C 
ENDBRANCH  26  29
ENDBRANCH  19  22
ENDBRANCH  17  18
ENDBRANCH  16  17
ENDBRANCH   1  16
BRANCH  12  31
HETATM   31  O   UNL     1     -39.491  50.880 -51.257  1.00  0.00    -0.356 OA
HETATM   32  C   UNL     1     -39.669  49.508 -51.583  1.00  0.00     0.210 C 
ENDBRANCH  12  31
TORSDOF 6
ENDMDL
MODEL 7
REMARK VINA RESULT:      -7.7      3.088      4.199
REMARK  6 active torsions:
REMARK  status: ('A' for Active; 'I' for Inactive)
REMARK    1  A    between atoms: C_3  and  C_4 
REMARK       I    between atoms: C_4  and  N_5 
REMARK    2  A    between atoms: N_5  and  C_6 
REMARK    3  A    between atoms: C_6  and  C_7 
REMARK    4  A    between atoms: C_7  and  C_8 
REMARK    5  A    between atoms: C_19  and  O_20 
REMARK    6  A    between atoms: C_29  and  O_30 
ROOT
HETATM    1  C   UNL     1     -44.691  57.905 -54.756  1.00  0.00     0.158 A 
HETATM    2  N   UNL     1     -44.878  58.314 -53.495  1.00  0.00    -0.111 NA
HETATM    3  O   UNL     1     -44.105  57.422 -52.751  1.00  0.00    -0.189 OA
HETATM    4  C   UNL     1     -43.516  56.566 -53.644  1.00  0.00     0.223 A 
HETATM    5  C   UNL     1     -42.645  55.500 -53.273  1.00  0.00     0.089 A 
HETATM    6  N   UNL     1     -42.092  54.658 -54.203  1.00  0.00    -0.352 N 
HETATM    7  H   UNL     1     -42.254  54.725 -55.200  1.00  0.00     0.166 HD
HETATM    8  C   UNL     1     -41.296  53.720 -53.590  1.00  0.00     0.045 A 
HETATM    9  C   UNL     1     -41.347  53.973 -52.220  1.00  0.00    -0.007 A 
HETATM   10  C   UNL     1     -42.199  55.096 -52.031  1.00  0.00     0.048 A 
HETATM   11  C   UNL     1     -40.542  52.674 -54.135  1.00  0.00     0.067 A 
HETATM   12  C   UNL     1     -39.814  51.855 -53.261  1.00  0.00     0.070 A 
HETATM   13  C   UNL     1     -39.852  52.088 -51.885  1.00  0.00     0.038 A 
HETATM   14  C   UNL     1     -40.612  53.142 -51.354  1.00  0.00     0.016 A 
HETATM   15  N   UNL     1     -43.838  56.837 -54.893  1.00  0.00    -0.203 NA
ENDROOT
BRANCH   1  16
HETATM   16  C   UNL     1     -45.327  58.598 -55.904  1.00  0.00     0.103 C 
BRANCH  16  17
HETATM   17  C   UNL     1     -44.984  57.965 -57.254  1.00  0.00     0.133 C 
BRANCH  17  18
HETATM   18  N   UNL     1     -44.395  58.926 -58.191  1.00  0.00    -0.352 N 
HETATM   19  C   UNL     1     -43.091  58.697 -58.630  1.00  0.00     0.254 C 
HETATM   20  O   UNL     1     -42.459  57.679 -58.358  1.00  0.00    -0.267 OA
HETATM   21  C   UNL     1     -45.261  59.993 -58.676  1.00  0.00     0.152 C 
BRANCH  19  22
HETATM   22  C   UNL     1     -42.425  59.737 -59.450  1.00  0.00     0.038 A 
HETATM   23  C   UNL     1     -41.771  60.828 -58.852  1.00  0.00    -0.044 A 
HETATM   24  C   UNL     1     -41.732  61.001 -57.358  1.00  0.00     0.049 C 
HETATM   25  C   UNL     1     -41.165  61.790 -59.681  1.00  0.00     0.044 A 
HETATM   26  C   UNL     1     -41.206  61.666 -61.073  1.00  0.00     0.068 A 
HETATM   27  C   UNL     1     -41.882  60.587 -61.647  1.00  0.00     0.038 A 
HETATM   28  C   UNL     1     -42.497  59.628 -60.844  1.00  0.00     0.020 A 
BRANCH  26  29
HETATM   29  O   UNL     1     -40.642  62.527 -61.974  1.00  0.00    -0.356 OA
HETATM   30  C   UNL     1     -39.454  63.194 -61.573  1.00  0.00     0.210 C 
ENDBRANCH  26  29
ENDBRANCH  19  22
ENDBRANCH  17  18
ENDBRANCH  16  17
ENDBRANCH   1  16
BRANCH  12  31
HETATM   31  O   UNL     1     -39.108  50.860 -53.884  1.00  0.00    -0.356 OA
HETATM   32  C   UNL     1     -39.858  49.797 -54.457  1.00  0.00     0.210 C 
ENDBRANCH  12  31
TORSDOF 6
ENDMDL
MODEL 8
REMARK VINA RESULT:      -7.6      4.103      8.846
REMARK  6 active torsions:
REMARK  status: ('A' for Active; 'I' for Inactive)
REMARK    1  A    between atoms: C_3  and  C_4 
REMARK       I    between atoms: C_4  and  N_5 
REMARK    2  A    between atoms: N_5  and  C_6 
REMARK    3  A    between atoms: C_6  and  C_7 
REMARK    4  A    between atoms: C_7  and  C_8 
REMARK    5  A    between atoms: C_19  and  O_20 
REMARK    6  A    between atoms: C_29  and  O_30 
ROOT
HETATM    1  C   UNL     1     -44.348  58.490 -53.815  1.00  0.00     0.158 A 
HETATM    2  N   UNL     1     -44.004  59.554 -54.552  1.00  0.00    -0.111 NA
HETATM    3  O   UNL     1     -43.999  60.596 -53.625  1.00  0.00    -0.189 OA
HETATM    4  C   UNL     1     -44.331  60.053 -52.412  1.00  0.00     0.223 A 
HETATM    5  C   UNL     1     -44.435  60.800 -51.203  1.00  0.00     0.089 A 
HETATM    6  N   UNL     1     -44.787  60.212 -50.015  1.00  0.00    -0.352 N 
HETATM    7  H   UNL     1     -44.996  59.228 -49.906  1.00  0.00     0.166 HD
HETATM    8  C   UNL     1     -44.818  61.147 -49.007  1.00  0.00     0.045 A 
HETATM    9  C   UNL     1     -44.475  62.372 -49.575  1.00  0.00    -0.007 A 
HETATM   10  C   UNL     1     -44.236  62.143 -50.958  1.00  0.00     0.048 A 
HETATM   11  C   UNL     1     -45.121  61.005 -47.648  1.00  0.00     0.067 A 
HETATM   12  C   UNL     1     -45.076  62.146 -46.835  1.00  0.00     0.070 A 
HETATM   13  C   UNL     1     -44.737  63.384 -47.382  1.00  0.00     0.038 A 
HETATM   14  C   UNL     1     -44.435  63.510 -48.747  1.00  0.00     0.016 A 
HETATM   15  N   UNL     1     -44.540  58.753 -52.481  1.00  0.00    -0.203 NA
ENDROOT
BRANCH   1  16
HETATM   16  C   UNL     1     -44.459  57.134 -54.407  1.00  0.00     0.103 C 
BRANCH  16  17
HETATM   17  C   UNL     1     -43.264  56.762 -55.287  1.00  0.00     0.133 C 
BRANCH  17  18
HETATM   18  N   UNL     1     -42.294  55.914 -54.586  1.00  0.00    -0.352 N 
HETATM   19  C   UNL     1     -42.545  54.544 -54.526  1.00  0.00     0.254 C 
HETATM   20  O   UNL     1     -43.473  54.004 -55.123  1.00  0.00    -0.267 OA
HETATM   21  C   UNL     1     -41.082  56.561 -54.097  1.00  0.00     0.152 C 
BRANCH  19  22
HETATM   22  C   UNL     1     -41.661  53.695 -53.690  1.00  0.00     0.038 A 
HETATM   23  C   UNL     1     -41.762  53.701 -52.288  1.00  0.00    -0.044 A 
HETATM   24  C   UNL     1     -42.753  54.576 -51.572  1.00  0.00     0.049 C 
HETATM   25  C   UNL     1     -40.889  52.883 -51.546  1.00  0.00     0.044 A 
HETATM   26  C   UNL     1     -39.943  52.076 -52.185  1.00  0.00     0.068 A 
HETATM   27  C   UNL     1     -39.844  52.105 -53.578  1.00  0.00     0.038 A 
HETATM   28  C   UNL     1     -40.693  52.915 -54.332  1.00  0.00     0.020 A 
BRANCH  26  29
HETATM   29  O   UNL     1     -39.058  51.234 -51.571  1.00  0.00    -0.356 OA
HETATM   30  C   UNL     1     -39.500  49.908 -51.315  1.00  0.00     0.210 C 
ENDBRANCH  26  29
ENDBRANCH  19  22
ENDBRANCH  17  18
ENDBRANCH  16  17
ENDBRANCH   1  16
BRANCH  12  31
HETATM   31  O   UNL     1     -45.388  61.910 -45.522  1.00  0.00    -0.356 OA
HETATM   32  C   UNL     1     -44.578  60.972 -44.825  1.00  0.00     0.210 C 
ENDBRANCH  12  31
TORSDOF 6
ENDMDL
MODEL 9
REMARK VINA RESULT:      -7.6      2.039      2.811
REMARK  6 active torsions:
REMARK  status: ('A' for Active; 'I' for Inactive)
REMARK    1  A    between atoms: C_3  and  C_4 
REMARK       I    between atoms: C_4  and  N_5 
REMARK    2  A    between atoms: N_5  and  C_6 
REMARK    3  A    between atoms: C_6  and  C_7 
REMARK    4  A    between atoms: C_7  and  C_8 
REMARK    5  A    between atoms: C_19  and  O_20 
REMARK    6  A    between atoms: C_29  and  O_30 
ROOT
HETATM    1  C   UNL     1     -43.879  58.578 -53.715  1.00  0.00     0.158 A 
HETATM    2  N   UNL     1     -43.858  58.974 -52.435  1.00  0.00    -0.111 NA
HETATM    3  O   UNL     1     -43.149  57.956 -51.797  1.00  0.00    -0.189 OA
HETATM    4  C   UNL     1     -42.801  57.048 -52.762  1.00  0.00     0.223 A 
HETATM    5  C   UNL     1     -42.064  55.855 -52.507  1.00  0.00     0.089 A 
HETATM    6  N   UNL     1     -41.754  54.967 -53.505  1.00  0.00    -0.352 N 
HETATM    7  H   UNL     1     -42.016  55.086 -54.476  1.00  0.00     0.166 HD
HETATM    8  C   UNL     1     -41.044  53.904 -52.999  1.00  0.00     0.045 A 
HETATM    9  C   UNL     1     -40.901  54.122 -51.631  1.00  0.00    -0.007 A 
HETATM   10  C   UNL     1     -41.547  55.353 -51.331  1.00  0.00     0.048 A 
HETATM   11  C   UNL     1     -40.523  52.774 -53.640  1.00  0.00     0.067 A 
HETATM   12  C   UNL     1     -39.833  51.831 -52.867  1.00  0.00     0.070 A 
HETATM   13  C   UNL     1     -39.678  52.027 -51.493  1.00  0.00     0.038 A 
HETATM   14  C   UNL     1     -40.206  53.166 -50.865  1.00  0.00     0.016 A 
HETATM   15  N   UNL     1     -43.218  57.400 -53.962  1.00  0.00    -0.203 NA
ENDROOT
BRANCH   1  16
HETATM   16  C   UNL     1     -44.528  59.391 -54.773  1.00  0.00     0.103 C 
BRANCH  16  17
HETATM   17  C   UNL     1     -43.921  59.170 -56.159  1.00  0.00     0.133 C 
BRANCH  17  18
HETATM   18  N   UNL     1     -44.832  58.461 -57.064  1.00  0.00    -0.352 N 
HETATM   19  C   UNL     1     -44.398  58.209 -58.365  1.00  0.00     0.254 C 
HETATM   20  O   UNL     1     -43.257  58.451 -58.752  1.00  0.00    -0.267 OA
HETATM   21  C   UNL     1     -46.084  57.977 -56.495  1.00  0.00     0.152 C 
BRANCH  19  22
HETATM   22  C   UNL     1     -45.360  57.635 -59.336  1.00  0.00     0.038 A 
HETATM   23  C   UNL     1     -45.255  56.301 -59.763  1.00  0.00    -0.044 A 
HETATM   24  C   UNL     1     -44.155  55.400 -59.272  1.00  0.00     0.049 C 
HETATM   25  C   UNL     1     -46.191  55.813 -60.695  1.00  0.00     0.044 A 
HETATM   26  C   UNL     1     -47.210  56.636 -61.185  1.00  0.00     0.068 A 
HETATM   27  C   UNL     1     -47.281  57.966 -60.766  1.00  0.00     0.038 A 
HETATM   28  C   UNL     1     -46.359  58.471 -59.851  1.00  0.00     0.020 A 
BRANCH  26  29
HETATM   29  O   UNL     1     -48.180  56.269 -62.077  1.00  0.00    -0.356 OA
HETATM   30  C   UNL     1     -48.577  57.241 -63.035  1.00  0.00     0.210 C 
ENDBRANCH  26  29
ENDBRANCH  19  22
ENDBRANCH  17  18
ENDBRANCH  16  17
ENDBRANCH   1  16
BRANCH  12  31
HETATM   31  O   UNL     1     -39.360  50.761 -53.579  1.00  0.00    -0.356 OA
HETATM   32  C   UNL     1     -39.598  49.468 -53.037  1.00  0.00     0.210 C 
ENDBRANCH  12  31
TORSDOF 6
ENDMDL
MODEL 10
REMARK VINA RESULT:      -7.5      4.050     10.228
REMARK  6 active torsions:
REMARK  status: ('A' for Active; 'I' for Inactive)
REMARK    1  A    between atoms: C_3  and  C_4 
REMARK       I    between atoms: C_4  and  N_5 
REMARK    2  A    between atoms: N_5  and  C_6 
REMARK    3  A    between atoms: C_6  and  C_7 
REMARK    4  A    between atoms: C_7  and  C_8 
REMARK    5  A    between atoms: C_19  and  O_20 
REMARK    6  A    between atoms: C_29  and  O_30 
ROOT
HETATM    1  C   UNL     1     -42.893  56.287 -58.491  1.00  0.00     0.158 A 
HETATM    2  N   UNL     1     -43.188  55.839 -59.718  1.00  0.00    -0.111 NA
HETATM    3  O   UNL     1     -42.911  56.935 -60.534  1.00  0.00    -0.189 OA
HETATM    4  C   UNL     1     -42.462  57.938 -59.716  1.00  0.00     0.223 A 
HETATM    5  C   UNL     1     -42.075  59.230 -60.174  1.00  0.00     0.089 A 
HETATM    6  N   UNL     1     -41.648  60.208 -59.312  1.00  0.00    -0.352 N 
HETATM    7  H   UNL     1     -41.576  60.092 -58.309  1.00  0.00     0.166 HD
HETATM    8  C   UNL     1     -41.338  61.356 -60.003  1.00  0.00     0.045 A 
HETATM    9  C   UNL     1     -41.579  61.099 -61.351  1.00  0.00    -0.007 A 
HETATM   10  C   UNL     1     -42.043  59.759 -61.449  1.00  0.00     0.048 A 
HETATM   11  C   UNL     1     -40.868  62.592 -59.543  1.00  0.00     0.067 A 
HETATM   12  C   UNL     1     -40.635  63.604 -60.483  1.00  0.00     0.070 A 
HETATM   13  C   UNL     1     -40.871  63.371 -61.839  1.00  0.00     0.038 A 
HETATM   14  C   UNL     1     -41.341  62.126 -62.285  1.00  0.00     0.016 A 
HETATM   15  N   UNL     1     -42.422  57.576 -58.449  1.00  0.00    -0.203 NA
ENDROOT
BRANCH   1  16
HETATM   16  C   UNL     1     -43.027  55.423 -57.291  1.00  0.00     0.103 C 
BRANCH  16  17
HETATM   17  C   UNL     1     -43.302  56.213 -56.010  1.00  0.00     0.133 C 
BRANCH  17  18
HETATM   18  N   UNL     1     -42.503  55.737 -54.877  1.00  0.00    -0.352 N 
HETATM   19  C   UNL     1     -42.802  54.482 -54.345  1.00  0.00     0.254 C 
HETATM   20  O   UNL     1     -43.621  53.717 -54.849  1.00  0.00    -0.267 OA
HETATM   21  C   UNL     1     -41.381  56.571 -54.461  1.00  0.00     0.152 C 
BRANCH  19  22
HETATM   22  C   UNL     1     -42.112  54.053 -53.105  1.00  0.00     0.038 A 
HETATM   23  C   UNL     1     -40.911  53.325 -53.156  1.00  0.00    -0.044 A 
HETATM   24  C   UNL     1     -40.282  52.931 -54.464  1.00  0.00     0.049 C 
HETATM   25  C   UNL     1     -40.306  52.935 -51.946  1.00  0.00     0.044 A 
HETATM   26  C   UNL     1     -40.882  53.267 -50.716  1.00  0.00     0.068 A 
HETATM   27  C   UNL     1     -42.088  53.971 -50.689  1.00  0.00     0.038 A 
HETATM   28  C   UNL     1     -42.709  54.359 -51.876  1.00  0.00     0.020 A 
BRANCH  26  29
HETATM   29  O   UNL     1     -40.379  52.957 -49.482  1.00  0.00    -0.356 OA
HETATM   30  C   UNL     1     -40.341  54.002 -48.519  1.00  0.00     0.210 C 
ENDBRANCH  26  29
ENDBRANCH  19  22
ENDBRANCH  17  18
ENDBRANCH  16  17
ENDBRANCH   1  16
BRANCH  12  31
HETATM   31  O   UNL     1     -40.178  64.776 -59.942  1.00  0.00    -0.356 OA
HETATM   32  C   UNL     1     -39.224  64.674 -58.892  1.00  0.00     0.210 C 
ENDBRANCH  12  31
TORSDOF 6
ENDMDL
