MODEL 1
REMARK VINA RESULT:      -6.7      0.000      0.000
REMARK  8 active torsions:
REMARK  status: ('A' for Active; 'I' for Inactive)
REMARK    1  A    between atoms: C_4  and  C_5 
REMARK    2  A    between atoms: C_5  and  N_6 
REMARK    3  A    between atoms: N_6  and  C_9 
REMARK    4  A    between atoms: C_9  and  C_10 
REMARK    5  A    between atoms: C_10  and  C_11 
REMARK    6  A    between atoms: C_11  and  N_12 
REMARK       I    between atoms: N_12  and  C_13 
REMARK    7  A    between atoms: C_13  and  C_14 
REMARK    8  A    between atoms: C_16  and  O_17 
ROOT
HETATM    1  C   UNL     1     -43.967  55.921 -54.710  1.00  0.00     0.047 C 
ENDROOT
BRANCH   1   2
HETATM    2  C   UNL     1     -43.444  57.321 -54.422  1.00  0.00     0.235 C 
BRANCH   2   3
HETATM    3  N   UNL     1     -42.780  57.321 -53.083  1.00  0.00    -0.067 N 
HETATM    4  H   UNL     1     -42.591  58.279 -52.762  1.00  0.00     0.277 HD
HETATM    5  H   UNL     1     -41.854  56.884 -53.200  1.00  0.00     0.277 HD
BRANCH   3   6
HETATM    6  C   UNL     1     -43.479  56.567 -51.987  1.00  0.00     0.223 C 
HETATM    7  C   UNL     1     -44.558  57.443 -51.353  1.00  0.00     0.046 C 
BRANCH   6   8
HETATM    8  C   UNL     1     -42.503  56.084 -50.959  1.00  0.00     0.032 A 
HETATM    9  S   UNL     1     -42.614  54.523 -50.243  1.00  0.00    -0.076 SA
HETATM   10  C   UNL     1     -41.204  54.851 -49.316  1.00  0.00     0.071 A 
HETATM   11  C   UNL     1     -40.657  53.825 -48.385  1.00  0.00     0.078 C 
HETATM   12  N   UNL     1     -40.678  56.040 -49.506  1.00  0.00    -0.257 NA
HETATM   13  C   UNL     1     -41.402  56.741 -50.443  1.00  0.00     0.134 A 
ENDBRANCH   6   8
ENDBRANCH   3   6
ENDBRANCH   2   3
ENDBRANCH   1   2
BRANCH   1  14
HETATM   14  C   UNL     1     -42.935  55.039 -55.415  1.00  0.00     0.124 C 
BRANCH  14  15
HETATM   15  N   UNL     1     -42.385  53.943 -54.636  1.00  0.00    -0.357 N 
HETATM   16  C   UNL     1     -41.178  54.029 -53.965  1.00  0.00     0.251 C 
HETATM   17  O   UNL     1     -40.604  55.087 -53.735  1.00  0.00    -0.268 OA
HETATM   18  H   UNL     1     -42.641  53.011 -54.951  1.00  0.00     0.162 HD
BRANCH  16  19
HETATM   19  C   UNL     1     -40.601  52.743 -53.506  1.00  0.00     0.034 A 
HETATM   20  C   UNL     1     -40.539  51.675 -54.407  1.00  0.00     0.053 A 
HETATM   21  C   UNL     1     -40.001  50.465 -53.982  1.00  0.00     0.066 A 
HETATM   22  C   UNL     1     -39.509  50.316 -52.689  1.00  0.00     0.036 A 
HETATM   23  C   UNL     1     -39.555  51.387 -51.797  1.00  0.00     0.004 A 
HETATM   24  C   UNL     1     -40.104  52.605 -52.202  1.00  0.00     0.017 A 
BRANCH  21  25
HETATM   25  O   UNL     1     -39.934  49.384 -54.808  1.00  0.00    -0.361 OA
HETATM   26  H   UNL     1     -39.728  49.674 -55.712  1.00  0.00     0.217 HD
ENDBRANCH  21  25
ENDBRANCH  16  19
ENDBRANCH  14  15
ENDBRANCH   1  14
TORSDOF 8
ENDMDL
MODEL 2
REMARK VINA RESULT:      -6.7      2.879      5.212
REMARK  8 active torsions:
REMARK  status: ('A' for Active; 'I' for Inactive)
REMARK    1  A    between atoms: C_4  and  C_5 
REMARK    2  A    between atoms: C_5  and  N_6 
REMARK    3  A    between atoms: N_6  and  C_9 
REMARK    4  A    between atoms: C_9  and  C_10 
REMARK    5  A    between atoms: C_10  and  C_11 
REMARK    6  A    between atoms: C_11  and  N_12 
REMARK       I    between atoms: N_12  and  C_13 
REMARK    7  A    between atoms: C_13  and  C_14 
REMARK    8  A    between atoms: C_16  and  O_17 
ROOT
HETATM    1  C   UNL     1     -42.999  55.463 -51.829  1.00  0.00     0.047 C 
ENDROOT
BRANCH   1   2
HETATM    2  C   UNL     1     -43.316  56.557 -52.838  1.00  0.00     0.235 C 
BRANCH   2   3
HETATM    3  N   UNL     1     -42.549  56.293 -54.093  1.00  0.00    -0.067 N 
HETATM    4  H   UNL     1     -41.783  55.627 -53.927  1.00  0.00     0.277 HD
HETATM    5  H   UNL     1     -42.090  57.176 -54.364  1.00  0.00     0.277 HD
BRANCH   3   6
HETATM    6  C   UNL     1     -43.345  55.836 -55.283  1.00  0.00     0.223 C 
HETATM    7  C   UNL     1     -43.174  54.331 -55.482  1.00  0.00     0.046 C 
BRANCH   6   8
HETATM    8  C   UNL     1     -42.953  56.592 -56.515  1.00  0.00     0.032 A 
HETATM    9  S   UNL     1     -43.131  55.935 -58.096  1.00  0.00    -0.076 SA
HETATM   10  C   UNL     1     -42.504  57.388 -58.767  1.00  0.00     0.071 A 
HETATM   11  C   UNL     1     -42.375  57.544 -60.243  1.00  0.00     0.078 C 
HETATM   12  N   UNL     1     -42.171  58.308 -57.889  1.00  0.00    -0.257 NA
HETATM   13  C   UNL     1     -42.431  57.868 -56.611  1.00  0.00     0.134 A 
ENDBRANCH   6   8
ENDBRANCH   3   6
ENDBRANCH   2   3
ENDBRANCH   1   2
BRANCH   1  14
HETATM   14  C   UNL     1     -41.508  55.384 -51.493  1.00  0.00     0.124 C 
BRANCH  14  15
HETATM   15  N   UNL     1     -40.875  54.089 -51.675  1.00  0.00    -0.357 N 
HETATM   16  C   UNL     1     -40.427  53.637 -52.903  1.00  0.00     0.251 C 
HETATM   17  O   UNL     1     -40.268  54.364 -53.876  1.00  0.00    -0.268 OA
HETATM   18  H   UNL     1     -41.169  53.364 -51.026  1.00  0.00     0.162 HD
BRANCH  16  19
HETATM   19  C   UNL     1     -40.120  52.189 -52.986  1.00  0.00     0.034 A 
HETATM   20  C   UNL     1     -39.740  51.516 -51.821  1.00  0.00     0.053 A 
HETATM   21  C   UNL     1     -39.448  50.158 -51.891  1.00  0.00     0.066 A 
HETATM   22  C   UNL     1     -39.550  49.467 -53.095  1.00  0.00     0.036 A 
HETATM   23  C   UNL     1     -39.946  50.136 -54.253  1.00  0.00     0.004 A 
HETATM   24  C   UNL     1     -40.230  51.501 -54.203  1.00  0.00     0.017 A 
BRANCH  21  25
HETATM   25  O   UNL     1     -39.052  49.454 -50.794  1.00  0.00    -0.361 OA
HETATM   26  H   UNL     1     -38.955  50.055 -50.037  1.00  0.00     0.217 HD
ENDBRANCH  21  25
ENDBRANCH  16  19
ENDBRANCH  14  15
ENDBRANCH   1  14
TORSDOF 8
ENDMDL
MODEL 3
REMARK VINA RESULT:      -6.6      3.818      6.410
REMARK  8 active torsions:
REMARK  status: ('A' for Active; 'I' for Inactive)
REMARK    1  A    between atoms: C_4  and  C_5 
REMARK    2  A    between atoms: C_5  and  N_6 
REMARK    3  A    between atoms: N_6  and  C_9 
REMARK    4  A    between atoms: C_9  and  C_10 
REMARK    5  A    between atoms: C_10  and  C_11 
REMARK    6  A    between atoms: C_11  and  N_12 
REMARK       I    between atoms: N_12  and  C_13 
REMARK    7  A    between atoms: C_13  and  C_14 
REMARK    8  A    between atoms: C_16  and  O_17 
ROOT
HETATM    1  C   UNL     1     -43.628  56.571 -54.362  1.00  0.00     0.047 C 
ENDROOT
BRANCH   1   2
HETATM    2  C   UNL     1     -43.552  57.131 -55.775  1.00  0.00     0.235 C 
BRANCH   2   3
HETATM    3  N   UNL     1     -43.449  55.993 -56.739  1.00  0.00    -0.067 N 
HETATM    4  H   UNL     1     -44.327  55.460 -56.780  1.00  0.00     0.277 HD
HETATM    5  H   UNL     1     -42.747  55.337 -56.365  1.00  0.00     0.277 HD
BRANCH   3   6
HETATM    6  C   UNL     1     -43.020  56.335 -58.138  1.00  0.00     0.223 C 
HETATM    7  C   UNL     1     -42.554  57.789 -58.203  1.00  0.00     0.046 C 
BRANCH   6   8
HETATM    8  C   UNL     1     -44.121  56.076 -59.118  1.00  0.00     0.032 A 
HETATM    9  S   UNL     1     -45.481  57.120 -59.276  1.00  0.00    -0.076 SA
HETATM   10  C   UNL     1     -46.105  56.115 -60.523  1.00  0.00     0.071 A 
HETATM   11  C   UNL     1     -47.385  56.460 -61.200  1.00  0.00     0.078 C 
HETATM   12  N   UNL     1     -45.369  55.064 -60.811  1.00  0.00    -0.257 NA
HETATM   13  C   UNL     1     -44.239  55.040 -60.026  1.00  0.00     0.134 A 
ENDBRANCH   6   8
ENDBRANCH   3   6
ENDBRANCH   2   3
ENDBRANCH   1   2
BRANCH   1  14
HETATM   14  C   UNL     1     -43.815  55.052 -54.338  1.00  0.00     0.124 C 
BRANCH  14  15
HETATM   15  N   UNL     1     -42.765  54.285 -53.691  1.00  0.00    -0.357 N 
HETATM   16  C   UNL     1     -41.658  53.804 -54.368  1.00  0.00     0.251 C 
HETATM   17  O   UNL     1     -41.319  54.197 -55.478  1.00  0.00    -0.268 OA
HETATM   18  H   UNL     1     -43.059  53.730 -52.891  1.00  0.00     0.162 HD
BRANCH  16  19
HETATM   19  C   UNL     1     -40.865  52.772 -53.659  1.00  0.00     0.034 A 
HETATM   20  C   UNL     1     -40.558  51.584 -54.330  1.00  0.00     0.053 A 
HETATM   21  C   UNL     1     -39.815  50.610 -53.671  1.00  0.00     0.066 A 
HETATM   22  C   UNL     1     -39.361  50.815 -52.371  1.00  0.00     0.036 A 
HETATM   23  C   UNL     1     -39.653  52.007 -51.710  1.00  0.00     0.004 A 
HETATM   24  C   UNL     1     -40.409  52.990 -52.351  1.00  0.00     0.017 A 
BRANCH  21  25
HETATM   25  O   UNL     1     -39.505  49.424 -54.265  1.00  0.00    -0.361 OA
HETATM   26  H   UNL     1     -38.717  49.533 -54.822  1.00  0.00     0.217 HD
ENDBRANCH  21  25
ENDBRANCH  16  19
ENDBRANCH  14  15
ENDBRANCH   1  14
TORSDOF 8
ENDMDL
MODEL 4
REMARK VINA RESULT:      -6.6      2.181      3.335
REMARK  8 active torsions:
REMARK  status: ('A' for Active; 'I' for Inactive)
REMARK    1  A    between atoms: C_4  and  C_5 
REMARK    2  A    between atoms: C_5  and  N_6 
REMARK    3  A    between atoms: N_6  and  C_9 
REMARK    4  A    between atoms: C_9  and  C_10 
REMARK    5  A    between atoms: C_10  and  C_11 
REMARK    6  A    between atoms: C_11  and  N_12 
REMARK       I    between atoms: N_12  and  C_13 
REMARK    7  A    between atoms: C_13  and  C_14 
REMARK    8  A    between atoms: C_16  and  O_17 
ROOT
HETATM    1  C   UNL     1     -43.038  55.314 -51.373  1.00  0.00     0.047 C 
ENDROOT
BRANCH   1   2
HETATM    2  C   UNL     1     -43.517  55.832 -52.722  1.00  0.00     0.235 C 
BRANCH   2   3
HETATM    3  N   UNL     1     -44.286  57.096 -52.508  1.00  0.00    -0.067 N 
HETATM    4  H   UNL     1     -44.381  57.308 -51.507  1.00  0.00     0.277 HD
HETATM    5  H   UNL     1     -45.246  56.931 -52.845  1.00  0.00     0.277 HD
BRANCH   3   6
HETATM    6  C   UNL     1     -43.780  58.318 -53.220  1.00  0.00     0.223 C 
HETATM    7  C   UNL     1     -43.850  58.110 -54.732  1.00  0.00     0.046 C 
BRANCH   6   8
HETATM    8  C   UNL     1     -42.389  58.658 -52.785  1.00  0.00     0.032 A 
HETATM    9  S   UNL     1     -41.995  59.017 -51.148  1.00  0.00    -0.076 SA
HETATM   10  C   UNL     1     -40.349  59.231 -51.594  1.00  0.00     0.071 A 
HETATM   11  C   UNL     1     -39.328  59.578 -50.567  1.00  0.00     0.078 C 
HETATM   12  N   UNL     1     -40.092  59.060 -52.872  1.00  0.00    -0.257 NA
HETATM   13  C   UNL     1     -41.241  58.726 -53.552  1.00  0.00     0.134 A 
ENDBRANCH   6   8
ENDBRANCH   3   6
ENDBRANCH   2   3
ENDBRANCH   1   2
BRANCH   1  14
HETATM   14  C   UNL     1     -41.512  55.291 -51.258  1.00  0.00     0.124 C 
BRANCH  14  15
HETATM   15  N   UNL     1     -40.866  54.017 -51.520  1.00  0.00    -0.357 N 
HETATM   16  C   UNL     1     -40.472  53.620 -52.785  1.00  0.00     0.251 C 
HETATM   17  O   UNL     1     -40.374  54.386 -53.736  1.00  0.00    -0.268 OA
HETATM   18  H   UNL     1     -41.116  53.261 -50.887  1.00  0.00     0.162 HD
BRANCH  16  19
HETATM   19  C   UNL     1     -40.144  52.182 -52.939  1.00  0.00     0.034 A 
HETATM   20  C   UNL     1     -39.747  51.460 -51.809  1.00  0.00     0.053 A 
HETATM   21  C   UNL     1     -39.436  50.111 -51.946  1.00  0.00     0.066 A 
HETATM   22  C   UNL     1     -39.535  49.477 -53.180  1.00  0.00     0.036 A 
HETATM   23  C   UNL     1     -39.946  50.194 -54.303  1.00  0.00     0.004 A 
HETATM   24  C   UNL     1     -40.250  51.551 -54.187  1.00  0.00     0.017 A 
BRANCH  21  25
HETATM   25  O   UNL     1     -39.024  49.362 -50.885  1.00  0.00    -0.361 OA
HETATM   26  H   UNL     1     -38.071  49.490 -50.745  1.00  0.00     0.217 HD
ENDBRANCH  21  25
ENDBRANCH  16  19
ENDBRANCH  14  15
ENDBRANCH   1  14
TORSDOF 8
ENDMDL
MODEL 5
REMARK VINA RESULT:      -6.3      2.480      3.997
REMARK  8 active torsions:
REMARK  status: ('A' for Active; 'I' for Inactive)
REMARK    1  A    between atoms: C_4  and  C_5 
REMARK    2  A    between atoms: C_5  and  N_6 
REMARK    3  A    between atoms: N_6  and  C_9 
REMARK    4  A    between atoms: C_9  and  C_10 
REMARK    5  A    between atoms: C_10  and  C_11 
REMARK    6  A    between atoms: C_11  and  N_12 
REMARK       I    between atoms: N_12  and  C_13 
REMARK    7  A    between atoms: C_13  and  C_14 
REMARK    8  A    between atoms: C_16  and  O_17 
ROOT
HETATM    1  C   UNL     1     -43.358  55.205 -51.679  1.00  0.00     0.047 C 
ENDROOT
BRANCH   1   2
HETATM    2  C   UNL     1     -43.893  56.393 -50.892  1.00  0.00     0.235 C 
BRANCH   2   3
HETATM    3  N   UNL     1     -42.837  57.449 -50.838  1.00  0.00    -0.067 N 
HETATM    4  H   UNL     1     -41.968  57.129 -51.282  1.00  0.00     0.277 HD
HETATM    5  H   UNL     1     -42.600  57.594 -49.845  1.00  0.00     0.277 HD
BRANCH   3   6
HETATM    6  C   UNL     1     -43.205  58.796 -51.395  1.00  0.00     0.223 C 
HETATM    7  C   UNL     1     -44.717  59.000 -51.318  1.00  0.00     0.046 C 
BRANCH   6   8
HETATM    8  C   UNL     1     -42.709  58.950 -52.800  1.00  0.00     0.032 A 
HETATM    9  S   UNL     1     -43.529  58.263 -54.149  1.00  0.00    -0.076 SA
HETATM   10  C   UNL     1     -42.346  58.927 -55.203  1.00  0.00     0.071 A 
HETATM   11  C   UNL     1     -42.445  58.720 -56.675  1.00  0.00     0.078 C 
HETATM   12  N   UNL     1     -41.392  59.609 -54.609  1.00  0.00    -0.257 NA
HETATM   13  C   UNL     1     -41.596  59.635 -53.248  1.00  0.00     0.134 A 
ENDBRANCH   6   8
ENDBRANCH   3   6
ENDBRANCH   2   3
ENDBRANCH   1   2
BRANCH   1  14
HETATM   14  C   UNL     1     -41.845  55.274 -51.896  1.00  0.00     0.124 C 
BRANCH  14  15
HETATM   15  N   UNL     1     -41.145  54.002 -51.962  1.00  0.00    -0.357 N 
HETATM   16  C   UNL     1     -40.536  53.538 -53.114  1.00  0.00     0.251 C 
HETATM   17  O   UNL     1     -40.288  54.247 -54.082  1.00  0.00    -0.268 OA
HETATM   18  H   UNL     1     -41.489  53.281 -51.333  1.00  0.00     0.162 HD
BRANCH  16  19
HETATM   19  C   UNL     1     -40.166  52.103 -53.117  1.00  0.00     0.034 A 
HETATM   20  C   UNL     1     -39.765  51.511 -51.915  1.00  0.00     0.053 A 
HETATM   21  C   UNL     1     -39.415  50.165 -51.909  1.00  0.00     0.066 A 
HETATM   22  C   UNL     1     -39.479  49.405 -53.074  1.00  0.00     0.036 A 
HETATM   23  C   UNL     1     -39.895  49.992 -54.268  1.00  0.00     0.004 A 
HETATM   24  C   UNL     1     -40.238  51.345 -54.294  1.00  0.00     0.017 A 
BRANCH  21  25
HETATM   25  O   UNL     1     -38.996  49.540 -50.774  1.00  0.00    -0.361 OA
HETATM   26  H   UNL     1     -39.490  49.882 -50.011  1.00  0.00     0.217 HD
ENDBRANCH  21  25
ENDBRANCH  16  19
ENDBRANCH  14  15
ENDBRANCH   1  14
TORSDOF 8
ENDMDL
MODEL 6
REMARK VINA RESULT:      -6.1      2.174      2.839
REMARK  8 active torsions:
REMARK  status: ('A' for Active; 'I' for Inactive)
REMARK    1  A    between atoms: C_4  and  C_5 
REMARK    2  A    between atoms: C_5  and  N_6 
REMARK    3  A    between atoms: N_6  and  C_9 
REMARK    4  A    between atoms: C_9  and  C_10 
REMARK    5  A    between atoms: C_10  and  C_11 
REMARK    6  A    between atoms: C_11  and  N_12 
REMARK       I    between atoms: N_12  and  C_13 
REMARK    7  A    between atoms: C_13  and  C_14 
REMARK    8  A    between atoms: C_16  and  O_17 
ROOT
HETATM    1  C   UNL     1     -42.565  57.433 -55.213  1.00  0.00     0.047 C 
ENDROOT
BRANCH   1   2
HETATM    2  C   UNL     1     -44.012  57.290 -54.763  1.00  0.00     0.235 C 
BRANCH   2   3
HETATM    3  N   UNL     1     -44.046  56.501 -53.494  1.00  0.00    -0.067 N 
HETATM    4  H   UNL     1     -43.235  55.874 -53.424  1.00  0.00     0.277 HD
HETATM    5  H   UNL     1     -44.869  55.882 -53.540  1.00  0.00     0.277 HD
BRANCH   3   6
HETATM    6  C   UNL     1     -44.167  57.286 -52.218  1.00  0.00     0.223 C 
HETATM    7  C   UNL     1     -44.958  58.570 -52.465  1.00  0.00     0.046 C 
BRANCH   6   8
HETATM    8  C   UNL     1     -42.818  57.586 -51.640  1.00  0.00     0.032 A 
HETATM    9  S   UNL     1     -42.069  59.128 -51.795  1.00  0.00    -0.076 SA
HETATM   10  C   UNL     1     -40.721  58.561 -50.893  1.00  0.00     0.071 A 
HETATM   11  C   UNL     1     -39.576  59.466 -50.597  1.00  0.00     0.078 C 
HETATM   12  N   UNL     1     -40.801  57.308 -50.501  1.00  0.00    -0.257 NA
HETATM   13  C   UNL     1     -41.991  56.752 -50.913  1.00  0.00     0.134 A 
ENDBRANCH   6   8
ENDBRANCH   3   6
ENDBRANCH   2   3
ENDBRANCH   1   2
BRANCH   1  14
HETATM   14  C   UNL     1     -42.107  56.278 -56.107  1.00  0.00     0.124 C 
BRANCH  14  15
HETATM   15  N   UNL     1     -41.352  55.222 -55.457  1.00  0.00    -0.357 N 
HETATM   16  C   UNL     1     -41.947  54.098 -54.912  1.00  0.00     0.251 C 
HETATM   17  O   UNL     1     -43.097  53.753 -55.157  1.00  0.00    -0.268 OA
HETATM   18  H   UNL     1     -40.487  55.514 -55.010  1.00  0.00     0.162 HD
BRANCH  16  19
HETATM   19  C   UNL     1     -41.097  53.293 -54.002  1.00  0.00     0.034 A 
HETATM   20  C   UNL     1     -40.888  53.751 -52.698  1.00  0.00     0.053 A 
HETATM   21  C   UNL     1     -40.090  53.003 -51.839  1.00  0.00     0.066 A 
HETATM   22  C   UNL     1     -39.521  51.803 -52.257  1.00  0.00     0.036 A 
HETATM   23  C   UNL     1     -39.744  51.338 -53.553  1.00  0.00     0.004 A 
HETATM   24  C   UNL     1     -40.532  52.084 -54.431  1.00  0.00     0.017 A 
BRANCH  21  25
HETATM   25  O   UNL     1     -39.834  53.410 -50.565  1.00  0.00    -0.361 OA
HETATM   26  H   UNL     1     -40.384  52.907 -49.943  1.00  0.00     0.217 HD
ENDBRANCH  21  25
ENDBRANCH  16  19
ENDBRANCH  14  15
ENDBRANCH   1  14
TORSDOF 8
ENDMDL
MODEL 7
REMARK VINA RESULT:      -6.0      2.315      3.147
REMARK  8 active torsions:
REMARK  status: ('A' for Active; 'I' for Inactive)
REMARK    1  A    between atoms: C_4  and  C_5 
REMARK    2  A    between atoms: C_5  and  N_6 
REMARK    3  A    between atoms: N_6  and  C_9 
REMARK    4  A    between atoms: C_9  and  C_10 
REMARK    5  A    between atoms: C_10  and  C_11 
REMARK    6  A    between atoms: C_11  and  N_12 
REMARK       I    between atoms: N_12  and  C_13 
REMARK    7  A    between atoms: C_13  and  C_14 
REMARK    8  A    between atoms: C_16  and  O_17 
ROOT
HETATM    1  C   UNL     1     -43.500  55.906 -55.301  1.00  0.00     0.047 C 
ENDROOT
BRANCH   1   2
HETATM    2  C   UNL     1     -43.163  56.342 -53.882  1.00  0.00     0.235 C 
BRANCH   2   3
HETATM    3  N   UNL     1     -41.940  57.200 -53.919  1.00  0.00    -0.067 N 
HETATM    4  H   UNL     1     -42.149  58.129 -54.304  1.00  0.00     0.277 HD
HETATM    5  H   UNL     1     -41.283  56.768 -54.587  1.00  0.00     0.277 HD
BRANCH   3   6
HETATM    6  C   UNL     1     -41.195  57.364 -52.624  1.00  0.00     0.223 C 
HETATM    7  C   UNL     1     -41.427  56.148 -51.728  1.00  0.00     0.046 C 
BRANCH   6   8
HETATM    8  C   UNL     1     -41.593  58.630 -51.931  1.00  0.00     0.032 A 
HETATM    9  S   UNL     1     -42.555  59.837 -52.693  1.00  0.00    -0.076 SA
HETATM   10  C   UNL     1     -42.501  60.782 -51.258  1.00  0.00     0.071 A 
HETATM   11  C   UNL     1     -43.208  62.091 -51.190  1.00  0.00     0.078 C 
HETATM   12  N   UNL     1     -41.811  60.255 -50.271  1.00  0.00    -0.257 NA
HETATM   13  C   UNL     1     -41.301  59.031 -50.641  1.00  0.00     0.134 A 
ENDBRANCH   6   8
ENDBRANCH   3   6
ENDBRANCH   2   3
ENDBRANCH   1   2
BRANCH   1  14
HETATM   14  C   UNL     1     -42.681  54.696 -55.756  1.00  0.00     0.124 C 
BRANCH  14  15
HETATM   15  N   UNL     1     -42.120  53.866 -54.704  1.00  0.00    -0.357 N 
HETATM   16  C   UNL     1     -40.761  53.774 -54.464  1.00  0.00     0.251 C 
HETATM   17  O   UNL     1     -39.939  54.565 -54.909  1.00  0.00    -0.268 OA
HETATM   18  H   UNL     1     -42.660  53.038 -54.466  1.00  0.00     0.162 HD
BRANCH  16  19
HETATM   19  C   UNL     1     -40.332  52.649 -53.599  1.00  0.00     0.034 A 
HETATM   20  C   UNL     1     -40.046  51.417 -54.193  1.00  0.00     0.053 A 
HETATM   21  C   UNL     1     -39.644  50.356 -53.388  1.00  0.00     0.066 A 
HETATM   22  C   UNL     1     -39.507  50.516 -52.012  1.00  0.00     0.036 A 
HETATM   23  C   UNL     1     -39.776  51.750 -51.422  1.00  0.00     0.004 A 
HETATM   24  C   UNL     1     -40.192  52.822 -52.214  1.00  0.00     0.017 A 
BRANCH  21  25
HETATM   25  O   UNL     1     -39.373  49.127 -53.908  1.00  0.00    -0.361 OA
HETATM   26  H   UNL     1     -39.338  48.470 -53.194  1.00  0.00     0.217 HD
ENDBRANCH  21  25
ENDBRANCH  16  19
ENDBRANCH  14  15
ENDBRANCH   1  14
TORSDOF 8
ENDMDL
MODEL 8
REMARK VINA RESULT:      -6.0      2.234      2.687
REMARK  8 active torsions:
REMARK  status: ('A' for Active; 'I' for Inactive)
REMARK    1  A    between atoms: C_4  and  C_5 
REMARK    2  A    between atoms: C_5  and  N_6 
REMARK    3  A    between atoms: N_6  and  C_9 
REMARK    4  A    between atoms: C_9  and  C_10 
REMARK    5  A    between atoms: C_10  and  C_11 
REMARK    6  A    between atoms: C_11  and  N_12 
REMARK       I    between atoms: N_12  and  C_13 
REMARK    7  A    between atoms: C_13  and  C_14 
REMARK    8  A    between atoms: C_16  and  O_17 
ROOT
HETATM    1  C   UNL     1     -44.183  55.982 -54.349  1.00  0.00     0.047 C 
ENDROOT
BRANCH   1   2
HETATM    2  C   UNL     1     -43.866  57.455 -54.132  1.00  0.00     0.235 C 
BRANCH   2   3
HETATM    3  N   UNL     1     -43.775  57.718 -52.664  1.00  0.00    -0.067 N 
HETATM    4  H   UNL     1     -43.172  57.028 -52.199  1.00  0.00     0.277 HD
HETATM    5  H   UNL     1     -44.716  57.570 -52.268  1.00  0.00     0.277 HD
BRANCH   3   6
HETATM    6  C   UNL     1     -43.345  59.098 -52.254  1.00  0.00     0.223 C 
HETATM    7  C   UNL     1     -43.810  60.121 -53.290  1.00  0.00     0.046 C 
BRANCH   6   8
HETATM    8  C   UNL     1     -41.863  59.164 -52.057  1.00  0.00     0.032 A 
HETATM    9  S   UNL     1     -41.147  59.404 -50.509  1.00  0.00    -0.076 SA
HETATM   10  C   UNL     1     -39.586  59.320 -51.221  1.00  0.00     0.071 A 
HETATM   11  C   UNL     1     -38.364  59.447 -50.379  1.00  0.00     0.078 C 
HETATM   12  N   UNL     1     -39.577  59.135 -52.523  1.00  0.00    -0.257 NA
HETATM   13  C   UNL     1     -40.863  59.035 -53.002  1.00  0.00     0.134 A 
ENDBRANCH   6   8
ENDBRANCH   3   6
ENDBRANCH   2   3
ENDBRANCH   1   2
BRANCH   1  14
HETATM   14  C   UNL     1     -43.027  55.219 -55.000  1.00  0.00     0.124 C 
BRANCH  14  15
HETATM   15  N   UNL     1     -42.330  54.263 -54.156  1.00  0.00    -0.357 N 
HETATM   16  C   UNL     1     -40.962  54.070 -54.210  1.00  0.00     0.251 C 
HETATM   17  O   UNL     1     -40.188  54.850 -54.752  1.00  0.00    -0.268 OA
HETATM   18  H   UNL     1     -42.872  53.450 -53.877  1.00  0.00     0.162 HD
BRANCH  16  19
HETATM   19  C   UNL     1     -40.454  52.847 -53.544  1.00  0.00     0.034 A 
HETATM   20  C   UNL     1     -40.259  51.696 -54.313  1.00  0.00     0.053 A 
HETATM   21  C   UNL     1     -39.785  50.544 -53.695  1.00  0.00     0.066 A 
HETATM   22  C   UNL     1     -39.486  50.533 -52.336  1.00  0.00     0.036 A 
HETATM   23  C   UNL     1     -39.666  51.687 -51.573  1.00  0.00     0.004 A 
HETATM   24  C   UNL     1     -40.153  52.848 -52.174  1.00  0.00     0.017 A 
BRANCH  21  25
HETATM   25  O   UNL     1     -39.596  49.387 -54.389  1.00  0.00    -0.361 OA
HETATM   26  H   UNL     1     -40.361  48.802 -54.265  1.00  0.00     0.217 HD
ENDBRANCH  21  25
ENDBRANCH  16  19
ENDBRANCH  14  15
ENDBRANCH   1  14
TORSDOF 8
ENDMDL
MODEL 9
REMARK VINA RESULT:      -5.9      3.991      6.052
REMARK  8 active torsions:
REMARK  status: ('A' for Active; 'I' for Inactive)
REMARK    1  A    between atoms: C_4  and  C_5 
REMARK    2  A    between atoms: C_5  and  N_6 
REMARK    3  A    between atoms: N_6  and  C_9 
REMARK    4  A    between atoms: C_9  and  C_10 
REMARK    5  A    between atoms: C_10  and  C_11 
REMARK    6  A    between atoms: C_11  and  N_12 
REMARK       I    between atoms: N_12  and  C_13 
REMARK    7  A    between atoms: C_13  and  C_14 
REMARK    8  A    between atoms: C_16  and  O_17 
ROOT
HETATM    1  C   UNL     1     -42.213  55.617 -55.793  1.00  0.00     0.047 C 
ENDROOT
BRANCH   1   2
HETATM    2  C   UNL     1     -43.170  55.877 -56.948  1.00  0.00     0.235 C 
BRANCH   2   3
HETATM    3  N   UNL     1     -42.405  56.480 -58.082  1.00  0.00    -0.067 N 
HETATM    4  H   UNL     1     -42.127  55.764 -58.765  1.00  0.00     0.277 HD
HETATM    5  H   UNL     1     -41.522  56.846 -57.695  1.00  0.00     0.277 HD
BRANCH   3   6
HETATM    6  C   UNL     1     -43.064  57.618 -58.808  1.00  0.00     0.223 C 
HETATM    7  C   UNL     1     -43.089  57.338 -60.310  1.00  0.00     0.046 C 
BRANCH   6   8
HETATM    8  C   UNL     1     -42.379  58.916 -58.511  1.00  0.00     0.032 A 
HETATM    9  S   UNL     1     -42.061  60.091 -59.727  1.00  0.00    -0.076 SA
HETATM   10  C   UNL     1     -41.349  61.117 -58.547  1.00  0.00     0.071 A 
HETATM   11  C   UNL     1     -40.813  62.452 -58.931  1.00  0.00     0.078 C 
HETATM   12  N   UNL     1     -41.332  60.631 -57.325  1.00  0.00    -0.257 NA
HETATM   13  C   UNL     1     -41.922  59.388 -57.295  1.00  0.00     0.134 A 
ENDBRANCH   6   8
ENDBRANCH   3   6
ENDBRANCH   2   3
ENDBRANCH   1   2
BRANCH   1  14
HETATM   14  C   UNL     1     -42.918  55.048 -54.560  1.00  0.00     0.124 C 
BRANCH  14  15
HETATM   15  N   UNL     1     -42.353  53.833 -53.999  1.00  0.00    -0.357 N 
HETATM   16  C   UNL     1     -41.149  53.808 -53.318  1.00  0.00     0.251 C 
HETATM   17  O   UNL     1     -40.593  54.811 -52.888  1.00  0.00    -0.268 OA
HETATM   18  H   UNL     1     -42.594  52.974 -54.486  1.00  0.00     0.162 HD
BRANCH  16  19
HETATM   19  C   UNL     1     -40.553  52.467 -53.107  1.00  0.00     0.034 A 
HETATM   20  C   UNL     1     -40.522  51.571 -54.180  1.00  0.00     0.053 A 
HETATM   21  C   UNL     1     -39.966  50.311 -53.990  1.00  0.00     0.066 A 
HETATM   22  C   UNL     1     -39.428  49.945 -52.759  1.00  0.00     0.036 A 
HETATM   23  C   UNL     1     -39.445  50.846 -51.695  1.00  0.00     0.004 A 
HETATM   24  C   UNL     1     -40.011  52.110 -51.865  1.00  0.00     0.017 A 
BRANCH  21  25
HETATM   25  O   UNL     1     -39.926  49.388 -54.992  1.00  0.00    -0.361 OA
HETATM   26  H   UNL     1     -39.423  49.742 -55.743  1.00  0.00     0.217 HD
ENDBRANCH  21  25
ENDBRANCH  16  19
ENDBRANCH  14  15
ENDBRANCH   1  14
TORSDOF 8
ENDMDL
MODEL 10
REMARK VINA RESULT:      -5.9      2.077      2.828
REMARK  8 active torsions:
REMARK  status: ('A' for Active; 'I' for Inactive)
REMARK    1  A    between atoms: C_4  and  C_5 
REMARK    2  A    between atoms: C_5  and  N_6 
REMARK    3  A    between atoms: N_6  and  C_9 
REMARK    4  A    between atoms: C_9  and  C_10 
REMARK    5  A    between atoms: C_10  and  C_11 
REMARK    6  A    between atoms: C_11  and  N_12 
REMARK       I    between atoms: N_12  and  C_13 
REMARK    7  A    between atoms: C_13  and  C_14 
REMARK    8  A    between atoms: C_16  and  O_17 
ROOT
HETATM    1  C   UNL     1     -42.488  57.141 -56.625  1.00  0.00     0.047 C 
ENDROOT
BRANCH   1   2
HETATM    2  C   UNL     1     -43.815  57.876 -56.501  1.00  0.00     0.235 C 
BRANCH   2   3
HETATM    3  N   UNL     1     -44.624  57.232 -55.423  1.00  0.00    -0.067 N 
HETATM    4  H   UNL     1     -44.187  56.360 -55.101  1.00  0.00     0.277 HD
HETATM    5  H   UNL     1     -45.523  56.949 -55.842  1.00  0.00     0.277 HD
BRANCH   3   6
HETATM    6  C   UNL     1     -44.953  58.084 -54.230  1.00  0.00     0.223 C 
HETATM    7  C   UNL     1     -44.864  59.564 -54.601  1.00  0.00     0.046 C 
BRANCH   6   8
HETATM    8  C   UNL     1     -44.057  57.762 -53.074  1.00  0.00     0.032 A 
HETATM    9  S   UNL     1     -42.417  58.280 -53.006  1.00  0.00    -0.076 SA
HETATM   10  C   UNL     1     -42.246  57.530 -51.469  1.00  0.00     0.071 A 
HETATM   11  C   UNL     1     -40.953  57.599 -50.734  1.00  0.00     0.078 C 
HETATM   12  N   UNL     1     -43.324  56.922 -51.025  1.00  0.00    -0.257 NA
HETATM   13  C   UNL     1     -44.357  57.057 -51.924  1.00  0.00     0.134 A 
ENDBRANCH   6   8
ENDBRANCH   3   6
ENDBRANCH   2   3
ENDBRANCH   1   2
BRANCH   1  14
HETATM   14  C   UNL     1     -42.665  55.650 -56.923  1.00  0.00     0.124 C 
BRANCH  14  15
HETATM   15  N   UNL     1     -42.025  54.729 -56.000  1.00  0.00    -0.357 N 
HETATM   16  C   UNL     1     -42.600  54.342 -54.803  1.00  0.00     0.251 C 
HETATM   17  O   UNL     1     -43.784  54.508 -54.535  1.00  0.00    -0.268 OA
HETATM   18  H   UNL     1     -41.008  54.735 -56.011  1.00  0.00     0.162 HD
BRANCH  16  19
HETATM   19  C   UNL     1     -41.695  53.680 -53.834  1.00  0.00     0.034 A 
HETATM   20  C   UNL     1     -40.874  52.642 -54.285  1.00  0.00     0.053 A 
HETATM   21  C   UNL     1     -40.023  52.014 -53.383  1.00  0.00     0.066 A 
HETATM   22  C   UNL     1     -39.967  52.419 -52.052  1.00  0.00     0.036 A 
HETATM   23  C   UNL     1     -40.774  53.466 -51.607  1.00  0.00     0.004 A 
HETATM   24  C   UNL     1     -41.643  54.099 -52.497  1.00  0.00     0.017 A 
BRANCH  21  25
HETATM   25  O   UNL     1     -39.216  50.983 -53.759  1.00  0.00    -0.361 OA
HETATM   26  H   UNL     1     -38.606  51.281 -54.454  1.00  0.00     0.217 HD
ENDBRANCH  21  25
ENDBRANCH  16  19
ENDBRANCH  14  15
ENDBRANCH   1  14
TORSDOF 8
ENDMDL
