MODEL 1
REMARK VINA RESULT:     -10.3      0.000      0.000
REMARK  6 active torsions:
REMARK  status: ('A' for Active; 'I' for Inactive)
REMARK    1  A    between atoms: C_2  and  C_3 
REMARK    2  A    between atoms: C_3  and  C_4 
REMARK    3  A    between atoms: C_6  and  N_7 
REMARK    4  A    between atoms: C_9  and  C_10 
REMARK    5  A    between atoms: C_16  and  N_17 
REMARK       I    between atoms: N_17  and  C_18 
REMARK    6  A    between atoms: C_18  and  C_19 
ROOT
HETATM    1  N   UNL     1     -42.890  56.610 -54.864  1.00  0.00    -0.044 N 
HETATM    2  N   UNL     1     -43.754  56.942 -55.864  1.00  0.00    -0.148 NA
HETATM    3  C   UNL     1     -43.356  56.184 -56.892  1.00  0.00     0.115 A 
HETATM    4  C   UNL     1     -42.280  55.337 -56.548  1.00  0.00     0.087 A 
HETATM    5  C   UNL     1     -41.999  55.612 -55.230  1.00  0.00     0.152 A 
ENDROOT
BRANCH   5   6
HETATM    6  N   UNL     1     -41.040  55.037 -54.392  1.00  0.00    -0.310 N 
HETATM    7  C   UNL     1     -41.322  53.989 -53.442  1.00  0.00     0.236 C 
HETATM    8  O   UNL     1     -42.444  53.502 -53.378  1.00  0.00    -0.272 OA
HETATM    9  H   UNL     1     -40.094  55.426 -54.445  1.00  0.00     0.170 HD
BRANCH   7  10
HETATM   10  C   UNL     1     -40.171  53.509 -52.563  1.00  0.00     0.149 C 
HETATM   11  C   UNL     1     -39.901  52.034 -52.731  1.00  0.00    -0.007 A 
HETATM   12  C   UNL     1     -40.071  51.166 -51.649  1.00  0.00     0.083 A 
HETATM   13  C   UNL     1     -39.471  51.513 -53.962  1.00  0.00     0.011 A 
HETATM   14  C   UNL     1     -39.819  49.801 -51.792  1.00  0.00     0.038 A 
HETATM   15  O   UNL     1     -40.496  51.575 -50.410  1.00  0.00    -0.310 OA
HETATM   16  C   UNL     1     -39.404  49.290 -53.021  1.00  0.00     0.003 A 
HETATM   17  C   UNL     1     -39.230  50.147 -54.106  1.00  0.00     0.001 A 
HETATM   18  C   UNL     1     -40.557  52.920 -50.146  1.00  0.00     0.083 A 
HETATM   19  C   UNL     1     -40.399  53.904 -51.125  1.00  0.00    -0.007 A 
HETATM   20  C   UNL     1     -40.784  53.276 -48.816  1.00  0.00     0.038 A 
HETATM   21  C   UNL     1     -40.446  55.256 -50.746  1.00  0.00     0.011 A 
HETATM   22  C   UNL     1     -40.662  55.610 -49.415  1.00  0.00     0.001 A 
HETATM   23  C   UNL     1     -40.835  54.620 -48.450  1.00  0.00     0.003 A 
ENDBRANCH   7  10
ENDBRANCH   5   6
BRANCH   1  24
HETATM   24  C   UNL     1     -42.971  57.259 -53.623  1.00  0.00     0.732 A 
HETATM   25  N   UNL     1     -42.054  58.071 -53.196  1.00  0.00    -0.067 NA
HETATM   26  C   UNL     1     -42.305  58.657 -51.970  1.00  0.00     0.059 A 
HETATM   27  C   UNL     1     -43.374  58.367 -51.208  1.00  0.00     0.102 A 
HETATM   28  C   UNL     1     -44.367  57.404 -51.707  1.00  0.00     0.261 A 
HETATM   29  N   UNL     1     -44.113  56.924 -52.951  1.00  0.00    -0.152 N 
HETATM   30  O   UNL     1     -45.340  57.078 -51.041  1.00  0.00    -0.268 OA
HETATM   31  H   UNL     1     -44.768  56.263 -53.358  1.00  0.00     0.187 HD
BRANCH  26  32
HETATM   32  C   UNL     1     -41.299  59.684 -51.504  1.00  0.00     0.060 C 
BRANCH  32  33
HETATM   33  C   UNL     1     -40.392  59.128 -50.402  1.00  0.00     0.002 C 
HETATM   34  C   UNL     1     -38.943  59.539 -50.610  1.00  0.00     0.005 C 
ENDBRANCH  32  33
ENDBRANCH  26  32
ENDBRANCH   1  24
BRANCH   3  35
HETATM   35  C   UNL     1     -43.990  56.248 -58.240  1.00  0.00     0.105 A 
HETATM   36  O   UNL     1     -44.850  57.235 -58.638  1.00  0.00    -0.320 OA
HETATM   37  C   UNL     1     -45.228  56.953 -59.911  1.00  0.00     0.142 A 
HETATM   38  C   UNL     1     -44.623  55.799 -60.348  1.00  0.00     0.027 A 
HETATM   39  C   UNL     1     -43.825  55.344 -59.271  1.00  0.00     0.041 A 
ENDBRANCH   3  35
TORSDOF 6
ENDMDL
MODEL 2
REMARK VINA RESULT:     -10.0      1.862      7.634
REMARK  6 active torsions:
REMARK  status: ('A' for Active; 'I' for Inactive)
REMARK    1  A    between atoms: C_2  and  C_3 
REMARK    2  A    between atoms: C_3  and  C_4 
REMARK    3  A    between atoms: C_6  and  N_7 
REMARK    4  A    between atoms: C_9  and  C_10 
REMARK    5  A    between atoms: C_16  and  N_17 
REMARK       I    between atoms: N_17  and  C_18 
REMARK    6  A    between atoms: C_18  and  C_19 
ROOT
HETATM    1  N   UNL     1     -41.219  54.890 -53.153  1.00  0.00    -0.044 N 
HETATM    2  N   UNL     1     -40.855  53.789 -52.437  1.00  0.00    -0.148 NA
HETATM    3  C   UNL     1     -40.468  52.914 -53.371  1.00  0.00     0.115 A 
HETATM    4  C   UNL     1     -40.534  53.458 -54.673  1.00  0.00     0.087 A 
HETATM    5  C   UNL     1     -41.006  54.741 -54.516  1.00  0.00     0.152 A 
ENDROOT
BRANCH   5   6
HETATM    6  N   UNL     1     -41.234  55.723 -55.482  1.00  0.00    -0.310 N 
HETATM    7  C   UNL     1     -42.544  56.179 -55.878  1.00  0.00     0.236 C 
HETATM    8  O   UNL     1     -43.542  55.749 -55.312  1.00  0.00    -0.272 OA
HETATM    9  H   UNL     1     -40.407  56.100 -55.954  1.00  0.00     0.170 HD
BRANCH   7  10
HETATM   10  C   UNL     1     -42.620  57.220 -56.990  1.00  0.00     0.149 C 
HETATM   11  C   UNL     1     -42.982  58.589 -56.466  1.00  0.00    -0.007 A 
HETATM   12  C   UNL     1     -44.174  59.196 -56.869  1.00  0.00     0.083 A 
HETATM   13  C   UNL     1     -42.133  59.272 -55.580  1.00  0.00     0.011 A 
HETATM   14  C   UNL     1     -44.515  60.464 -56.395  1.00  0.00     0.038 A 
HETATM   15  O   UNL     1     -45.073  58.608 -57.723  1.00  0.00    -0.310 OA
HETATM   16  C   UNL     1     -43.673  61.131 -55.507  1.00  0.00     0.003 A 
HETATM   17  C   UNL     1     -42.482  60.534 -55.099  1.00  0.00     0.001 A 
HETATM   18  C   UNL     1     -44.702  57.465 -58.384  1.00  0.00     0.083 A 
HETATM   19  C   UNL     1     -43.535  56.754 -58.095  1.00  0.00    -0.007 A 
HETATM   20  C   UNL     1     -45.562  57.033 -59.394  1.00  0.00     0.038 A 
HETATM   21  C   UNL     1     -43.226  55.612 -58.853  1.00  0.00     0.011 A 
HETATM   22  C   UNL     1     -44.082  55.187 -59.869  1.00  0.00     0.001 A 
HETATM   23  C   UNL     1     -45.252  55.894 -60.137  1.00  0.00     0.003 A 
ENDBRANCH   7  10
ENDBRANCH   5   6
BRANCH   1  24
HETATM   24  C   UNL     1     -41.739  56.014 -52.496  1.00  0.00     0.732 A 
HETATM   25  N   UNL     1     -41.090  57.133 -52.401  1.00  0.00    -0.067 NA
HETATM   26  C   UNL     1     -41.761  58.153 -51.754  1.00  0.00     0.059 A 
HETATM   27  C   UNL     1     -42.967  58.009 -51.178  1.00  0.00     0.102 A 
HETATM   28  C   UNL     1     -43.649  56.709 -51.265  1.00  0.00     0.261 A 
HETATM   29  N   UNL     1     -42.982  55.769 -51.983  1.00  0.00    -0.152 N 
HETATM   30  O   UNL     1     -44.731  56.512 -50.730  1.00  0.00    -0.268 OA
HETATM   31  H   UNL     1     -43.407  54.852 -52.090  1.00  0.00     0.187 HD
BRANCH  26  32
HETATM   32  C   UNL     1     -41.064  59.495 -51.726  1.00  0.00     0.060 C 
BRANCH  32  33
HETATM   33  C   UNL     1     -40.330  59.723 -50.402  1.00  0.00     0.002 C 
HETATM   34  C   UNL     1     -38.829  59.530 -50.554  1.00  0.00     0.005 C 
ENDBRANCH  32  33
ENDBRANCH  26  32
ENDBRANCH   1  24
BRANCH   3  35
HETATM   35  C   UNL     1     -40.025  51.527 -53.051  1.00  0.00     0.105 A 
HETATM   36  O   UNL     1     -39.742  51.084 -51.788  1.00  0.00    -0.320 OA
HETATM   37  C   UNL     1     -39.363  49.785 -51.891  1.00  0.00     0.142 A 
HETATM   38  C   UNL     1     -39.400  49.375 -53.201  1.00  0.00     0.027 A 
HETATM   39  C   UNL     1     -39.827  50.498 -53.951  1.00  0.00     0.041 A 
ENDBRANCH   3  35
TORSDOF 6
ENDMDL
MODEL 3
REMARK VINA RESULT:      -9.7      1.775      3.536
REMARK  6 active torsions:
REMARK  status: ('A' for Active; 'I' for Inactive)
REMARK    1  A    between atoms: C_2  and  C_3 
REMARK    2  A    between atoms: C_3  and  C_4 
REMARK    3  A    between atoms: C_6  and  N_7 
REMARK    4  A    between atoms: C_9  and  C_10 
REMARK    5  A    between atoms: C_16  and  N_17 
REMARK       I    between atoms: N_17  and  C_18 
REMARK    6  A    between atoms: C_18  and  C_19 
ROOT
HETATM    1  N   UNL     1     -42.384  57.877 -54.992  1.00  0.00    -0.044 N 
HETATM    2  N   UNL     1     -42.459  58.643 -56.116  1.00  0.00    -0.148 NA
HETATM    3  C   UNL     1     -42.586  57.749 -57.103  1.00  0.00     0.115 A 
HETATM    4  C   UNL     1     -42.641  56.423 -56.620  1.00  0.00     0.087 A 
HETATM    5  C   UNL     1     -42.525  56.522 -55.252  1.00  0.00     0.152 A 
ENDROOT
BRANCH   5   6
HETATM    6  N   UNL     1     -42.545  55.511 -54.288  1.00  0.00    -0.310 N 
HETATM    7  C   UNL     1     -41.383  54.763 -53.877  1.00  0.00     0.236 C 
HETATM    8  O   UNL     1     -40.279  55.044 -54.329  1.00  0.00    -0.272 OA
HETATM    9  H   UNL     1     -43.460  55.276 -53.892  1.00  0.00     0.170 HD
BRANCH   7  10
HETATM   10  C   UNL     1     -41.587  53.654 -52.850  1.00  0.00     0.149 C 
HETATM   11  C   UNL     1     -41.282  54.111 -51.445  1.00  0.00    -0.007 A 
HETATM   12  C   UNL     1     -40.235  53.523 -50.732  1.00  0.00     0.083 A 
HETATM   13  C   UNL     1     -42.041  55.122 -50.833  1.00  0.00     0.011 A 
HETATM   14  C   UNL     1     -39.948  53.935 -49.430  1.00  0.00     0.038 A 
HETATM   15  O   UNL     1     -39.430  52.536 -51.245  1.00  0.00    -0.310 OA
HETATM   16  C   UNL     1     -40.698  54.946 -48.833  1.00  0.00     0.003 A 
HETATM   17  C   UNL     1     -41.745  55.540 -49.536  1.00  0.00     0.001 A 
HETATM   18  C   UNL     1     -39.789  51.944 -52.429  1.00  0.00     0.083 A 
HETATM   19  C   UNL     1     -40.820  52.416 -53.244  1.00  0.00    -0.007 A 
HETATM   20  C   UNL     1     -39.063  50.809 -52.793  1.00  0.00     0.038 A 
HETATM   21  C   UNL     1     -41.132  51.718 -54.423  1.00  0.00     0.011 A 
HETATM   22  C   UNL     1     -40.412  50.578 -54.780  1.00  0.00     0.001 A 
HETATM   23  C   UNL     1     -39.375  50.125 -53.967  1.00  0.00     0.003 A 
ENDBRANCH   7  10
ENDBRANCH   5   6
BRANCH   1  24
HETATM   24  C   UNL     1     -42.189  58.484 -53.742  1.00  0.00     0.732 A 
HETATM   25  N   UNL     1     -41.196  58.180 -52.964  1.00  0.00    -0.067 NA
HETATM   26  C   UNL     1     -41.128  58.897 -51.785  1.00  0.00     0.059 A 
HETATM   27  C   UNL     1     -42.051  59.794 -51.400  1.00  0.00     0.102 A 
HETATM   28  C   UNL     1     -43.189  60.074 -52.290  1.00  0.00     0.261 A 
HETATM   29  N   UNL     1     -43.161  59.404 -53.470  1.00  0.00    -0.152 N 
HETATM   30  O   UNL     1     -44.076  60.855 -51.975  1.00  0.00    -0.268 OA
HETATM   31  H   UNL     1     -43.913  59.563 -54.134  1.00  0.00     0.187 HD
BRANCH  26  32
HETATM   32  C   UNL     1     -39.921  58.632 -50.914  1.00  0.00     0.060 C 
BRANCH  32  33
HETATM   33  C   UNL     1     -39.357  59.926 -50.319  1.00  0.00     0.002 C 
HETATM   34  C   UNL     1     -37.923  59.747 -49.848  1.00  0.00     0.005 C 
ENDBRANCH  32  33
ENDBRANCH  26  32
ENDBRANCH   1  24
BRANCH   3  35
HETATM   35  C   UNL     1     -42.654  58.133 -58.542  1.00  0.00     0.105 A 
HETATM   36  O   UNL     1     -43.708  58.793 -59.111  1.00  0.00    -0.320 OA
HETATM   37  C   UNL     1     -43.420  58.955 -60.428  1.00  0.00     0.142 A 
HETATM   38  C   UNL     1     -42.192  58.414 -60.722  1.00  0.00     0.027 A 
HETATM   39  C   UNL     1     -41.697  57.883 -59.506  1.00  0.00     0.041 A 
ENDBRANCH   3  35
TORSDOF 6
ENDMDL
MODEL 4
REMARK VINA RESULT:      -9.5      2.237      8.014
REMARK  6 active torsions:
REMARK  status: ('A' for Active; 'I' for Inactive)
REMARK    1  A    between atoms: C_2  and  C_3 
REMARK    2  A    between atoms: C_3  and  C_4 
REMARK    3  A    between atoms: C_6  and  N_7 
REMARK    4  A    between atoms: C_9  and  C_10 
REMARK    5  A    between atoms: C_16  and  N_17 
REMARK       I    between atoms: N_17  and  C_18 
REMARK    6  A    between atoms: C_18  and  C_19 
ROOT
HETATM    1  N   UNL     1     -41.139  55.238 -53.577  1.00  0.00    -0.044 N 
HETATM    2  N   UNL     1     -40.749  54.223 -52.755  1.00  0.00    -0.148 NA
HETATM    3  C   UNL     1     -40.549  53.197 -53.590  1.00  0.00     0.115 A 
HETATM    4  C   UNL     1     -40.760  53.556 -54.939  1.00  0.00     0.087 A 
HETATM    5  C   UNL     1     -41.125  54.882 -54.917  1.00  0.00     0.152 A 
ENDROOT
BRANCH   5   6
HETATM    6  N   UNL     1     -41.423  55.734 -55.983  1.00  0.00    -0.310 N 
HETATM    7  C   UNL     1     -42.761  56.113 -56.366  1.00  0.00     0.236 C 
HETATM    8  O   UNL     1     -43.720  55.737 -55.703  1.00  0.00    -0.272 OA
HETATM    9  H   UNL     1     -40.629  56.066 -56.538  1.00  0.00     0.170 HD
BRANCH   7  10
HETATM   10  C   UNL     1     -42.915  57.009 -57.591  1.00  0.00     0.149 C 
HETATM   11  C   UNL     1     -43.237  58.436 -57.218  1.00  0.00    -0.007 A 
HETATM   12  C   UNL     1     -44.454  59.000 -57.608  1.00  0.00     0.083 A 
HETATM   13  C   UNL     1     -42.326  59.215 -56.486  1.00  0.00     0.011 A 
HETATM   14  C   UNL     1     -44.760  60.320 -57.273  1.00  0.00     0.038 A 
HETATM   15  O   UNL     1     -45.413  58.320 -58.316  1.00  0.00    -0.310 OA
HETATM   16  C   UNL     1     -43.856  61.084 -56.536  1.00  0.00     0.003 A 
HETATM   17  C   UNL     1     -42.639  60.531 -56.142  1.00  0.00     0.001 A 
HETATM   18  C   UNL     1     -45.090  57.099 -58.854  1.00  0.00     0.083 A 
HETATM   19  C   UNL     1     -43.906  56.419 -58.562  1.00  0.00    -0.007 A 
HETATM   20  C   UNL     1     -46.020  56.553 -59.739  1.00  0.00     0.038 A 
HETATM   21  C   UNL     1     -43.654  55.188 -59.192  1.00  0.00     0.011 A 
HETATM   22  C   UNL     1     -44.580  54.648 -60.084  1.00  0.00     0.001 A 
HETATM   23  C   UNL     1     -45.766  55.329 -60.355  1.00  0.00     0.003 A 
ENDBRANCH   7  10
ENDBRANCH   5   6
BRANCH   1  24
HETATM   24  C   UNL     1     -41.493  56.481 -53.034  1.00  0.00     0.732 A 
HETATM   25  N   UNL     1     -42.689  56.742 -52.604  1.00  0.00    -0.067 NA
HETATM   26  C   UNL     1     -42.862  58.003 -52.065  1.00  0.00     0.059 A 
HETATM   27  C   UNL     1     -41.905  58.947 -52.045  1.00  0.00     0.102 A 
HETATM   28  C   UNL     1     -40.576  58.626 -52.588  1.00  0.00     0.261 A 
HETATM   29  N   UNL     1     -40.438  57.350 -53.028  1.00  0.00    -0.152 N 
HETATM   30  O   UNL     1     -39.679  59.457 -52.628  1.00  0.00    -0.268 OA
HETATM   31  H   UNL     1     -39.539  57.062 -53.404  1.00  0.00     0.187 HD
BRANCH  26  32
HETATM   32  C   UNL     1     -44.219  58.289 -51.463  1.00  0.00     0.060 C 
BRANCH  32  33
HETATM   33  C   UNL     1     -45.028  59.261 -52.328  1.00  0.00     0.002 C 
HETATM   34  C   UNL     1     -45.040  58.834 -53.787  1.00  0.00     0.005 C 
ENDBRANCH  32  33
ENDBRANCH  26  32
ENDBRANCH   1  24
BRANCH   3  35
HETATM   35  C   UNL     1     -40.154  51.837 -53.124  1.00  0.00     0.105 A 
HETATM   36  O   UNL     1     -39.769  51.545 -51.843  1.00  0.00    -0.320 OA
HETATM   37  C   UNL     1     -39.475  50.221 -51.801  1.00  0.00     0.142 A 
HETATM   38  C   UNL     1     -39.667  49.646 -53.034  1.00  0.00     0.027 A 
HETATM   39  C   UNL     1     -40.105  50.687 -53.888  1.00  0.00     0.041 A 
ENDBRANCH   3  35
TORSDOF 6
ENDMDL
MODEL 5
REMARK VINA RESULT:      -9.1      2.113      6.893
REMARK  6 active torsions:
REMARK  status: ('A' for Active; 'I' for Inactive)
REMARK    1  A    between atoms: C_2  and  C_3 
REMARK    2  A    between atoms: C_3  and  C_4 
REMARK    3  A    between atoms: C_6  and  N_7 
REMARK    4  A    between atoms: C_9  and  C_10 
REMARK    5  A    between atoms: C_16  and  N_17 
REMARK       I    between atoms: N_17  and  C_18 
REMARK    6  A    between atoms: C_18  and  C_19 
ROOT
HETATM    1  N   UNL     1     -41.606  55.362 -52.995  1.00  0.00    -0.044 N 
HETATM    2  N   UNL     1     -41.039  54.283 -52.385  1.00  0.00    -0.148 NA
HETATM    3  C   UNL     1     -40.839  53.419 -53.387  1.00  0.00     0.115 A 
HETATM    4  C   UNL     1     -41.227  53.950 -54.637  1.00  0.00     0.087 A 
HETATM    5  C   UNL     1     -41.706  55.212 -54.371  1.00  0.00     0.152 A 
ENDROOT
BRANCH   5   6
HETATM    6  N   UNL     1     -42.193  56.177 -55.256  1.00  0.00    -0.310 N 
HETATM    7  C   UNL     1     -43.590  56.496 -55.415  1.00  0.00     0.236 C 
HETATM    8  O   UNL     1     -44.429  55.956 -54.704  1.00  0.00    -0.272 OA
HETATM    9  H   UNL     1     -41.500  56.646 -55.847  1.00  0.00     0.170 HD
BRANCH   7  10
HETATM   10  C   UNL     1     -43.959  57.538 -56.467  1.00  0.00     0.149 C 
HETATM   11  C   UNL     1     -43.290  57.272 -57.793  1.00  0.00    -0.007 A 
HETATM   12  C   UNL     1     -42.378  58.194 -58.312  1.00  0.00     0.083 A 
HETATM   13  C   UNL     1     -43.574  56.107 -58.525  1.00  0.00     0.011 A 
HETATM   14  C   UNL     1     -41.759  57.960 -59.540  1.00  0.00     0.038 A 
HETATM   15  O   UNL     1     -42.027  59.355 -57.670  1.00  0.00    -0.310 OA
HETATM   16  C   UNL     1     -42.037  56.797 -60.256  1.00  0.00     0.003 A 
HETATM   17  C   UNL     1     -42.945  55.870 -59.748  1.00  0.00     0.001 A 
HETATM   18  C   UNL     1     -42.751  59.743 -56.571  1.00  0.00     0.083 A 
HETATM   19  C   UNL     1     -43.701  58.931 -55.949  1.00  0.00    -0.007 A 
HETATM   20  C   UNL     1     -42.495  61.028 -56.089  1.00  0.00     0.038 A 
HETATM   21  C   UNL     1     -44.414  59.435 -54.848  1.00  0.00     0.011 A 
HETATM   22  C   UNL     1     -44.164  60.723 -54.374  1.00  0.00     0.001 A 
HETATM   23  C   UNL     1     -43.202  61.518 -54.992  1.00  0.00     0.003 A 
ENDBRANCH   7  10
ENDBRANCH   5   6
BRANCH   1  24
HETATM   24  C   UNL     1     -42.010  56.467 -52.232  1.00  0.00     0.732 A 
HETATM   25  N   UNL     1     -41.183  57.386 -51.840  1.00  0.00    -0.067 NA
HETATM   26  C   UNL     1     -41.750  58.427 -51.128  1.00  0.00     0.059 A 
HETATM   27  C   UNL     1     -43.046  58.476 -50.778  1.00  0.00     0.102 A 
HETATM   28  C   UNL     1     -43.942  57.388 -51.202  1.00  0.00     0.261 A 
HETATM   29  N   UNL     1     -43.350  56.436 -51.968  1.00  0.00    -0.152 N 
HETATM   30  O   UNL     1     -45.122  57.363 -50.882  1.00  0.00    -0.268 OA
HETATM   31  H   UNL     1     -43.918  55.663 -52.303  1.00  0.00     0.187 HD
BRANCH  26  32
HETATM   32  C   UNL     1     -40.822  59.560 -50.752  1.00  0.00     0.060 C 
BRANCH  32  33
HETATM   33  C   UNL     1     -39.356  59.200 -51.014  1.00  0.00     0.002 C 
HETATM   34  C   UNL     1     -38.422  59.924 -50.058  1.00  0.00     0.005 C 
ENDBRANCH  32  33
ENDBRANCH  26  32
ENDBRANCH   1  24
BRANCH   3  35
HETATM   35  C   UNL     1     -40.275  52.055 -53.180  1.00  0.00     0.105 A 
HETATM   36  O   UNL     1     -39.857  51.572 -51.971  1.00  0.00    -0.320 OA
HETATM   37  C   UNL     1     -39.397  50.311 -52.176  1.00  0.00     0.142 A 
HETATM   38  C   UNL     1     -39.514  49.966 -53.501  1.00  0.00     0.027 A 
HETATM   39  C   UNL     1     -40.081  51.090 -54.150  1.00  0.00     0.041 A 
ENDBRANCH   3  35
TORSDOF 6
ENDMDL
MODEL 6
REMARK VINA RESULT:      -8.8      2.552      7.254
REMARK  6 active torsions:
REMARK  status: ('A' for Active; 'I' for Inactive)
REMARK    1  A    between atoms: C_2  and  C_3 
REMARK    2  A    between atoms: C_3  and  C_4 
REMARK    3  A    between atoms: C_6  and  N_7 
REMARK    4  A    between atoms: C_9  and  C_10 
REMARK    5  A    between atoms: C_16  and  N_17 
REMARK       I    between atoms: N_17  and  C_18 
REMARK    6  A    between atoms: C_18  and  C_19 
ROOT
HETATM    1  N   UNL     1     -41.382  56.015 -52.739  1.00  0.00    -0.044 N 
HETATM    2  N   UNL     1     -40.804  54.986 -52.058  1.00  0.00    -0.148 NA
HETATM    3  C   UNL     1     -40.767  53.993 -52.954  1.00  0.00     0.115 A 
HETATM    4  C   UNL     1     -41.269  54.389 -54.213  1.00  0.00     0.087 A 
HETATM    5  C   UNL     1     -41.649  55.703 -54.064  1.00  0.00     0.152 A 
ENDROOT
BRANCH   5   6
HETATM    6  N   UNL     1     -42.186  56.581 -55.009  1.00  0.00    -0.310 N 
HETATM    7  C   UNL     1     -43.595  56.702 -55.291  1.00  0.00     0.236 C 
HETATM    8  O   UNL     1     -44.410  56.060 -54.639  1.00  0.00    -0.272 OA
HETATM    9  H   UNL     1     -41.516  57.133 -55.551  1.00  0.00     0.170 HD
BRANCH   7  10
HETATM   10  C   UNL     1     -44.011  57.670 -56.394  1.00  0.00     0.149 C 
HETATM   11  C   UNL     1     -43.334  57.363 -57.708  1.00  0.00    -0.007 A 
HETATM   12  C   UNL     1     -42.465  58.296 -58.278  1.00  0.00     0.083 A 
HETATM   13  C   UNL     1     -43.570  56.151 -58.376  1.00  0.00     0.011 A 
HETATM   14  C   UNL     1     -41.839  58.025 -59.496  1.00  0.00     0.038 A 
HETATM   15  O   UNL     1     -42.163  59.503 -57.700  1.00  0.00    -0.310 OA
HETATM   16  C   UNL     1     -42.068  56.815 -60.148  1.00  0.00     0.003 A 
HETATM   17  C   UNL     1     -42.934  55.878 -59.588  1.00  0.00     0.001 A 
HETATM   18  C   UNL     1     -42.899  59.917 -56.619  1.00  0.00     0.083 A 
HETATM   19  C   UNL     1     -43.812  59.098 -55.951  1.00  0.00    -0.007 A 
HETATM   20  C   UNL     1     -42.698  61.235 -56.207  1.00  0.00     0.038 A 
HETATM   21  C   UNL     1     -44.543  59.628 -54.875  1.00  0.00     0.011 A 
HETATM   22  C   UNL     1     -44.348  60.949 -54.471  1.00  0.00     0.001 A 
HETATM   23  C   UNL     1     -43.423  61.752 -55.134  1.00  0.00     0.003 A 
ENDBRANCH   7  10
ENDBRANCH   5   6
BRANCH   1  24
HETATM   24  C   UNL     1     -41.638  57.231 -52.087  1.00  0.00     0.732 A 
HETATM   25  N   UNL     1     -42.825  57.747 -52.009  1.00  0.00    -0.067 NA
HETATM   26  C   UNL     1     -42.911  58.930 -51.300  1.00  0.00     0.059 A 
HETATM   27  C   UNL     1     -41.849  59.572 -50.784  1.00  0.00     0.102 A 
HETATM   28  C   UNL     1     -40.512  58.977 -50.936  1.00  0.00     0.261 A 
HETATM   29  N   UNL     1     -40.497  57.776 -51.568  1.00  0.00    -0.152 N 
HETATM   30  O   UNL     1     -39.507  59.534 -50.517  1.00  0.00    -0.268 OA
HETATM   31  H   UNL     1     -39.605  57.306 -51.694  1.00  0.00     0.187 HD
BRANCH  26  32
HETATM   32  C   UNL     1     -44.301  59.493 -51.109  1.00  0.00     0.060 C 
BRANCH  32  33
HETATM   33  C   UNL     1     -44.290  60.737 -50.217  1.00  0.00     0.002 C 
HETATM   34  C   UNL     1     -45.416  60.705 -49.196  1.00  0.00     0.005 C 
ENDBRANCH  32  33
ENDBRANCH  26  32
ENDBRANCH   1  24
BRANCH   3  35
HETATM   35  C   UNL     1     -40.253  52.631 -52.634  1.00  0.00     0.105 A 
HETATM   36  O   UNL     1     -39.946  52.203 -51.371  1.00  0.00    -0.320 OA
HETATM   37  C   UNL     1     -39.501  50.925 -51.475  1.00  0.00     0.142 A 
HETATM   38  C   UNL     1     -39.517  50.514 -52.786  1.00  0.00     0.027 A 
HETATM   39  C   UNL     1     -40.002  51.614 -53.535  1.00  0.00     0.041 A 
ENDBRANCH   3  35
TORSDOF 6
ENDMDL
MODEL 7
REMARK VINA RESULT:      -8.6      3.051      8.103
REMARK  6 active torsions:
REMARK  status: ('A' for Active; 'I' for Inactive)
REMARK    1  A    between atoms: C_2  and  C_3 
REMARK    2  A    between atoms: C_3  and  C_4 
REMARK    3  A    between atoms: C_6  and  N_7 
REMARK    4  A    between atoms: C_9  and  C_10 
REMARK    5  A    between atoms: C_16  and  N_17 
REMARK       I    between atoms: N_17  and  C_18 
REMARK    6  A    between atoms: C_18  and  C_19 
ROOT
HETATM    1  N   UNL     1     -42.468  55.412 -55.548  1.00  0.00    -0.044 N 
HETATM    2  N   UNL     1     -41.695  54.294 -55.451  1.00  0.00    -0.148 NA
HETATM    3  C   UNL     1     -41.570  54.107 -54.132  1.00  0.00     0.115 A 
HETATM    4  C   UNL     1     -42.294  55.063 -53.385  1.00  0.00     0.087 A 
HETATM    5  C   UNL     1     -42.882  55.890 -54.314  1.00  0.00     0.152 A 
ENDROOT
BRANCH   5   6
HETATM    6  N   UNL     1     -43.726  56.985 -54.113  1.00  0.00    -0.310 N 
HETATM    7  C   UNL     1     -43.266  58.342 -53.953  1.00  0.00     0.236 C 
HETATM    8  O   UNL     1     -42.073  58.604 -54.056  1.00  0.00    -0.272 OA
HETATM    9  H   UNL     1     -44.727  56.782 -54.038  1.00  0.00     0.170 HD
BRANCH   7  10
HETATM   10  C   UNL     1     -44.317  59.415 -53.685  1.00  0.00     0.149 C 
HETATM   11  C   UNL     1     -44.688  60.175 -54.935  1.00  0.00    -0.007 A 
HETATM   12  C   UNL     1     -44.427  61.544 -55.022  1.00  0.00     0.083 A 
HETATM   13  C   UNL     1     -45.303  59.527 -56.019  1.00  0.00     0.011 A 
HETATM   14  C   UNL     1     -44.771  62.258 -56.170  1.00  0.00     0.038 A 
HETATM   15  O   UNL     1     -43.822  62.265 -54.022  1.00  0.00    -0.310 OA
HETATM   16  C   UNL     1     -45.371  61.606 -57.247  1.00  0.00     0.003 A 
HETATM   17  C   UNL     1     -45.636  60.240 -57.171  1.00  0.00     0.001 A 
HETATM   18  C   UNL     1     -43.652  61.674 -52.796  1.00  0.00     0.083 A 
HETATM   19  C   UNL     1     -43.882  60.317 -52.557  1.00  0.00    -0.007 A 
HETATM   20  C   UNL     1     -43.235  62.513 -51.762  1.00  0.00     0.038 A 
HETATM   21  C   UNL     1     -43.711  59.815 -51.256  1.00  0.00     0.011 A 
HETATM   22  C   UNL     1     -43.303  60.657 -50.222  1.00  0.00     0.001 A 
HETATM   23  C   UNL     1     -43.061  62.006 -50.475  1.00  0.00     0.003 A 
ENDBRANCH   7  10
ENDBRANCH   5   6
BRANCH   1  24
HETATM   24  C   UNL     1     -42.769  55.948 -56.809  1.00  0.00     0.732 A 
HETATM   25  N   UNL     1     -42.484  57.171 -57.134  1.00  0.00    -0.067 NA
HETATM   26  C   UNL     1     -42.813  57.531 -58.428  1.00  0.00     0.059 A 
HETATM   27  C   UNL     1     -43.457  56.724 -59.288  1.00  0.00     0.102 A 
HETATM   28  C   UNL     1     -43.805  55.360 -58.863  1.00  0.00     0.261 A 
HETATM   29  N   UNL     1     -43.385  55.033 -57.614  1.00  0.00    -0.152 N 
HETATM   30  O   UNL     1     -44.421  54.595 -59.592  1.00  0.00    -0.268 OA
HETATM   31  H   UNL     1     -43.584  54.099 -57.266  1.00  0.00     0.187 HD
BRANCH  26  32
HETATM   32  C   UNL     1     -42.396  58.919 -58.860  1.00  0.00     0.060 C 
BRANCH  32  33
HETATM   33  C   UNL     1     -41.909  59.757 -57.674  1.00  0.00     0.002 C 
HETATM   34  C   UNL     1     -41.691  61.209 -58.067  1.00  0.00     0.005 C 
ENDBRANCH  32  33
ENDBRANCH  26  32
ENDBRANCH   1  24
BRANCH   3  35
HETATM   35  C   UNL     1     -40.751  53.010 -53.542  1.00  0.00     0.105 A 
HETATM   36  O   UNL     1     -40.388  52.946 -52.224  1.00  0.00    -0.320 OA
HETATM   37  C   UNL     1     -39.643  51.823 -52.065  1.00  0.00     0.142 A 
HETATM   38  C   UNL     1     -39.520  51.153 -53.258  1.00  0.00     0.027 A 
HETATM   39  C   UNL     1     -40.234  51.918 -54.212  1.00  0.00     0.041 A 
ENDBRANCH   3  35
TORSDOF 6
ENDMDL
MODEL 8
REMARK VINA RESULT:      -8.5      2.637      6.698
REMARK  6 active torsions:
REMARK  status: ('A' for Active; 'I' for Inactive)
REMARK    1  A    between atoms: C_2  and  C_3 
REMARK    2  A    between atoms: C_3  and  C_4 
REMARK    3  A    between atoms: C_6  and  N_7 
REMARK    4  A    between atoms: C_9  and  C_10 
REMARK    5  A    between atoms: C_16  and  N_17 
REMARK       I    between atoms: N_17  and  C_18 
REMARK    6  A    between atoms: C_18  and  C_19 
ROOT
HETATM    1  N   UNL     1     -42.650  56.263 -56.257  1.00  0.00    -0.044 N 
HETATM    2  N   UNL     1     -43.189  55.483 -57.236  1.00  0.00    -0.148 NA
HETATM    3  C   UNL     1     -43.689  56.367 -58.107  1.00  0.00     0.115 A 
HETATM    4  C   UNL     1     -43.435  57.701 -57.721  1.00  0.00     0.087 A 
HETATM    5  C   UNL     1     -42.749  57.619 -56.531  1.00  0.00     0.152 A 
ENDROOT
BRANCH   5   6
HETATM    6  N   UNL     1     -42.235  58.645 -55.735  1.00  0.00    -0.310 N 
HETATM    7  C   UNL     1     -42.984  59.319 -54.703  1.00  0.00     0.236 C 
HETATM    8  O   UNL     1     -44.124  58.958 -54.434  1.00  0.00    -0.272 OA
HETATM    9  H   UNL     1     -41.278  58.947 -55.940  1.00  0.00     0.170 HD
BRANCH   7  10
HETATM   10  C   UNL     1     -42.291  60.458 -53.961  1.00  0.00     0.149 C 
HETATM   11  C   UNL     1     -41.774  60.028 -52.610  1.00  0.00    -0.007 A 
HETATM   12  C   UNL     1     -42.286  60.611 -51.449  1.00  0.00     0.083 A 
HETATM   13  C   UNL     1     -40.774  59.048 -52.498  1.00  0.00     0.011 A 
HETATM   14  C   UNL     1     -41.811  60.225 -50.196  1.00  0.00     0.038 A 
HETATM   15  O   UNL     1     -43.270  61.568 -51.453  1.00  0.00    -0.310 OA
HETATM   16  C   UNL     1     -40.826  59.244 -50.091  1.00  0.00     0.003 A 
HETATM   17  C   UNL     1     -40.308  58.655 -51.243  1.00  0.00     0.001 A 
HETATM   18  C   UNL     1     -43.627  62.139 -52.649  1.00  0.00     0.083 A 
HETATM   19  C   UNL     1     -43.187  61.669 -53.888  1.00  0.00    -0.007 A 
HETATM   20  C   UNL     1     -44.468  63.250 -52.572  1.00  0.00     0.038 A 
HETATM   21  C   UNL     1     -43.583  62.345 -55.054  1.00  0.00     0.011 A 
HETATM   22  C   UNL     1     -44.417  63.461 -54.975  1.00  0.00     0.001 A 
HETATM   23  C   UNL     1     -44.863  63.911 -53.734  1.00  0.00     0.003 A 
ENDBRANCH   7  10
ENDBRANCH   5   6
BRANCH   1  24
HETATM   24  C   UNL     1     -42.070  55.667 -55.127  1.00  0.00     0.732 A 
HETATM   25  N   UNL     1     -42.322  56.067 -53.919  1.00  0.00    -0.067 NA
HETATM   26  C   UNL     1     -41.698  55.348 -52.916  1.00  0.00     0.059 A 
HETATM   27  C   UNL     1     -40.822  54.355 -53.142  1.00  0.00     0.102 A 
HETATM   28  C   UNL     1     -40.526  53.965 -54.529  1.00  0.00     0.261 A 
HETATM   29  N   UNL     1     -41.229  54.646 -55.469  1.00  0.00    -0.152 N 
HETATM   30  O   UNL     1     -39.712  53.091 -54.793  1.00  0.00    -0.268 OA
HETATM   31  H   UNL     1     -41.078  54.415 -56.447  1.00  0.00     0.187 HD
BRANCH  26  32
HETATM   32  C   UNL     1     -42.061  55.731 -51.499  1.00  0.00     0.060 C 
BRANCH  32  33
HETATM   33  C   UNL     1     -43.576  55.852 -51.316  1.00  0.00     0.002 C 
HETATM   34  C   UNL     1     -44.012  57.303 -51.196  1.00  0.00     0.005 C 
ENDBRANCH  32  33
ENDBRANCH  26  32
ENDBRANCH   1  24
BRANCH   3  35
HETATM   35  C   UNL     1     -44.432  55.964 -59.336  1.00  0.00     0.105 A 
HETATM   36  O   UNL     1     -45.621  56.513 -59.729  1.00  0.00    -0.320 OA
HETATM   37  C   UNL     1     -45.995  55.890 -60.876  1.00  0.00     0.142 A 
HETATM   38  C   UNL     1     -45.063  54.947 -61.236  1.00  0.00     0.027 A 
HETATM   39  C   UNL     1     -44.054  54.994 -60.243  1.00  0.00     0.041 A 
ENDBRANCH   3  35
TORSDOF 6
ENDMDL
MODEL 9
REMARK VINA RESULT:      -8.4      3.021      6.930
REMARK  6 active torsions:
REMARK  status: ('A' for Active; 'I' for Inactive)
REMARK    1  A    between atoms: C_2  and  C_3 
REMARK    2  A    between atoms: C_3  and  C_4 
REMARK    3  A    between atoms: C_6  and  N_7 
REMARK    4  A    between atoms: C_9  and  C_10 
REMARK    5  A    between atoms: C_16  and  N_17 
REMARK       I    between atoms: N_17  and  C_18 
REMARK    6  A    between atoms: C_18  and  C_19 
ROOT
HETATM    1  N   UNL     1     -44.866  59.502 -52.446  1.00  0.00    -0.044 N 
HETATM    2  N   UNL     1     -45.265  60.747 -52.062  1.00  0.00    -0.148 NA
HETATM    3  C   UNL     1     -45.660  60.578 -50.795  1.00  0.00     0.115 A 
HETATM    4  C   UNL     1     -45.473  59.251 -50.348  1.00  0.00     0.087 A 
HETATM    5  C   UNL     1     -44.945  58.571 -51.421  1.00  0.00     0.152 A 
ENDROOT
BRANCH   5   6
HETATM    6  N   UNL     1     -44.550  57.234 -51.511  1.00  0.00    -0.310 N 
HETATM    7  C   UNL     1     -43.180  56.802 -51.643  1.00  0.00     0.236 C 
HETATM    8  O   UNL     1     -42.271  57.624 -51.615  1.00  0.00    -0.272 OA
HETATM    9  H   UNL     1     -45.299  56.536 -51.522  1.00  0.00     0.170 HD
BRANCH   7  10
HETATM   10  C   UNL     1     -42.925  55.305 -51.785  1.00  0.00     0.149 C 
HETATM   11  C   UNL     1     -41.839  54.820 -50.855  1.00  0.00    -0.007 A 
HETATM   12  C   UNL     1     -40.658  54.290 -51.379  1.00  0.00     0.083 A 
HETATM   13  C   UNL     1     -41.999  54.887 -49.461  1.00  0.00     0.011 A 
HETATM   14  C   UNL     1     -39.651  53.833 -50.528  1.00  0.00     0.038 A 
HETATM   15  O   UNL     1     -40.403  54.191 -52.724  1.00  0.00    -0.310 OA
HETATM   16  C   UNL     1     -39.812  53.913 -49.145  1.00  0.00     0.003 A 
HETATM   17  C   UNL     1     -40.986  54.440 -48.612  1.00  0.00     0.001 A 
HETATM   18  C   UNL     1     -41.427  54.423 -53.606  1.00  0.00     0.083 A 
HETATM   19  C   UNL     1     -42.666  54.943 -53.227  1.00  0.00    -0.007 A 
HETATM   20  C   UNL     1     -41.174  54.100 -54.940  1.00  0.00     0.038 A 
HETATM   21  C   UNL     1     -43.662  55.113 -54.203  1.00  0.00     0.011 A 
HETATM   22  C   UNL     1     -43.411  54.781 -55.534  1.00  0.00     0.001 A 
HETATM   23  C   UNL     1     -42.166  54.278 -55.904  1.00  0.00     0.003 A 
ENDBRANCH   7  10
ENDBRANCH   5   6
BRANCH   1  24
HETATM   24  C   UNL     1     -44.430  59.280 -53.760  1.00  0.00     0.732 A 
HETATM   25  N   UNL     1     -45.172  58.706 -54.656  1.00  0.00    -0.067 NA
HETATM   26  C   UNL     1     -44.606  58.597 -55.912  1.00  0.00     0.059 A 
HETATM   27  C   UNL     1     -43.349  58.974 -56.202  1.00  0.00     0.102 A 
HETATM   28  C   UNL     1     -42.523  59.577 -55.144  1.00  0.00     0.261 A 
HETATM   29  N   UNL     1     -43.156  59.735 -53.954  1.00  0.00    -0.152 N 
HETATM   30  O   UNL     1     -41.362  59.906 -55.343  1.00  0.00    -0.268 OA
HETATM   31  H   UNL     1     -42.643  60.157 -53.185  1.00  0.00     0.187 HD
BRANCH  26  32
HETATM   32  C   UNL     1     -45.494  58.026 -56.995  1.00  0.00     0.060 C 
BRANCH  32  33
HETATM   33  C   UNL     1     -44.691  57.649 -58.243  1.00  0.00     0.002 C 
HETATM   34  C   UNL     1     -45.579  57.043 -59.318  1.00  0.00     0.005 C 
ENDBRANCH  32  33
ENDBRANCH  26  32
ENDBRANCH   1  24
BRANCH   3  35
HETATM   35  C   UNL     1     -46.233  61.680 -49.970  1.00  0.00     0.105 A 
HETATM   36  O   UNL     1     -46.430  61.604 -48.618  1.00  0.00    -0.320 OA
HETATM   37  C   UNL     1     -46.975  62.783 -48.223  1.00  0.00     0.142 A 
HETATM   38  C   UNL     1     -47.131  63.625 -49.296  1.00  0.00     0.027 A 
HETATM   39  C   UNL     1     -46.652  62.915 -50.424  1.00  0.00     0.041 A 
ENDBRANCH   3  35
TORSDOF 6
ENDMDL
MODEL 10
REMARK VINA RESULT:      -8.4      3.386      6.264
REMARK  6 active torsions:
REMARK  status: ('A' for Active; 'I' for Inactive)
REMARK    1  A    between atoms: C_2  and  C_3 
REMARK    2  A    between atoms: C_3  and  C_4 
REMARK    3  A    between atoms: C_6  and  N_7 
REMARK    4  A    between atoms: C_9  and  C_10 
REMARK    5  A    between atoms: C_16  and  N_17 
REMARK       I    between atoms: N_17  and  C_18 
REMARK    6  A    between atoms: C_18  and  C_19 
ROOT
HETATM    1  N   UNL     1     -42.204  58.652 -56.824  1.00  0.00    -0.044 N 
HETATM    2  N   UNL     1     -41.787  59.221 -57.989  1.00  0.00    -0.148 NA
HETATM    3  C   UNL     1     -41.707  60.524 -57.697  1.00  0.00     0.115 A 
HETATM    4  C   UNL     1     -42.022  60.790 -56.346  1.00  0.00     0.087 A 
HETATM    5  C   UNL     1     -42.326  59.569 -55.790  1.00  0.00     0.152 A 
ENDROOT
BRANCH   5   6
HETATM    6  N   UNL     1     -42.681  59.262 -54.474  1.00  0.00    -0.310 N 
HETATM    7  C   UNL     1     -41.744  59.191 -53.380  1.00  0.00     0.236 C 
HETATM    8  O   UNL     1     -40.565  59.473 -53.560  1.00  0.00    -0.272 OA
HETATM    9  H   UNL     1     -43.666  59.037 -54.307  1.00  0.00     0.170 HD
BRANCH   7  10
HETATM   10  C   UNL     1     -42.288  58.788 -52.013  1.00  0.00     0.149 C 
HETATM   11  C   UNL     1     -42.293  57.291 -51.819  1.00  0.00    -0.007 A 
HETATM   12  C   UNL     1     -43.502  56.614 -51.644  1.00  0.00     0.083 A 
HETATM   13  C   UNL     1     -41.093  56.561 -51.805  1.00  0.00     0.011 A 
HETATM   14  C   UNL     1     -43.517  55.231 -51.458  1.00  0.00     0.038 A 
HETATM   15  O   UNL     1     -44.726  57.236 -51.651  1.00  0.00    -0.310 OA
HETATM   16  C   UNL     1     -42.323  54.511 -51.456  1.00  0.00     0.003 A 
HETATM   17  C   UNL     1     -41.111  55.177 -51.630  1.00  0.00     0.001 A 
HETATM   18  C   UNL     1     -44.768  58.606 -51.618  1.00  0.00     0.083 A 
HETATM   19  C   UNL     1     -43.639  59.414 -51.771  1.00  0.00    -0.007 A 
HETATM   20  C   UNL     1     -46.023  59.178 -51.409  1.00  0.00     0.038 A 
HETATM   21  C   UNL     1     -43.782  60.810 -51.687  1.00  0.00     0.011 A 
HETATM   22  C   UNL     1     -45.037  61.379 -51.469  1.00  0.00     0.001 A 
HETATM   23  C   UNL     1     -46.158  60.564 -51.334  1.00  0.00     0.003 A 
ENDBRANCH   7  10
ENDBRANCH   5   6
BRANCH   1  24
HETATM   24  C   UNL     1     -42.454  57.274 -56.767  1.00  0.00     0.732 A 
HETATM   25  N   UNL     1     -41.985  56.516 -55.824  1.00  0.00    -0.067 NA
HETATM   26  C   UNL     1     -42.357  55.186 -55.895  1.00  0.00     0.059 A 
HETATM   27  C   UNL     1     -43.083  54.664 -56.897  1.00  0.00     0.102 A 
HETATM   28  C   UNL     1     -43.555  55.549 -57.974  1.00  0.00     0.261 A 
HETATM   29  N   UNL     1     -43.232  56.857 -57.811  1.00  0.00    -0.152 N 
HETATM   30  O   UNL     1     -44.189  55.122 -58.928  1.00  0.00    -0.268 OA
HETATM   31  H   UNL     1     -43.539  57.523 -58.514  1.00  0.00     0.187 HD
BRANCH  26  32
HETATM   32  C   UNL     1     -41.907  54.308 -54.749  1.00  0.00     0.060 C 
BRANCH  32  33
HETATM   33  C   UNL     1     -40.464  53.831 -54.935  1.00  0.00     0.002 C 
HETATM   34  C   UNL     1     -40.207  52.524 -54.202  1.00  0.00     0.005 C 
ENDBRANCH  32  33
ENDBRANCH  26  32
ENDBRANCH   1  24
BRANCH   3  35
HETATM   35  C   UNL     1     -41.331  61.559 -58.702  1.00  0.00     0.105 A 
HETATM   36  O   UNL     1     -42.115  61.919 -59.764  1.00  0.00    -0.320 OA
HETATM   37  C   UNL     1     -41.442  62.872 -60.458  1.00  0.00     0.142 A 
HETATM   38  C   UNL     1     -40.235  63.141 -59.861  1.00  0.00     0.027 A 
HETATM   39  C   UNL     1     -40.162  62.294 -58.728  1.00  0.00     0.041 A 
ENDBRANCH   3  35
TORSDOF 6
ENDMDL
