MODEL 1
REMARK VINA RESULT:      -7.8      0.000      0.000
REMARK  5 active torsions:
REMARK  status: ('A' for Active; 'I' for Inactive)
REMARK    1  A    between atoms: C_4  and  C_5 
REMARK    2  A    between atoms: C_5  and  C_6 
REMARK    3  A    between atoms: C_6  and  C_7 
REMARK       I    between atoms: C_7  and  N_8 
REMARK    4  A    between atoms: N_8  and  C_9 
REMARK    5  A    between atoms: C_11  and  C_12 
ROOT
HETATM    1  C   UNL     1     -41.082  54.901 -54.542  1.00  0.00     0.035 A 
HETATM    2  C   UNL     1     -40.703  53.555 -54.560  1.00  0.00     0.042 A 
HETATM    3  C   UNL     1     -40.422  52.858 -53.371  1.00  0.00    -0.021 A 
HETATM    4  C   UNL     1     -40.531  53.543 -52.153  1.00  0.00     0.012 A 
HETATM    5  C   UNL     1     -40.913  54.885 -52.123  1.00  0.00     0.003 A 
HETATM    6  C   UNL     1     -41.189  55.559 -53.312  1.00  0.00     0.029 A 
ENDROOT
BRANCH   1   7
HETATM    7  N   UNL     1     -41.361  55.659 -55.696  1.00  0.00    -0.327 N 
HETATM    8  C   UNL     1     -42.568  56.206 -56.086  1.00  0.00     0.222 C 
HETATM    9  O   UNL     1     -43.628  56.167 -55.469  1.00  0.00    -0.273 OA
HETATM   10  H   UNL     1     -40.569  55.860 -56.301  1.00  0.00     0.169 HD
BRANCH   8  11
HETATM   11  C   UNL     1     -42.492  56.912 -57.428  1.00  0.00     0.110 C 
BRANCH  11  12
HETATM   12  C   UNL     1     -43.857  57.398 -57.898  1.00  0.00     0.074 C 
BRANCH  12  13
HETATM   13  C   UNL     1     -44.465  56.609 -59.006  1.00  0.00     0.053 A 
HETATM   14  O   UNL     1     -45.695  56.986 -59.463  1.00  0.00    -0.320 OA
HETATM   15  C   UNL     1     -46.031  56.130 -60.469  1.00  0.00     0.049 A 
HETATM   16  C   UNL     1     -47.338  56.349 -61.120  1.00  0.00     0.076 C 
HETATM   17  C   UNL     1     -45.024  55.211 -60.665  1.00  0.00     0.035 A 
HETATM   18  C   UNL     1     -44.015  55.518 -59.723  1.00  0.00     0.035 A 
ENDBRANCH  12  13
ENDBRANCH  11  12
ENDBRANCH   8  11
ENDBRANCH   1   7
BRANCH   3  19
HETATM   19  C   UNL     1     -40.028  51.453 -53.386  1.00  0.00     0.010 A 
HETATM   20  C   UNL     1     -39.957  50.521 -54.451  1.00  0.00     0.152 A 
HETATM   21  N   UNL     1     -39.550  49.309 -54.062  1.00  0.00    -0.187 NA
HETATM   22  N   UNL     1     -39.352  49.459 -52.743  1.00  0.00    -0.289 N 
HETATM   23  H   UNL     1     -39.029  48.658 -52.210  1.00  0.00     0.188 HD
HETATM   24  C   UNL     1     -39.628  50.716 -52.290  1.00  0.00     0.123 A 
ENDBRANCH   3  19
TORSDOF 5
ENDMDL
MODEL 2
REMARK VINA RESULT:      -7.7      4.153      6.194
REMARK  5 active torsions:
REMARK  status: ('A' for Active; 'I' for Inactive)
REMARK    1  A    between atoms: C_4  and  C_5 
REMARK    2  A    between atoms: C_5  and  C_6 
REMARK    3  A    between atoms: C_6  and  C_7 
REMARK       I    between atoms: C_7  and  N_8 
REMARK    4  A    between atoms: N_8  and  C_9 
REMARK    5  A    between atoms: C_11  and  C_12 
ROOT
HETATM    1  C   UNL     1     -41.088  54.799 -51.841  1.00  0.00     0.035 A 
HETATM    2  C   UNL     1     -40.773  53.547 -52.381  1.00  0.00     0.042 A 
HETATM    3  C   UNL     1     -40.202  52.532 -51.592  1.00  0.00    -0.021 A 
HETATM    4  C   UNL     1     -39.951  52.800 -50.239  1.00  0.00     0.012 A 
HETATM    5  C   UNL     1     -40.265  54.043 -49.689  1.00  0.00     0.003 A 
HETATM    6  C   UNL     1     -40.832  55.036 -50.486  1.00  0.00     0.029 A 
ENDROOT
BRANCH   1   7
HETATM    7  N   UNL     1     -41.646  55.860 -52.580  1.00  0.00    -0.327 N 
HETATM    8  C   UNL     1     -41.216  56.378 -53.786  1.00  0.00     0.222 C 
HETATM    9  O   UNL     1     -40.276  55.977 -54.466  1.00  0.00    -0.273 OA
HETATM   10  H   UNL     1     -42.492  56.274 -52.198  1.00  0.00     0.169 HD
BRANCH   8  11
HETATM   11  C   UNL     1     -42.042  57.565 -54.249  1.00  0.00     0.110 C 
BRANCH  11  12
HETATM   12  C   UNL     1     -41.349  58.891 -53.965  1.00  0.00     0.074 C 
BRANCH  12  13
HETATM   13  C   UNL     1     -40.950  59.107 -52.545  1.00  0.00     0.053 A 
HETATM   14  O   UNL     1     -39.617  59.161 -52.254  1.00  0.00    -0.320 OA
HETATM   15  C   UNL     1     -39.506  59.372 -50.913  1.00  0.00     0.049 A 
HETATM   16  C   UNL     1     -38.137  59.466 -50.366  1.00  0.00     0.076 C 
HETATM   17  C   UNL     1     -40.756  59.461 -50.342  1.00  0.00     0.035 A 
HETATM   18  C   UNL     1     -41.687  59.290 -51.393  1.00  0.00     0.035 A 
ENDBRANCH  12  13
ENDBRANCH  11  12
ENDBRANCH   8  11
ENDBRANCH   1   7
BRANCH   3  19
HETATM   19  C   UNL     1     -39.874  51.225 -52.152  1.00  0.00     0.010 A 
HETATM   20  C   UNL     1     -39.788  50.787 -53.496  1.00  0.00     0.152 A 
HETATM   21  N   UNL     1     -39.461  49.496 -53.608  1.00  0.00    -0.187 NA
HETATM   22  N   UNL     1     -39.331  49.099 -52.332  1.00  0.00    -0.289 N 
HETATM   23  H   UNL     1     -39.078  48.134 -52.151  1.00  0.00     0.188 HD
HETATM   24  C   UNL     1     -39.573  50.091 -51.427  1.00  0.00     0.123 A 
ENDBRANCH   3  19
TORSDOF 5
ENDMDL
MODEL 3
REMARK VINA RESULT:      -7.7      3.688      4.600
REMARK  5 active torsions:
REMARK  status: ('A' for Active; 'I' for Inactive)
REMARK    1  A    between atoms: C_4  and  C_5 
REMARK    2  A    between atoms: C_5  and  C_6 
REMARK    3  A    between atoms: C_6  and  C_7 
REMARK       I    between atoms: C_7  and  N_8 
REMARK    4  A    between atoms: N_8  and  C_9 
REMARK    5  A    between atoms: C_11  and  C_12 
ROOT
HETATM    1  C   UNL     1     -41.212  55.177 -50.789  1.00  0.00     0.035 A 
HETATM    2  C   UNL     1     -40.854  53.932 -51.318  1.00  0.00     0.042 A 
HETATM    3  C   UNL     1     -40.433  52.878 -50.487  1.00  0.00    -0.021 A 
HETATM    4  C   UNL     1     -40.379  53.098 -49.104  1.00  0.00     0.012 A 
HETATM    5  C   UNL     1     -40.739  54.334 -48.565  1.00  0.00     0.003 A 
HETATM    6  C   UNL     1     -41.154  55.367 -49.404  1.00  0.00     0.029 A 
ENDROOT
BRANCH   1   7
HETATM    7  N   UNL     1     -41.626  56.276 -51.567  1.00  0.00    -0.327 N 
HETATM    8  C   UNL     1     -42.895  56.806 -51.687  1.00  0.00     0.222 C 
HETATM    9  O   UNL     1     -43.906  56.436 -51.098  1.00  0.00    -0.273 OA
HETATM   10  H   UNL     1     -40.893  56.764 -52.076  1.00  0.00     0.169 HD
BRANCH   8  11
HETATM   11  C   UNL     1     -42.964  57.962 -52.669  1.00  0.00     0.110 C 
BRANCH  11  12
HETATM   12  C   UNL     1     -43.364  57.505 -54.066  1.00  0.00     0.074 C 
BRANCH  12  13
HETATM   13  C   UNL     1     -42.934  56.124 -54.430  1.00  0.00     0.053 A 
HETATM   14  O   UNL     1     -41.599  55.892 -54.597  1.00  0.00    -0.320 OA
HETATM   15  C   UNL     1     -41.457  54.574 -54.913  1.00  0.00     0.049 A 
HETATM   16  C   UNL     1     -40.081  54.090 -55.142  1.00  0.00     0.076 C 
HETATM   17  C   UNL     1     -42.688  53.958 -54.943  1.00  0.00     0.035 A 
HETATM   18  C   UNL     1     -43.641  54.957 -54.633  1.00  0.00     0.035 A 
ENDBRANCH  12  13
ENDBRANCH  11  12
ENDBRANCH   8  11
ENDBRANCH   1   7
BRANCH   3  19
HETATM   19  C   UNL     1     -40.061  51.578 -51.035  1.00  0.00     0.010 A 
HETATM   20  C   UNL     1     -39.639  51.206 -52.335  1.00  0.00     0.152 A 
HETATM   21  N   UNL     1     -39.389  49.898 -52.452  1.00  0.00    -0.187 NA
HETATM   22  N   UNL     1     -39.647  49.424 -51.223  1.00  0.00    -0.289 N 
HETATM   23  H   UNL     1     -39.525  48.431 -51.054  1.00  0.00     0.188 HD
HETATM   24  C   UNL     1     -40.056  50.384 -50.344  1.00  0.00     0.123 A 
ENDBRANCH   3  19
TORSDOF 5
ENDMDL
MODEL 4
REMARK VINA RESULT:      -7.6      2.172      2.983
REMARK  5 active torsions:
REMARK  status: ('A' for Active; 'I' for Inactive)
REMARK    1  A    between atoms: C_4  and  C_5 
REMARK    2  A    between atoms: C_5  and  C_6 
REMARK    3  A    between atoms: C_6  and  C_7 
REMARK       I    between atoms: C_7  and  N_8 
REMARK    4  A    between atoms: N_8  and  C_9 
REMARK    5  A    between atoms: C_11  and  C_12 
ROOT
HETATM    1  C   UNL     1     -40.860  54.723 -54.550  1.00  0.00     0.035 A 
HETATM    2  C   UNL     1     -40.930  54.913 -53.166  1.00  0.00     0.042 A 
HETATM    3  C   UNL     1     -40.602  53.880 -52.269  1.00  0.00    -0.021 A 
HETATM    4  C   UNL     1     -40.199  52.644 -52.793  1.00  0.00     0.012 A 
HETATM    5  C   UNL     1     -40.122  52.445 -54.171  1.00  0.00     0.003 A 
HETATM    6  C   UNL     1     -40.450  53.481 -55.045  1.00  0.00     0.029 A 
ENDROOT
BRANCH   1   7
HETATM    7  N   UNL     1     -41.190  55.710 -55.500  1.00  0.00    -0.327 N 
HETATM    8  C   UNL     1     -42.438  56.216 -55.806  1.00  0.00     0.222 C 
HETATM    9  O   UNL     1     -43.503  55.922 -55.272  1.00  0.00    -0.273 OA
HETATM   10  H   UNL     1     -40.409  56.131 -55.997  1.00  0.00     0.169 HD
BRANCH   8  11
HETATM   11  C   UNL     1     -42.405  57.234 -56.932  1.00  0.00     0.110 C 
BRANCH  11  12
HETATM   12  C   UNL     1     -43.798  57.548 -57.462  1.00  0.00     0.074 C 
BRANCH  12  13
HETATM   13  C   UNL     1     -44.235  56.724 -58.625  1.00  0.00     0.053 A 
HETATM   14  O   UNL     1     -45.476  56.957 -59.146  1.00  0.00    -0.320 OA
HETATM   15  C   UNL     1     -45.640  56.099 -60.191  1.00  0.00     0.049 A 
HETATM   16  C   UNL     1     -46.925  56.171 -60.915  1.00  0.00     0.076 C 
HETATM   17  C   UNL     1     -44.513  55.322 -60.349  1.00  0.00     0.035 A 
HETATM   18  C   UNL     1     -43.608  55.724 -59.339  1.00  0.00     0.035 A 
ENDBRANCH  12  13
ENDBRANCH  11  12
ENDBRANCH   8  11
ENDBRANCH   1   7
BRANCH   3  19
HETATM   19  C   UNL     1     -40.672  54.074 -50.825  1.00  0.00     0.010 A 
HETATM   20  C   UNL     1     -41.743  54.487 -49.994  1.00  0.00     0.152 A 
HETATM   21  N   UNL     1     -41.411  54.551 -48.702  1.00  0.00    -0.187 NA
HETATM   22  N   UNL     1     -40.123  54.176 -48.695  1.00  0.00    -0.289 N 
HETATM   23  H   UNL     1     -39.635  54.142 -47.806  1.00  0.00     0.188 HD
HETATM   24  C   UNL     1     -39.633  53.887 -49.936  1.00  0.00     0.123 A 
ENDBRANCH   3  19
TORSDOF 5
ENDMDL
MODEL 5
REMARK VINA RESULT:      -7.6      3.200      5.042
REMARK  5 active torsions:
REMARK  status: ('A' for Active; 'I' for Inactive)
REMARK    1  A    between atoms: C_4  and  C_5 
REMARK    2  A    between atoms: C_5  and  C_6 
REMARK    3  A    between atoms: C_6  and  C_7 
REMARK       I    between atoms: C_7  and  N_8 
REMARK    4  A    between atoms: N_8  and  C_9 
REMARK    5  A    between atoms: C_11  and  C_12 
ROOT
HETATM    1  C   UNL     1     -40.910  53.974 -54.076  1.00  0.00     0.035 A 
HETATM    2  C   UNL     1     -41.019  54.310 -52.722  1.00  0.00     0.042 A 
HETATM    3  C   UNL     1     -40.528  53.459 -51.715  1.00  0.00    -0.021 A 
HETATM    4  C   UNL     1     -39.919  52.255 -52.097  1.00  0.00     0.012 A 
HETATM    5  C   UNL     1     -39.801  51.912 -53.444  1.00  0.00     0.003 A 
HETATM    6  C   UNL     1     -40.293  52.769 -54.428  1.00  0.00     0.029 A 
ENDROOT
BRANCH   1   7
HETATM    7  N   UNL     1     -41.394  54.774 -55.129  1.00  0.00    -0.327 N 
HETATM    8  C   UNL     1     -42.596  54.664 -55.800  1.00  0.00     0.222 C 
HETATM    9  O   UNL     1     -43.495  53.860 -55.573  1.00  0.00    -0.273 OA
HETATM   10  H   UNL     1     -40.803  55.553 -55.407  1.00  0.00     0.169 HD
BRANCH   8  11
HETATM   11  C   UNL     1     -42.744  55.676 -56.922  1.00  0.00     0.110 C 
BRANCH  11  12
HETATM   12  C   UNL     1     -42.734  57.109 -56.405  1.00  0.00     0.074 C 
BRANCH  12  13
HETATM   13  C   UNL     1     -43.344  57.303 -55.059  1.00  0.00     0.053 A 
HETATM   14  O   UNL     1     -42.506  57.445 -53.989  1.00  0.00    -0.320 OA
HETATM   15  C   UNL     1     -43.287  57.615 -52.886  1.00  0.00     0.049 A 
HETATM   16  C   UNL     1     -42.588  57.790 -51.597  1.00  0.00     0.076 C 
HETATM   17  C   UNL     1     -44.618  57.590 -53.239  1.00  0.00     0.035 A 
HETATM   18  C   UNL     1     -44.656  57.388 -54.639  1.00  0.00     0.035 A 
ENDBRANCH  12  13
ENDBRANCH  11  12
ENDBRANCH   8  11
ENDBRANCH   1   7
BRANCH   3  19
HETATM   19  C   UNL     1     -40.638  53.807 -50.303  1.00  0.00     0.010 A 
HETATM   20  C   UNL     1     -41.023  55.016 -49.672  1.00  0.00     0.152 A 
HETATM   21  N   UNL     1     -40.994  54.945 -48.338  1.00  0.00    -0.187 NA
HETATM   22  N   UNL     1     -40.593  53.686 -48.105  1.00  0.00    -0.289 N 
HETATM   23  H   UNL     1     -40.494  53.382 -47.142  1.00  0.00     0.188 HD
HETATM   24  C   UNL     1     -40.361  52.968 -49.242  1.00  0.00     0.123 A 
ENDBRANCH   3  19
TORSDOF 5
ENDMDL
MODEL 6
REMARK VINA RESULT:      -7.5      1.142      1.441
REMARK  5 active torsions:
REMARK  status: ('A' for Active; 'I' for Inactive)
REMARK    1  A    between atoms: C_4  and  C_5 
REMARK    2  A    between atoms: C_5  and  C_6 
REMARK    3  A    between atoms: C_6  and  C_7 
REMARK       I    between atoms: C_7  and  N_8 
REMARK    4  A    between atoms: N_8  and  C_9 
REMARK    5  A    between atoms: C_11  and  C_12 
ROOT
HETATM    1  C   UNL     1     -41.276  54.718 -53.015  1.00  0.00     0.035 A 
HETATM    2  C   UNL     1     -40.894  53.410 -53.333  1.00  0.00     0.042 A 
HETATM    3  C   UNL     1     -40.286  52.573 -52.380  1.00  0.00    -0.021 A 
HETATM    4  C   UNL     1     -40.067  53.079 -51.091  1.00  0.00     0.012 A 
HETATM    5  C   UNL     1     -40.447  54.380 -50.761  1.00  0.00     0.003 A 
HETATM    6  C   UNL     1     -41.050  55.194 -51.719  1.00  0.00     0.029 A 
ENDROOT
BRANCH   1   7
HETATM    7  N   UNL     1     -41.874  55.609 -53.927  1.00  0.00    -0.327 N 
HETATM    8  C   UNL     1     -43.067  55.460 -54.608  1.00  0.00     0.222 C 
HETATM    9  O   UNL     1     -43.857  54.526 -54.512  1.00  0.00    -0.273 OA
HETATM   10  H   UNL     1     -41.387  56.489 -54.077  1.00  0.00     0.169 HD
BRANCH   8  11
HETATM   11  C   UNL     1     -43.357  56.612 -55.553  1.00  0.00     0.110 C 
BRANCH  11  12
HETATM   12  C   UNL     1     -42.512  56.542 -56.818  1.00  0.00     0.074 C 
BRANCH  12  13
HETATM   13  C   UNL     1     -43.278  56.352 -58.083  1.00  0.00     0.053 A 
HETATM   14  O   UNL     1     -44.476  56.994 -58.211  1.00  0.00    -0.320 OA
HETATM   15  C   UNL     1     -44.974  56.676 -59.439  1.00  0.00     0.049 A 
HETATM   16  C   UNL     1     -46.279  57.265 -59.799  1.00  0.00     0.076 C 
HETATM   17  C   UNL     1     -44.103  55.840 -60.102  1.00  0.00     0.035 A 
HETATM   18  C   UNL     1     -43.010  55.630 -59.228  1.00  0.00     0.035 A 
ENDBRANCH  12  13
ENDBRANCH  11  12
ENDBRANCH   8  11
ENDBRANCH   1   7
BRANCH   3  19
HETATM   19  C   UNL     1     -39.888  51.208 -52.707  1.00  0.00     0.010 A 
HETATM   20  C   UNL     1     -39.747  50.557 -53.958  1.00  0.00     0.152 A 
HETATM   21  N   UNL     1     -39.363  49.283 -53.846  1.00  0.00    -0.187 NA
HETATM   22  N   UNL     1     -39.251  49.109 -52.520  1.00  0.00    -0.289 N 
HETATM   23  H   UNL     1     -38.963  48.199 -52.175  1.00  0.00     0.188 HD
HETATM   24  C   UNL     1     -39.559  50.225 -51.797  1.00  0.00     0.123 A 
ENDBRANCH   3  19
TORSDOF 5
ENDMDL
MODEL 7
REMARK VINA RESULT:      -7.4      4.513      5.983
REMARK  5 active torsions:
REMARK  status: ('A' for Active; 'I' for Inactive)
REMARK    1  A    between atoms: C_4  and  C_5 
REMARK    2  A    between atoms: C_5  and  C_6 
REMARK    3  A    between atoms: C_6  and  C_7 
REMARK       I    between atoms: C_7  and  N_8 
REMARK    4  A    between atoms: N_8  and  C_9 
REMARK    5  A    between atoms: C_11  and  C_12 
ROOT
HETATM    1  C   UNL     1     -41.853  54.553 -53.298  1.00  0.00     0.035 A 
HETATM    2  C   UNL     1     -41.429  53.279 -52.905  1.00  0.00     0.042 A 
HETATM    3  C   UNL     1     -40.453  52.575 -53.635  1.00  0.00    -0.021 A 
HETATM    4  C   UNL     1     -39.906  53.181 -54.775  1.00  0.00     0.012 A 
HETATM    5  C   UNL     1     -40.318  54.453 -55.173  1.00  0.00     0.003 A 
HETATM    6  C   UNL     1     -41.286  55.135 -54.437  1.00  0.00     0.029 A 
ENDROOT
BRANCH   1   7
HETATM    7  N   UNL     1     -42.835  55.301 -52.621  1.00  0.00    -0.327 N 
HETATM    8  C   UNL     1     -42.832  55.721 -51.305  1.00  0.00     0.222 C 
HETATM    9  O   UNL     1     -41.939  55.549 -50.480  1.00  0.00    -0.273 OA
HETATM   10  H   UNL     1     -43.630  55.603 -53.178  1.00  0.00     0.169 HD
BRANCH   8  11
HETATM   11  C   UNL     1     -44.098  56.461 -50.916  1.00  0.00     0.110 C 
BRANCH  11  12
HETATM   12  C   UNL     1     -44.097  57.900 -51.415  1.00  0.00     0.074 C 
BRANCH  12  13
HETATM   13  C   UNL     1     -42.758  58.443 -51.784  1.00  0.00     0.053 A 
HETATM   14  O   UNL     1     -41.904  58.785 -50.775  1.00  0.00    -0.320 OA
HETATM   15  C   UNL     1     -40.758  59.241 -51.355  1.00  0.00     0.049 A 
HETATM   16  C   UNL     1     -39.679  59.673 -50.445  1.00  0.00     0.076 C 
HETATM   17  C   UNL     1     -40.868  59.188 -52.727  1.00  0.00     0.035 A 
HETATM   18  C   UNL     1     -42.157  58.675 -53.004  1.00  0.00     0.035 A 
ENDBRANCH  12  13
ENDBRANCH  11  12
ENDBRANCH   8  11
ENDBRANCH   1   7
BRANCH   3  19
HETATM   19  C   UNL     1     -40.007  51.247 -53.227  1.00  0.00     0.010 A 
HETATM   20  C   UNL     1     -39.847  50.053 -53.972  1.00  0.00     0.152 A 
HETATM   21  N   UNL     1     -39.416  49.027 -53.233  1.00  0.00    -0.187 NA
HETATM   22  N   UNL     1     -39.292  49.560 -52.007  1.00  0.00    -0.289 N 
HETATM   23  H   UNL     1     -38.968  48.964 -51.252  1.00  0.00     0.188 HD
HETATM   24  C   UNL     1     -39.638  50.879 -51.950  1.00  0.00     0.123 A 
ENDBRANCH   3  19
TORSDOF 5
ENDMDL
MODEL 8
REMARK VINA RESULT:      -7.3      2.146      2.983
REMARK  5 active torsions:
REMARK  status: ('A' for Active; 'I' for Inactive)
REMARK    1  A    between atoms: C_4  and  C_5 
REMARK    2  A    between atoms: C_5  and  C_6 
REMARK    3  A    between atoms: C_6  and  C_7 
REMARK       I    between atoms: C_7  and  N_8 
REMARK    4  A    between atoms: N_8  and  C_9 
REMARK    5  A    between atoms: C_11  and  C_12 
ROOT
HETATM    1  C   UNL     1     -41.369  54.843 -52.033  1.00  0.00     0.035 A 
HETATM    2  C   UNL     1     -41.100  53.669 -52.744  1.00  0.00     0.042 A 
HETATM    3  C   UNL     1     -40.287  52.656 -52.204  1.00  0.00    -0.021 A 
HETATM    4  C   UNL     1     -39.745  52.847 -50.925  1.00  0.00     0.012 A 
HETATM    5  C   UNL     1     -40.009  54.012 -50.205  1.00  0.00     0.003 A 
HETATM    6  C   UNL     1     -40.818  55.004 -50.757  1.00  0.00     0.029 A 
ENDROOT
BRANCH   1   7
HETATM    7  N   UNL     1     -42.160  55.900 -52.524  1.00  0.00    -0.327 N 
HETATM    8  C   UNL     1     -41.748  57.035 -53.193  1.00  0.00     0.222 C 
HETATM    9  O   UNL     1     -40.600  57.319 -53.523  1.00  0.00    -0.273 OA
HETATM   10  H   UNL     1     -43.165  55.799 -52.404  1.00  0.00     0.169 HD
BRANCH   8  11
HETATM   11  C   UNL     1     -42.891  57.981 -53.516  1.00  0.00     0.110 C 
BRANCH  11  12
HETATM   12  C   UNL     1     -43.995  57.295 -54.310  1.00  0.00     0.074 C 
BRANCH  12  13
HETATM   13  C   UNL     1     -43.592  56.796 -55.656  1.00  0.00     0.053 A 
HETATM   14  O   UNL     1     -43.632  57.673 -56.703  1.00  0.00    -0.320 OA
HETATM   15  C   UNL     1     -43.217  56.995 -57.810  1.00  0.00     0.049 A 
HETATM   16  C   UNL     1     -43.178  57.752 -59.077  1.00  0.00     0.076 C 
HETATM   17  C   UNL     1     -42.906  55.694 -57.481  1.00  0.00     0.035 A 
HETATM   18  C   UNL     1     -43.149  55.565 -56.094  1.00  0.00     0.035 A 
ENDBRANCH  12  13
ENDBRANCH  11  12
ENDBRANCH   8  11
ENDBRANCH   1   7
BRANCH   3  19
HETATM   19  C   UNL     1     -40.007  51.429 -52.941  1.00  0.00     0.010 A 
HETATM   20  C   UNL     1     -39.577  50.155 -52.495  1.00  0.00     0.152 A 
HETATM   21  N   UNL     1     -39.424  49.275 -53.488  1.00  0.00    -0.187 NA
HETATM   22  N   UNL     1     -39.760  49.979 -54.580  1.00  0.00    -0.289 N 
HETATM   23  H   UNL     1     -39.725  49.516 -55.482  1.00  0.00     0.188 HD
HETATM   24  C   UNL     1     -40.109  51.270 -54.308  1.00  0.00     0.123 A 
ENDBRANCH   3  19
TORSDOF 5
ENDMDL
MODEL 9
REMARK VINA RESULT:      -7.3      3.043      4.158
REMARK  5 active torsions:
REMARK  status: ('A' for Active; 'I' for Inactive)
REMARK    1  A    between atoms: C_4  and  C_5 
REMARK    2  A    between atoms: C_5  and  C_6 
REMARK    3  A    between atoms: C_6  and  C_7 
REMARK       I    between atoms: C_7  and  N_8 
REMARK    4  A    between atoms: N_8  and  C_9 
REMARK    5  A    between atoms: C_11  and  C_12 
ROOT
HETATM    1  C   UNL     1     -40.967  54.045 -54.116  1.00  0.00     0.035 A 
HETATM    2  C   UNL     1     -41.074  54.397 -52.767  1.00  0.00     0.042 A 
HETATM    3  C   UNL     1     -40.578  53.560 -51.751  1.00  0.00    -0.021 A 
HETATM    4  C   UNL     1     -39.967  52.353 -52.119  1.00  0.00     0.012 A 
HETATM    5  C   UNL     1     -39.852  51.994 -53.462  1.00  0.00     0.003 A 
HETATM    6  C   UNL     1     -40.349  52.837 -54.455  1.00  0.00     0.029 A 
ENDROOT
BRANCH   1   7
HETATM    7  N   UNL     1     -41.457  54.830 -55.178  1.00  0.00    -0.327 N 
HETATM    8  C   UNL     1     -42.650  54.694 -55.860  1.00  0.00     0.222 C 
HETATM    9  O   UNL     1     -43.536  53.874 -55.637  1.00  0.00    -0.273 OA
HETATM   10  H   UNL     1     -40.878  55.619 -55.454  1.00  0.00     0.169 HD
BRANCH   8  11
HETATM   11  C   UNL     1     -42.806  55.698 -56.988  1.00  0.00     0.110 C 
BRANCH  11  12
HETATM   12  C   UNL     1     -43.118  57.097 -56.471  1.00  0.00     0.074 C 
BRANCH  12  13
HETATM   13  C   UNL     1     -42.597  58.214 -57.310  1.00  0.00     0.053 A 
HETATM   14  O   UNL     1     -42.602  58.055 -58.666  1.00  0.00    -0.320 OA
HETATM   15  C   UNL     1     -42.094  59.197 -59.207  1.00  0.00     0.049 A 
HETATM   16  C   UNL     1     -42.003  59.252 -60.680  1.00  0.00     0.076 C 
HETATM   17  C   UNL     1     -41.768  60.090 -58.210  1.00  0.00     0.035 A 
HETATM   18  C   UNL     1     -42.091  59.456 -56.987  1.00  0.00     0.035 A 
ENDBRANCH  12  13
ENDBRANCH  11  12
ENDBRANCH   8  11
ENDBRANCH   1   7
BRANCH   3  19
HETATM   19  C   UNL     1     -40.685  53.925 -50.342  1.00  0.00     0.010 A 
HETATM   20  C   UNL     1     -41.132  55.119 -49.725  1.00  0.00     0.152 A 
HETATM   21  N   UNL     1     -41.077  55.073 -48.391  1.00  0.00    -0.187 NA
HETATM   22  N   UNL     1     -40.596  53.845 -48.144  1.00  0.00    -0.289 N 
HETATM   23  H   UNL     1     -40.463  53.564 -47.178  1.00  0.00     0.188 HD
HETATM   24  C   UNL     1     -40.340  53.123 -49.273  1.00  0.00     0.123 A 
ENDBRANCH   3  19
TORSDOF 5
ENDMDL
MODEL 10
REMARK VINA RESULT:      -7.2      3.920      5.215
REMARK  5 active torsions:
REMARK  status: ('A' for Active; 'I' for Inactive)
REMARK    1  A    between atoms: C_4  and  C_5 
REMARK    2  A    between atoms: C_5  and  C_6 
REMARK    3  A    between atoms: C_6  and  C_7 
REMARK       I    between atoms: C_7  and  N_8 
REMARK    4  A    between atoms: N_8  and  C_9 
REMARK    5  A    between atoms: C_11  and  C_12 
ROOT
HETATM    1  C   UNL     1     -41.369  55.812 -50.265  1.00  0.00     0.035 A 
HETATM    2  C   UNL     1     -41.076  54.964 -51.338  1.00  0.00     0.042 A 
HETATM    3  C   UNL     1     -40.583  53.663 -51.130  1.00  0.00    -0.021 A 
HETATM    4  C   UNL     1     -40.388  53.227 -49.812  1.00  0.00     0.012 A 
HETATM    5  C   UNL     1     -40.681  54.062 -48.734  1.00  0.00     0.003 A 
HETATM    6  C   UNL     1     -41.170  55.348 -48.961  1.00  0.00     0.029 A 
ENDROOT
BRANCH   1   7
HETATM    7  N   UNL     1     -41.850  57.128 -50.407  1.00  0.00    -0.327 N 
HETATM    8  C   UNL     1     -41.127  58.278 -50.656  1.00  0.00     0.222 C 
HETATM    9  O   UNL     1     -39.917  58.361 -50.841  1.00  0.00    -0.273 OA
HETATM   10  H   UNL     1     -42.859  57.244 -50.357  1.00  0.00     0.169 HD
BRANCH   8  11
HETATM   11  C   UNL     1     -41.991  59.526 -50.687  1.00  0.00     0.110 C 
BRANCH  11  12
HETATM   12  C   UNL     1     -42.613  59.759 -52.058  1.00  0.00     0.074 C 
BRANCH  12  13
HETATM   13  C   UNL     1     -42.426  58.650 -53.036  1.00  0.00     0.053 A 
HETATM   14  O   UNL     1     -43.310  57.609 -53.002  1.00  0.00    -0.320 OA
HETATM   15  C   UNL     1     -42.943  56.737 -53.983  1.00  0.00     0.049 A 
HETATM   16  C   UNL     1     -43.766  55.521 -54.133  1.00  0.00     0.076 C 
HETATM   17  C   UNL     1     -41.836  57.213 -54.650  1.00  0.00     0.035 A 
HETATM   18  C   UNL     1     -41.502  58.445 -54.039  1.00  0.00     0.035 A 
ENDBRANCH  12  13
ENDBRANCH  11  12
ENDBRANCH   8  11
ENDBRANCH   1   7
BRANCH   3  19
HETATM   19  C   UNL     1     -40.278  52.776 -52.247  1.00  0.00     0.010 A 
HETATM   20  C   UNL     1     -40.665  52.832 -53.609  1.00  0.00     0.152 A 
HETATM   21  N   UNL     1     -40.182  51.818 -54.334  1.00  0.00    -0.187 NA
HETATM   22  N   UNL     1     -39.478  51.107 -53.440  1.00  0.00    -0.289 N 
HETATM   23  H   UNL     1     -39.002  50.269 -53.757  1.00  0.00     0.188 HD
HETATM   24  C   UNL     1     -39.508  51.632 -52.181  1.00  0.00     0.123 A 
ENDBRANCH   3  19
TORSDOF 5
ENDMDL
