MODEL 1
REMARK VINA RESULT:      -9.4      0.000      0.000
REMARK  6 active torsions:
REMARK  status: ('A' for Active; 'I' for Inactive)
REMARK    1  A    between atoms: C_4  and  C_5 
REMARK    2  A    between atoms: C_5  and  N_6 
REMARK    3  A    between atoms: C_8  and  C_9 
REMARK       I    between atoms: C_9  and  N_10 
REMARK    4  A    between atoms: N_10  and  N_11 
REMARK    5  A    between atoms: C_12  and  C_13 
REMARK    6  A    between atoms: C_14  and  O_15 
ROOT
HETATM    1  C   UNL     1     -42.935  56.346 -56.639  1.00  0.00     0.273 C 
HETATM    2  N   UNL     1     -42.097  55.261 -56.442  1.00  0.00    -0.243 N 
HETATM    3  O   UNL     1     -43.650  56.847 -55.775  1.00  0.00    -0.266 OA
HETATM    4  H   UNL     1     -41.472  54.902 -57.153  1.00  0.00     0.192 HD
ENDROOT
BRANCH   2   5
HETATM    5  N   UNL     1     -41.987  54.769 -55.178  1.00  0.00    -0.183 NA
HETATM    6  C   UNL     1     -40.916  54.085 -54.909  1.00  0.00     0.153 C 
BRANCH   6   7
HETATM    7  C   UNL     1     -40.663  53.562 -53.541  1.00  0.00     0.027 A 
HETATM    8  C   UNL     1     -40.762  54.438 -52.444  1.00  0.00     0.078 A 
HETATM    9  C   UNL     1     -40.461  54.003 -51.161  1.00  0.00     0.038 A 
HETATM   10  C   UNL     1     -40.060  52.688 -50.954  1.00  0.00     0.015 A 
HETATM   11  C   UNL     1     -39.966  51.785 -52.022  1.00  0.00    -0.025 A 
HETATM   12  C   UNL     1     -40.274  52.201 -53.345  1.00  0.00    -0.012 A 
HETATM   13  C   UNL     1     -39.565  50.463 -51.768  1.00  0.00     0.012 A 
HETATM   14  C   UNL     1     -40.177  51.217 -54.365  1.00  0.00     0.013 A 
HETATM   15  C   UNL     1     -39.780  49.904 -54.094  1.00  0.00     0.001 A 
HETATM   16  C   UNL     1     -39.470  49.529 -52.796  1.00  0.00     0.001 A 
BRANCH   8  17
HETATM   17  O   UNL     1     -41.137  55.752 -52.544  1.00  0.00    -0.360 OA
HETATM   18  H   UNL     1     -41.843  55.826 -53.223  1.00  0.00     0.217 HD
ENDBRANCH   8  17
ENDBRANCH   6   7
ENDBRANCH   2   5
BRANCH   1  19
HETATM   19  C   UNL     1     -42.939  56.994 -57.972  1.00  0.00     0.049 A 
HETATM   20  C   UNL     1     -43.202  58.367 -57.983  1.00  0.00     0.108 A 
HETATM   21  N   UNL     1     -43.184  59.074 -59.138  1.00  0.00    -0.361 N 
HETATM   22  C   UNL     1     -42.930  58.461 -60.316  1.00  0.00     0.090 A 
HETATM   23  C   UNL     1     -42.688  57.090 -60.359  1.00  0.00     0.018 A 
HETATM   24  C   UNL     1     -42.693  56.348 -59.180  1.00  0.00     0.020 A 
BRANCH  21  25
HETATM   25  C   UNL     1     -43.440  60.537 -59.105  1.00  0.00     0.166 C 
BRANCH  25  26
HETATM   26  C   UNL     1     -42.178  61.311 -59.381  1.00  0.00    -0.040 A 
HETATM   27  C   UNL     1     -41.921  61.808 -60.669  1.00  0.00     0.009 A 
HETATM   28  C   UNL     1     -40.760  62.538 -60.927  1.00  0.00     0.001 A 
HETATM   29  C   UNL     1     -39.845  62.783 -59.907  1.00  0.00     0.000 A 
HETATM   30  C   UNL     1     -40.092  62.304 -58.623  1.00  0.00     0.001 A 
HETATM   31  C   UNL     1     -41.253  61.578 -58.358  1.00  0.00     0.009 A 
ENDBRANCH  25  26
ENDBRANCH  21  25
ENDBRANCH   1  19
TORSDOF 6
ENDMDL
MODEL 2
REMARK VINA RESULT:      -9.2      1.787      3.794
REMARK  6 active torsions:
REMARK  status: ('A' for Active; 'I' for Inactive)
REMARK    1  A    between atoms: C_4  and  C_5 
REMARK    2  A    between atoms: C_5  and  N_6 
REMARK    3  A    between atoms: C_8  and  C_9 
REMARK       I    between atoms: C_9  and  N_10 
REMARK    4  A    between atoms: N_10  and  N_11 
REMARK    5  A    between atoms: C_12  and  C_13 
REMARK    6  A    between atoms: C_14  and  O_15 
ROOT
HETATM    1  C   UNL     1     -42.126  57.310 -54.922  1.00  0.00     0.273 C 
HETATM    2  N   UNL     1     -42.285  55.953 -55.145  1.00  0.00    -0.243 N 
HETATM    3  O   UNL     1     -41.938  57.824 -53.822  1.00  0.00    -0.266 OA
HETATM    4  H   UNL     1     -42.380  55.545 -56.067  1.00  0.00     0.192 HD
ENDROOT
BRANCH   2   5
HETATM    5  N   UNL     1     -42.129  55.116 -54.083  1.00  0.00    -0.183 NA
HETATM    6  C   UNL     1     -40.992  54.495 -53.991  1.00  0.00     0.153 C 
BRANCH   6   7
HETATM    7  C   UNL     1     -40.690  53.612 -52.834  1.00  0.00     0.027 A 
HETATM    8  C   UNL     1     -40.741  54.147 -51.533  1.00  0.00     0.078 A 
HETATM    9  C   UNL     1     -40.394  53.372 -50.436  1.00  0.00     0.038 A 
HETATM   10  C   UNL     1     -39.996  52.053 -50.620  1.00  0.00     0.015 A 
HETATM   11  C   UNL     1     -39.949  51.484 -51.900  1.00  0.00    -0.025 A 
HETATM   12  C   UNL     1     -40.305  52.252 -53.042  1.00  0.00    -0.012 A 
HETATM   13  C   UNL     1     -39.549  50.145 -52.041  1.00  0.00     0.012 A 
HETATM   14  C   UNL     1     -40.254  51.592 -54.298  1.00  0.00     0.013 A 
HETATM   15  C   UNL     1     -39.857  50.257 -54.420  1.00  0.00     0.001 A 
HETATM   16  C   UNL     1     -39.500  49.535 -53.292  1.00  0.00     0.001 A 
BRANCH   8  17
HETATM   17  O   UNL     1     -41.109  55.435 -51.248  1.00  0.00    -0.360 OA
HETATM   18  H   UNL     1     -41.400  55.478 -50.310  1.00  0.00     0.217 HD
ENDBRANCH   8  17
ENDBRANCH   6   7
ENDBRANCH   2   5
BRANCH   1  19
HETATM   19  C   UNL     1     -42.130  58.217 -56.094  1.00  0.00     0.049 A 
HETATM   20  C   UNL     1     -42.164  57.599 -57.346  1.00  0.00     0.108 A 
HETATM   21  N   UNL     1     -42.219  58.328 -58.486  1.00  0.00    -0.361 N 
HETATM   22  C   UNL     1     -42.223  59.679 -58.439  1.00  0.00     0.090 A 
HETATM   23  C   UNL     1     -42.162  60.342 -57.216  1.00  0.00     0.018 A 
HETATM   24  C   UNL     1     -42.115  59.608 -56.032  1.00  0.00     0.020 A 
BRANCH  21  25
HETATM   25  C   UNL     1     -42.284  57.632 -59.798  1.00  0.00     0.166 C 
BRANCH  25  26
HETATM   26  C   UNL     1     -43.609  56.938 -59.975  1.00  0.00    -0.040 A 
HETATM   27  C   UNL     1     -43.680  55.535 -59.955  1.00  0.00     0.009 A 
HETATM   28  C   UNL     1     -44.906  54.886 -60.104  1.00  0.00     0.001 A 
HETATM   29  C   UNL     1     -46.074  55.626 -60.271  1.00  0.00     0.000 A 
HETATM   30  C   UNL     1     -46.020  57.018 -60.283  1.00  0.00     0.001 A 
HETATM   31  C   UNL     1     -44.796  57.671 -60.130  1.00  0.00     0.009 A 
ENDBRANCH  25  26
ENDBRANCH  21  25
ENDBRANCH   1  19
TORSDOF 6
ENDMDL
MODEL 3
REMARK VINA RESULT:      -8.9      2.257      3.937
REMARK  6 active torsions:
REMARK  status: ('A' for Active; 'I' for Inactive)
REMARK    1  A    between atoms: C_4  and  C_5 
REMARK    2  A    between atoms: C_5  and  N_6 
REMARK    3  A    between atoms: C_8  and  C_9 
REMARK       I    between atoms: C_9  and  N_10 
REMARK    4  A    between atoms: N_10  and  N_11 
REMARK    5  A    between atoms: C_12  and  C_13 
REMARK    6  A    between atoms: C_14  and  O_15 
ROOT
HETATM    1  C   UNL     1     -41.764  59.032 -54.466  1.00  0.00     0.273 C 
HETATM    2  N   UNL     1     -42.307  57.808 -54.115  1.00  0.00    -0.243 N 
HETATM    3  O   UNL     1     -40.782  59.545 -53.934  1.00  0.00    -0.266 OA
HETATM    4  H   UNL     1     -43.080  57.378 -54.607  1.00  0.00     0.192 HD
ENDROOT
BRANCH   2   5
HETATM    5  N   UNL     1     -41.652  57.073 -53.174  1.00  0.00    -0.183 NA
HETATM    6  C   UNL     1     -42.066  55.855 -52.993  1.00  0.00     0.153 C 
BRANCH   6   7
HETATM    7  C   UNL     1     -41.379  54.944 -52.042  1.00  0.00     0.027 A 
HETATM    8  C   UNL     1     -41.263  55.325 -50.691  1.00  0.00     0.078 A 
HETATM    9  C   UNL     1     -40.564  54.535 -49.790  1.00  0.00     0.038 A 
HETATM   10  C   UNL     1     -39.973  53.353 -50.222  1.00  0.00     0.015 A 
HETATM   11  C   UNL     1     -40.082  52.935 -51.555  1.00  0.00    -0.025 A 
HETATM   12  C   UNL     1     -40.797  53.722 -52.499  1.00  0.00    -0.012 A 
HETATM   13  C   UNL     1     -39.477  51.731 -51.948  1.00  0.00     0.012 A 
HETATM   14  C   UNL     1     -40.880  53.215 -53.823  1.00  0.00     0.013 A 
HETATM   15  C   UNL     1     -40.275  52.010 -54.196  1.00  0.00     0.001 A 
HETATM   16  C   UNL     1     -39.570  51.271 -53.260  1.00  0.00     0.001 A 
BRANCH   8  17
HETATM   17  O   UNL     1     -41.799  56.473 -50.171  1.00  0.00    -0.360 OA
HETATM   18  H   UNL     1     -41.418  57.243 -50.648  1.00  0.00     0.217 HD
ENDBRANCH   8  17
ENDBRANCH   6   7
ENDBRANCH   2   5
BRANCH   1  19
HETATM   19  C   UNL     1     -42.370  59.768 -55.601  1.00  0.00     0.049 A 
HETATM   20  C   UNL     1     -42.113  59.248 -56.873  1.00  0.00     0.108 A 
HETATM   21  N   UNL     1     -42.655  59.809 -57.981  1.00  0.00    -0.361 N 
HETATM   22  C   UNL     1     -43.445  60.902 -57.883  1.00  0.00     0.090 A 
HETATM   23  C   UNL     1     -43.709  61.471 -56.640  1.00  0.00     0.018 A 
HETATM   24  C   UNL     1     -43.168  60.903 -55.488  1.00  0.00     0.020 A 
BRANCH  21  25
HETATM   25  C   UNL     1     -42.381  59.210 -59.313  1.00  0.00     0.166 C 
BRANCH  25  26
HETATM   26  C   UNL     1     -43.186  57.953 -59.514  1.00  0.00    -0.040 A 
HETATM   27  C   UNL     1     -44.563  58.031 -59.780  1.00  0.00     0.009 A 
HETATM   28  C   UNL     1     -45.312  56.871 -59.982  1.00  0.00     0.001 A 
HETATM   29  C   UNL     1     -44.698  55.622 -59.923  1.00  0.00     0.000 A 
HETATM   30  C   UNL     1     -43.332  55.531 -59.670  1.00  0.00     0.001 A 
HETATM   31  C   UNL     1     -42.578  56.688 -59.472  1.00  0.00     0.009 A 
ENDBRANCH  25  26
ENDBRANCH  21  25
ENDBRANCH   1  19
TORSDOF 6
ENDMDL
MODEL 4
REMARK VINA RESULT:      -8.8      1.763     10.020
REMARK  6 active torsions:
REMARK  status: ('A' for Active; 'I' for Inactive)
REMARK    1  A    between atoms: C_4  and  C_5 
REMARK    2  A    between atoms: C_5  and  N_6 
REMARK    3  A    between atoms: C_8  and  C_9 
REMARK       I    between atoms: C_9  and  N_10 
REMARK    4  A    between atoms: N_10  and  N_11 
REMARK    5  A    between atoms: C_12  and  C_13 
REMARK    6  A    between atoms: C_14  and  O_15 
ROOT
HETATM    1  C   UNL     1     -43.346  55.130 -53.901  1.00  0.00     0.273 C 
HETATM    2  N   UNL     1     -42.980  56.361 -54.421  1.00  0.00    -0.243 N 
HETATM    3  O   UNL     1     -43.998  54.279 -54.502  1.00  0.00    -0.266 OA
HETATM    4  H   UNL     1     -42.393  57.023 -53.930  1.00  0.00     0.192 HD
ENDROOT
BRANCH   2   5
HETATM    5  N   UNL     1     -43.285  56.612 -55.724  1.00  0.00    -0.183 NA
HETATM    6  C   UNL     1     -42.416  57.297 -56.404  1.00  0.00     0.153 C 
BRANCH   6   7
HETATM    7  C   UNL     1     -42.615  57.568 -57.852  1.00  0.00     0.027 A 
HETATM    8  C   UNL     1     -43.144  56.553 -58.672  1.00  0.00     0.078 A 
HETATM    9  C   UNL     1     -43.275  56.745 -60.039  1.00  0.00     0.038 A 
HETATM   10  C   UNL     1     -42.884  57.952 -60.608  1.00  0.00     0.015 A 
HETATM   11  C   UNL     1     -42.368  58.989 -59.820  1.00  0.00    -0.025 A 
HETATM   12  C   UNL     1     -42.228  58.822 -58.415  1.00  0.00    -0.012 A 
HETATM   13  C   UNL     1     -41.992  60.195 -60.433  1.00  0.00     0.012 A 
HETATM   14  C   UNL     1     -41.720  59.932 -57.686  1.00  0.00     0.013 A 
HETATM   15  C   UNL     1     -41.355  61.127 -58.313  1.00  0.00     0.001 A 
HETATM   16  C   UNL     1     -41.487  61.256 -59.687  1.00  0.00     0.001 A 
BRANCH   8  17
HETATM   17  O   UNL     1     -43.548  55.328 -58.211  1.00  0.00    -0.360 OA
HETATM   18  H   UNL     1     -43.081  54.631 -58.721  1.00  0.00     0.217 HD
ENDBRANCH   8  17
ENDBRANCH   6   7
ENDBRANCH   2   5
BRANCH   1  19
HETATM   19  C   UNL     1     -42.879  54.778 -52.540  1.00  0.00     0.049 A 
HETATM   20  C   UNL     1     -41.613  54.193 -52.460  1.00  0.00     0.108 A 
HETATM   21  N   UNL     1     -41.063  53.874 -51.264  1.00  0.00    -0.361 N 
HETATM   22  C   UNL     1     -41.738  54.098 -50.114  1.00  0.00     0.090 A 
HETATM   23  C   UNL     1     -43.015  54.655 -50.144  1.00  0.00     0.018 A 
HETATM   24  C   UNL     1     -43.592  54.998 -51.365  1.00  0.00     0.020 A 
BRANCH  21  25
HETATM   25  C   UNL     1     -39.701  53.280 -51.219  1.00  0.00     0.166 C 
BRANCH  25  26
HETATM   26  C   UNL     1     -39.670  51.952 -51.929  1.00  0.00    -0.040 A 
HETATM   27  C   UNL     1     -39.678  50.756 -51.193  1.00  0.00     0.009 A 
HETATM   28  C   UNL     1     -39.664  49.523 -51.845  1.00  0.00     0.001 A 
HETATM   29  C   UNL     1     -39.643  49.467 -53.236  1.00  0.00     0.000 A 
HETATM   30  C   UNL     1     -39.643  50.644 -53.979  1.00  0.00     0.001 A 
HETATM   31  C   UNL     1     -39.663  51.880 -53.331  1.00  0.00     0.009 A 
ENDBRANCH  25  26
ENDBRANCH  21  25
ENDBRANCH   1  19
TORSDOF 6
ENDMDL
MODEL 5
REMARK VINA RESULT:      -8.7      2.529      3.777
REMARK  6 active torsions:
REMARK  status: ('A' for Active; 'I' for Inactive)
REMARK    1  A    between atoms: C_4  and  C_5 
REMARK    2  A    between atoms: C_5  and  N_6 
REMARK    3  A    between atoms: C_8  and  C_9 
REMARK       I    between atoms: C_9  and  N_10 
REMARK    4  A    between atoms: N_10  and  N_11 
REMARK    5  A    between atoms: C_12  and  C_13 
REMARK    6  A    between atoms: C_14  and  O_15 
ROOT
HETATM    1  C   UNL     1     -44.310  57.669 -53.659  1.00  0.00     0.273 C 
HETATM    2  N   UNL     1     -44.221  56.316 -53.940  1.00  0.00    -0.243 N 
HETATM    3  O   UNL     1     -43.927  58.197 -52.618  1.00  0.00    -0.266 OA
HETATM    4  H   UNL     1     -44.488  55.912 -54.829  1.00  0.00     0.192 HD
ENDROOT
BRANCH   2   5
HETATM    5  N   UNL     1     -43.579  55.525 -53.038  1.00  0.00    -0.183 NA
HETATM    6  C   UNL     1     -42.304  55.353 -53.215  1.00  0.00     0.153 C 
BRANCH   6   7
HETATM    7  C   UNL     1     -41.494  54.565 -52.250  1.00  0.00     0.027 A 
HETATM    8  C   UNL     1     -41.315  55.058 -50.943  1.00  0.00     0.078 A 
HETATM    9  C   UNL     1     -40.505  54.387 -50.038  1.00  0.00     0.038 A 
HETATM   10  C   UNL     1     -39.866  53.213 -50.422  1.00  0.00     0.015 A 
HETATM   11  C   UNL     1     -40.035  52.685 -51.709  1.00  0.00    -0.025 A 
HETATM   12  C   UNL     1     -40.863  53.349 -52.655  1.00  0.00    -0.012 A 
HETATM   13  C   UNL     1     -39.377  51.493 -52.054  1.00  0.00     0.012 A 
HETATM   14  C   UNL     1     -41.000  52.734 -53.929  1.00  0.00     0.013 A 
HETATM   15  C   UNL     1     -40.341  51.544 -54.253  1.00  0.00     0.001 A 
HETATM   16  C   UNL     1     -39.527  50.927 -53.317  1.00  0.00     0.001 A 
BRANCH   8  17
HETATM   17  O   UNL     1     -41.891  56.208 -50.472  1.00  0.00    -0.360 OA
HETATM   18  H   UNL     1     -41.230  56.691 -49.929  1.00  0.00     0.217 HD
ENDBRANCH   8  17
ENDBRANCH   6   7
ENDBRANCH   2   5
BRANCH   1  19
HETATM   19  C   UNL     1     -44.857  58.567 -54.703  1.00  0.00     0.049 A 
HETATM   20  C   UNL     1     -45.049  57.994 -55.963  1.00  0.00     0.108 A 
HETATM   21  N   UNL     1     -45.589  58.706 -56.981  1.00  0.00    -0.361 N 
HETATM   22  C   UNL     1     -45.938  60.000 -56.807  1.00  0.00     0.090 A 
HETATM   23  C   UNL     1     -45.742  60.623 -55.577  1.00  0.00     0.018 A 
HETATM   24  C   UNL     1     -45.197  59.904 -54.515  1.00  0.00     0.020 A 
BRANCH  21  25
HETATM   25  C   UNL     1     -45.803  58.052 -58.299  1.00  0.00     0.166 C 
BRANCH  25  26
HETATM   26  C   UNL     1     -44.491  57.660 -58.926  1.00  0.00    -0.040 A 
HETATM   27  C   UNL     1     -43.546  58.644 -59.259  1.00  0.00     0.009 A 
HETATM   28  C   UNL     1     -42.322  58.286 -59.827  1.00  0.00     0.001 A 
HETATM   29  C   UNL     1     -42.027  56.947 -60.068  1.00  0.00     0.000 A 
HETATM   30  C   UNL     1     -42.951  55.960 -59.734  1.00  0.00     0.001 A 
HETATM   31  C   UNL     1     -44.174  56.313 -59.161  1.00  0.00     0.009 A 
ENDBRANCH  25  26
ENDBRANCH  21  25
ENDBRANCH   1  19
TORSDOF 6
ENDMDL
MODEL 6
REMARK VINA RESULT:      -8.5      2.031      9.490
REMARK  6 active torsions:
REMARK  status: ('A' for Active; 'I' for Inactive)
REMARK    1  A    between atoms: C_4  and  C_5 
REMARK    2  A    between atoms: C_5  and  N_6 
REMARK    3  A    between atoms: C_8  and  C_9 
REMARK       I    between atoms: C_9  and  N_10 
REMARK    4  A    between atoms: N_10  and  N_11 
REMARK    5  A    between atoms: C_12  and  C_13 
REMARK    6  A    between atoms: C_14  and  O_15 
ROOT
HETATM    1  C   UNL     1     -43.139  55.648 -53.513  1.00  0.00     0.273 C 
HETATM    2  N   UNL     1     -42.835  56.971 -53.788  1.00  0.00    -0.243 N 
HETATM    3  O   UNL     1     -43.729  54.889 -54.278  1.00  0.00    -0.266 OA
HETATM    4  H   UNL     1     -42.295  57.561 -53.167  1.00  0.00     0.192 HD
ENDROOT
BRANCH   2   5
HETATM    5  N   UNL     1     -43.128  57.441 -55.032  1.00  0.00    -0.183 NA
HETATM    6  C   UNL     1     -42.128  57.858 -55.749  1.00  0.00     0.153 C 
BRANCH   6   7
HETATM    7  C   UNL     1     -42.327  58.326 -57.145  1.00  0.00     0.027 A 
HETATM    8  C   UNL     1     -42.015  59.659 -57.471  1.00  0.00     0.078 A 
HETATM    9  C   UNL     1     -42.257  60.151 -58.745  1.00  0.00     0.038 A 
HETATM   10  C   UNL     1     -42.810  59.320 -59.714  1.00  0.00     0.015 A 
HETATM   11  C   UNL     1     -43.117  57.983 -59.427  1.00  0.00    -0.025 A 
HETATM   12  C   UNL     1     -42.875  57.450 -58.132  1.00  0.00    -0.012 A 
HETATM   13  C   UNL     1     -43.668  57.175 -60.436  1.00  0.00     0.012 A 
HETATM   14  C   UNL     1     -43.192  56.080 -57.933  1.00  0.00     0.013 A 
HETATM   15  C   UNL     1     -43.735  55.289 -58.950  1.00  0.00     0.001 A 
HETATM   16  C   UNL     1     -43.977  55.838 -60.200  1.00  0.00     0.001 A 
BRANCH   8  17
HETATM   17  O   UNL     1     -41.478  60.559 -56.588  1.00  0.00    -0.360 OA
HETATM   18  H   UNL     1     -41.693  61.467 -56.895  1.00  0.00     0.217 HD
ENDBRANCH   8  17
ENDBRANCH   6   7
ENDBRANCH   2   5
BRANCH   1  19
HETATM   19  C   UNL     1     -42.678  55.077 -52.226  1.00  0.00     0.049 A 
HETATM   20  C   UNL     1     -41.473  54.371 -52.266  1.00  0.00     0.108 A 
HETATM   21  N   UNL     1     -40.931  53.846 -51.142  1.00  0.00    -0.361 N 
HETATM   22  C   UNL     1     -41.556  53.977 -49.950  1.00  0.00     0.090 A 
HETATM   23  C   UNL     1     -42.773  54.650 -49.863  1.00  0.00     0.018 A 
HETATM   24  C   UNL     1     -43.341  55.205 -51.008  1.00  0.00     0.020 A 
BRANCH  21  25
HETATM   25  C   UNL     1     -39.633  53.126 -51.221  1.00  0.00     0.166 C 
BRANCH  25  26
HETATM   26  C   UNL     1     -39.731  51.940 -52.144  1.00  0.00    -0.040 A 
HETATM   27  C   UNL     1     -40.002  52.127 -53.509  1.00  0.00     0.009 A 
HETATM   28  C   UNL     1     -40.079  51.032 -54.371  1.00  0.00     0.001 A 
HETATM   29  C   UNL     1     -39.886  49.742 -53.885  1.00  0.00     0.000 A 
HETATM   30  C   UNL     1     -39.608  49.543 -52.535  1.00  0.00     0.001 A 
HETATM   31  C   UNL     1     -39.524  50.634 -51.669  1.00  0.00     0.009 A 
ENDBRANCH  25  26
ENDBRANCH  21  25
ENDBRANCH   1  19
TORSDOF 6
ENDMDL
MODEL 7
REMARK VINA RESULT:      -8.4      2.681      4.764
REMARK  6 active torsions:
REMARK  status: ('A' for Active; 'I' for Inactive)
REMARK    1  A    between atoms: C_4  and  C_5 
REMARK    2  A    between atoms: C_5  and  N_6 
REMARK    3  A    between atoms: C_8  and  C_9 
REMARK       I    between atoms: C_9  and  N_10 
REMARK    4  A    between atoms: N_10  and  N_11 
REMARK    5  A    between atoms: C_12  and  C_13 
REMARK    6  A    between atoms: C_14  and  O_15 
ROOT
HETATM    1  C   UNL     1     -43.907  56.868 -54.137  1.00  0.00     0.273 C 
HETATM    2  N   UNL     1     -43.403  55.690 -54.662  1.00  0.00    -0.243 N 
HETATM    3  O   UNL     1     -43.998  57.121 -52.938  1.00  0.00    -0.266 OA
HETATM    4  H   UNL     1     -43.282  55.527 -55.654  1.00  0.00     0.192 HD
ENDROOT
BRANCH   2   5
HETATM    5  N   UNL     1     -42.884  54.782 -53.791  1.00  0.00    -0.183 NA
HETATM    6  C   UNL     1     -41.589  54.674 -53.764  1.00  0.00     0.153 C 
BRANCH   6   7
HETATM    7  C   UNL     1     -40.915  53.764 -52.802  1.00  0.00     0.027 A 
HETATM    8  C   UNL     1     -40.342  52.569 -53.276  1.00  0.00     0.078 A 
HETATM    9  C   UNL     1     -39.770  51.660 -52.397  1.00  0.00     0.038 A 
HETATM   10  C   UNL     1     -39.758  51.932 -51.033  1.00  0.00     0.015 A 
HETATM   11  C   UNL     1     -40.306  53.119 -50.529  1.00  0.00    -0.025 A 
HETATM   12  C   UNL     1     -40.893  54.071 -51.407  1.00  0.00    -0.012 A 
HETATM   13  C   UNL     1     -40.266  53.359 -49.145  1.00  0.00     0.012 A 
HETATM   14  C   UNL     1     -41.402  55.258 -50.816  1.00  0.00     0.013 A 
HETATM   15  C   UNL     1     -41.351  55.482 -49.437  1.00  0.00     0.001 A 
HETATM   16  C   UNL     1     -40.787  54.530 -48.601  1.00  0.00     0.001 A 
BRANCH   8  17
HETATM   17  O   UNL     1     -40.312  52.204 -54.596  1.00  0.00    -0.360 OA
HETATM   18  H   UNL     1     -40.713  51.312 -54.685  1.00  0.00     0.217 HD
ENDBRANCH   8  17
ENDBRANCH   6   7
ENDBRANCH   2   5
BRANCH   1  19
HETATM   19  C   UNL     1     -44.324  57.933 -55.080  1.00  0.00     0.049 A 
HETATM   20  C   UNL     1     -43.881  57.791 -56.397  1.00  0.00     0.108 A 
HETATM   21  N   UNL     1     -44.240  58.677 -57.356  1.00  0.00    -0.361 N 
HETATM   22  C   UNL     1     -45.024  59.737 -57.055  1.00  0.00     0.090 A 
HETATM   23  C   UNL     1     -45.469  59.936 -55.750  1.00  0.00     0.018 A 
HETATM   24  C   UNL     1     -45.117  59.029 -54.752  1.00  0.00     0.020 A 
BRANCH  21  25
HETATM   25  C   UNL     1     -43.772  58.476 -58.753  1.00  0.00     0.166 C 
BRANCH  25  26
HETATM   26  C   UNL     1     -44.330  57.201 -59.329  1.00  0.00    -0.040 A 
HETATM   27  C   UNL     1     -45.661  57.148 -59.772  1.00  0.00     0.009 A 
HETATM   28  C   UNL     1     -46.180  55.974 -60.319  1.00  0.00     0.001 A 
HETATM   29  C   UNL     1     -45.378  54.841 -60.434  1.00  0.00     0.000 A 
HETATM   30  C   UNL     1     -44.053  54.882 -60.008  1.00  0.00     0.001 A 
HETATM   31  C   UNL     1     -43.529  56.055 -59.463  1.00  0.00     0.009 A 
ENDBRANCH  25  26
ENDBRANCH  21  25
ENDBRANCH   1  19
TORSDOF 6
ENDMDL
MODEL 8
REMARK VINA RESULT:      -8.2      6.328      7.944
REMARK  6 active torsions:
REMARK  status: ('A' for Active; 'I' for Inactive)
REMARK    1  A    between atoms: C_4  and  C_5 
REMARK    2  A    between atoms: C_5  and  N_6 
REMARK    3  A    between atoms: C_8  and  C_9 
REMARK       I    between atoms: C_9  and  N_10 
REMARK    4  A    between atoms: N_10  and  N_11 
REMARK    5  A    between atoms: C_12  and  C_13 
REMARK    6  A    between atoms: C_14  and  O_15 
ROOT
HETATM    1  C   UNL     1     -43.103  58.785 -52.384  1.00  0.00     0.273 C 
HETATM    2  N   UNL     1     -42.624  57.764 -51.580  1.00  0.00    -0.243 N 
HETATM    3  O   UNL     1     -42.733  59.005 -53.535  1.00  0.00    -0.266 OA
HETATM    4  H   UNL     1     -42.986  57.565 -50.655  1.00  0.00     0.192 HD
ENDROOT
BRANCH   2   5
HETATM    5  N   UNL     1     -41.748  56.882 -52.134  1.00  0.00    -0.183 NA
HETATM    6  C   UNL     1     -42.223  55.719 -52.467  1.00  0.00     0.153 C 
BRANCH   6   7
HETATM    7  C   UNL     1     -41.371  54.707 -53.142  1.00  0.00     0.027 A 
HETATM    8  C   UNL     1     -41.122  54.832 -54.522  1.00  0.00     0.078 A 
HETATM    9  C   UNL     1     -40.393  53.866 -55.200  1.00  0.00     0.038 A 
HETATM   10  C   UNL     1     -39.898  52.764 -54.512  1.00  0.00     0.015 A 
HETATM   11  C   UNL     1     -40.114  52.615 -53.135  1.00  0.00    -0.025 A 
HETATM   12  C   UNL     1     -40.853  53.593 -52.414  1.00  0.00    -0.012 A 
HETATM   13  C   UNL     1     -39.591  51.491 -52.476  1.00  0.00     0.012 A 
HETATM   14  C   UNL     1     -41.004  53.378 -51.017  1.00  0.00     0.013 A 
HETATM   15  C   UNL     1     -40.472  52.255 -50.377  1.00  0.00     0.001 A 
HETATM   16  C   UNL     1     -39.769  51.310 -51.107  1.00  0.00     0.001 A 
BRANCH   8  17
HETATM   17  O   UNL     1     -41.573  55.872 -55.291  1.00  0.00    -0.360 OA
HETATM   18  H   UNL     1     -40.831  56.195 -55.849  1.00  0.00     0.217 HD
ENDBRANCH   8  17
ENDBRANCH   6   7
ENDBRANCH   2   5
BRANCH   1  19
HETATM   19  C   UNL     1     -44.178  59.653 -51.848  1.00  0.00     0.049 A 
HETATM   20  C   UNL     1     -43.760  60.719 -51.046  1.00  0.00     0.108 A 
HETATM   21  N   UNL     1     -44.651  61.606 -50.542  1.00  0.00    -0.361 N 
HETATM   22  C   UNL     1     -45.973  61.469 -50.788  1.00  0.00     0.090 A 
HETATM   23  C   UNL     1     -46.440  60.408 -51.560  1.00  0.00     0.018 A 
HETATM   24  C   UNL     1     -45.538  59.491 -52.095  1.00  0.00     0.020 A 
BRANCH  21  25
HETATM   25  C   UNL     1     -44.164  62.743 -49.716  1.00  0.00     0.166 C 
BRANCH  25  26
HETATM   26  C   UNL     1     -44.576  62.577 -48.277  1.00  0.00    -0.040 A 
HETATM   27  C   UNL     1     -44.956  63.696 -47.518  1.00  0.00     0.009 A 
HETATM   28  C   UNL     1     -45.351  63.548 -46.188  1.00  0.00     0.001 A 
HETATM   29  C   UNL     1     -45.375  62.285 -45.601  1.00  0.00     0.000 A 
HETATM   30  C   UNL     1     -45.009  61.166 -46.345  1.00  0.00     0.001 A 
HETATM   31  C   UNL     1     -44.617  61.309 -47.676  1.00  0.00     0.009 A 
ENDBRANCH  25  26
ENDBRANCH  21  25
ENDBRANCH   1  19
TORSDOF 6
ENDMDL
MODEL 9
REMARK VINA RESULT:      -8.1      7.222      9.391
REMARK  6 active torsions:
REMARK  status: ('A' for Active; 'I' for Inactive)
REMARK    1  A    between atoms: C_4  and  C_5 
REMARK    2  A    between atoms: C_5  and  N_6 
REMARK    3  A    between atoms: C_8  and  C_9 
REMARK       I    between atoms: C_9  and  N_10 
REMARK    4  A    between atoms: N_10  and  N_11 
REMARK    5  A    between atoms: C_12  and  C_13 
REMARK    6  A    between atoms: C_14  and  O_15 
ROOT
HETATM    1  C   UNL     1     -43.886  59.702 -51.038  1.00  0.00     0.273 C 
HETATM    2  N   UNL     1     -42.758  59.429 -51.794  1.00  0.00    -0.243 N 
HETATM    3  O   UNL     1     -44.806  58.913 -50.838  1.00  0.00    -0.266 OA
HETATM    4  H   UNL     1     -41.984  60.074 -51.896  1.00  0.00     0.192 HD
ENDROOT
BRANCH   2   5
HETATM    5  N   UNL     1     -42.611  58.164 -52.275  1.00  0.00    -0.183 NA
HETATM    6  C   UNL     1     -41.499  57.556 -51.989  1.00  0.00     0.153 C 
BRANCH   6   7
HETATM    7  C   UNL     1     -41.265  56.149 -52.404  1.00  0.00     0.027 A 
HETATM    8  C   UNL     1     -41.387  55.807 -53.764  1.00  0.00     0.078 A 
HETATM    9  C   UNL     1     -41.248  54.491 -54.179  1.00  0.00     0.038 A 
HETATM   10  C   UNL     1     -40.981  53.497 -53.244  1.00  0.00     0.015 A 
HETATM   11  C   UNL     1     -40.837  53.804 -51.884  1.00  0.00    -0.025 A 
HETATM   12  C   UNL     1     -40.969  55.146 -51.432  1.00  0.00    -0.012 A 
HETATM   13  C   UNL     1     -40.560  52.771 -50.973  1.00  0.00     0.012 A 
HETATM   14  C   UNL     1     -40.784  55.373 -50.042  1.00  0.00     0.013 A 
HETATM   15  C   UNL     1     -40.504  54.334 -49.150  1.00  0.00     0.001 A 
HETATM   16  C   UNL     1     -40.397  53.032 -49.615  1.00  0.00     0.001 A 
BRANCH   8  17
HETATM   17  O   UNL     1     -41.658  56.709 -54.760  1.00  0.00    -0.360 OA
HETATM   18  H   UNL     1     -40.963  57.403 -54.753  1.00  0.00     0.217 HD
ENDBRANCH   8  17
ENDBRANCH   6   7
ENDBRANCH   2   5
BRANCH   1  19
HETATM   19  C   UNL     1     -43.979  61.022 -50.371  1.00  0.00     0.049 A 
HETATM   20  C   UNL     1     -44.932  61.128 -49.355  1.00  0.00     0.108 A 
HETATM   21  N   UNL     1     -45.073  62.272 -48.643  1.00  0.00    -0.361 N 
HETATM   22  C   UNL     1     -44.305  63.351 -48.915  1.00  0.00     0.090 A 
HETATM   23  C   UNL     1     -43.360  63.303 -49.937  1.00  0.00     0.018 A 
HETATM   24  C   UNL     1     -43.194  62.132 -50.673  1.00  0.00     0.020 A 
BRANCH  21  25
HETATM   25  C   UNL     1     -46.078  62.335 -47.550  1.00  0.00     0.166 C 
BRANCH  25  26
HETATM   26  C   UNL     1     -45.410  62.288 -46.201  1.00  0.00    -0.040 A 
HETATM   27  C   UNL     1     -44.809  61.102 -45.751  1.00  0.00     0.009 A 
HETATM   28  C   UNL     1     -44.176  61.056 -44.508  1.00  0.00     0.001 A 
HETATM   29  C   UNL     1     -44.133  62.191 -43.702  1.00  0.00     0.000 A 
HETATM   30  C   UNL     1     -44.718  63.377 -44.139  1.00  0.00     0.001 A 
HETATM   31  C   UNL     1     -45.348  63.428 -45.384  1.00  0.00     0.009 A 
ENDBRANCH  25  26
ENDBRANCH  21  25
ENDBRANCH   1  19
TORSDOF 6
ENDMDL
MODEL 10
REMARK VINA RESULT:      -8.1      2.729      4.281
REMARK  6 active torsions:
REMARK  status: ('A' for Active; 'I' for Inactive)
REMARK    1  A    between atoms: C_4  and  C_5 
REMARK    2  A    between atoms: C_5  and  N_6 
REMARK    3  A    between atoms: C_8  and  C_9 
REMARK       I    between atoms: C_9  and  N_10 
REMARK    4  A    between atoms: N_10  and  N_11 
REMARK    5  A    between atoms: C_12  and  C_13 
REMARK    6  A    between atoms: C_14  and  O_15 
ROOT
HETATM    1  C   UNL     1     -42.584  57.500 -55.166  1.00  0.00     0.273 C 
HETATM    2  N   UNL     1     -42.278  57.811 -53.852  1.00  0.00    -0.243 N 
HETATM    3  O   UNL     1     -42.127  56.544 -55.787  1.00  0.00    -0.266 OA
HETATM    4  H   UNL     1     -42.712  58.570 -53.342  1.00  0.00     0.192 HD
ENDROOT
BRANCH   2   5
HETATM    5  N   UNL     1     -41.485  56.943 -53.166  1.00  0.00    -0.183 NA
HETATM    6  C   UNL     1     -42.081  56.134 -52.343  1.00  0.00     0.153 C 
BRANCH   6   7
HETATM    7  C   UNL     1     -41.319  55.100 -51.596  1.00  0.00     0.027 A 
HETATM    8  C   UNL     1     -41.017  55.319 -50.239  1.00  0.00     0.078 A 
HETATM    9  C   UNL     1     -40.244  54.411 -49.530  1.00  0.00     0.038 A 
HETATM   10  C   UNL     1     -39.765  53.269 -50.163  1.00  0.00     0.015 A 
HETATM   11  C   UNL     1     -40.060  53.012 -51.509  1.00  0.00    -0.025 A 
HETATM   12  C   UNL     1     -40.854  53.923 -52.258  1.00  0.00    -0.012 A 
HETATM   13  C   UNL     1     -39.563  51.843 -52.109  1.00  0.00     0.012 A 
HETATM   14  C   UNL     1     -41.127  53.574 -53.608  1.00  0.00     0.013 A 
HETATM   15  C   UNL     1     -40.627  52.404 -54.188  1.00  0.00     0.001 A 
HETATM   16  C   UNL     1     -39.842  51.541 -53.439  1.00  0.00     0.001 A 
BRANCH   8  17
HETATM   17  O   UNL     1     -41.432  56.415 -49.528  1.00  0.00    -0.360 OA
HETATM   18  H   UNL     1     -41.268  56.251 -48.574  1.00  0.00     0.217 HD
ENDBRANCH   8  17
ENDBRANCH   6   7
ENDBRANCH   2   5
BRANCH   1  19
HETATM   19  C   UNL     1     -43.575  58.345 -55.873  1.00  0.00     0.049 A 
HETATM   20  C   UNL     1     -43.518  58.318 -57.269  1.00  0.00     0.108 A 
HETATM   21  N   UNL     1     -44.405  59.012 -58.021  1.00  0.00    -0.361 N 
HETATM   22  C   UNL     1     -45.361  59.768 -57.434  1.00  0.00     0.090 A 
HETATM   23  C   UNL     1     -45.442  59.848 -56.046  1.00  0.00     0.018 A 
HETATM   24  C   UNL     1     -44.544  59.133 -55.257  1.00  0.00     0.020 A 
BRANCH  21  25
HETATM   25  C   UNL     1     -44.328  58.934 -59.503  1.00  0.00     0.166 C 
BRANCH  25  26
HETATM   26  C   UNL     1     -45.450  58.094 -60.057  1.00  0.00    -0.040 A 
HETATM   27  C   UNL     1     -46.563  58.707 -60.655  1.00  0.00     0.009 A 
HETATM   28  C   UNL     1     -47.598  57.934 -61.182  1.00  0.00     0.001 A 
HETATM   29  C   UNL     1     -47.535  56.544 -61.122  1.00  0.00     0.000 A 
HETATM   30  C   UNL     1     -46.433  55.923 -60.540  1.00  0.00     0.001 A 
HETATM   31  C   UNL     1     -45.393  56.692 -60.016  1.00  0.00     0.009 A 
ENDBRANCH  25  26
ENDBRANCH  21  25
ENDBRANCH   1  19
TORSDOF 6
ENDMDL
