MODEL 1
REMARK VINA RESULT:      -7.7      0.000      0.000
REMARK  5 active torsions:
REMARK  status: ('A' for Active; 'I' for Inactive)
REMARK    1  A    between atoms: C_2  and  O_3 
REMARK    2  A    between atoms: O_3  and  C_4 
REMARK    3  A    between atoms: C_9  and  C_10 
REMARK    4  A    between atoms: C_10  and  N_11 
REMARK       I    between atoms: N_11  and  C_12 
REMARK       I    between atoms: C_12  and  N_13 
REMARK    5  A    between atoms: N_13  and  C_14 
ROOT
HETATM    1  N   UNL     1     -41.378  54.881 -50.137  1.00  0.00    -0.338 N 
HETATM    2  C   UNL     1     -40.734  54.133 -49.206  1.00  0.00     0.320 C 
HETATM    3  N   UNL     1     -40.370  52.868 -49.548  1.00  0.00    -0.309 N 
HETATM    4  O   UNL     1     -40.508  54.531 -48.065  1.00  0.00    -0.247 OA
HETATM    5  H   UNL     1     -41.942  54.373 -50.803  1.00  0.00     0.164 HD
HETATM    6  H   UNL     1     -40.076  52.351 -48.726  1.00  0.00     0.170 HD
ENDROOT
BRANCH   1   7
HETATM    7  C   UNL     1     -41.727  56.270 -49.907  1.00  0.00     0.167 C 
BRANCH   7   8
HETATM    8  C   UNL     1     -41.232  57.212 -50.972  1.00  0.00     0.013 A 
HETATM    9  C   UNL     1     -41.484  56.958 -52.322  1.00  0.00     0.172 A 
HETATM   10  N   UNL     1     -41.041  57.736 -53.337  1.00  0.00    -0.237 NA
HETATM   11  C   UNL     1     -40.286  58.804 -53.003  1.00  0.00     0.119 A 
HETATM   12  C   UNL     1     -39.950  59.130 -51.704  1.00  0.00     0.020 A 
HETATM   13  C   UNL     1     -40.424  58.317 -50.677  1.00  0.00     0.014 A 
BRANCH   9  14
HETATM   14  O   UNL     1     -42.230  55.835 -52.624  1.00  0.00    -0.334 OA
BRANCH  14  15
HETATM   15  C   UNL     1     -43.280  56.076 -53.562  1.00  0.00     0.173 C 
HETATM   16  C   UNL     1     -43.621  54.753 -54.225  1.00  0.00     0.034 C 
ENDBRANCH  14  15
ENDBRANCH   9  14
ENDBRANCH   7   8
ENDBRANCH   1   7
BRANCH   3  17
HETATM   17  C   UNL     1     -40.198  52.216 -50.784  1.00  0.00     0.037 A 
HETATM   18  C   UNL     1     -40.274  52.839 -52.030  1.00  0.00     0.049 A 
HETATM   19  C   UNL     1     -40.059  52.107 -53.208  1.00  0.00     0.019 A 
HETATM   20 BR   UNL     1     -40.229  53.042 -54.855  1.00  0.00    -0.051 Br
HETATM   21  C   UNL     1     -39.728  50.745 -53.162  1.00  0.00    -0.044 A 
HETATM   22  C   UNL     1     -39.492  49.922 -54.397  1.00  0.00     0.049 C 
HETATM   23  C   UNL     1     -39.640  50.129 -51.907  1.00  0.00     0.010 A 
HETATM   24  C   UNL     1     -39.866  50.858 -50.735  1.00  0.00     0.030 A 
ENDBRANCH   3  17
TORSDOF 5
ENDMDL
MODEL 2
REMARK VINA RESULT:      -7.3      2.629      6.974
REMARK  5 active torsions:
REMARK  status: ('A' for Active; 'I' for Inactive)
REMARK    1  A    between atoms: C_2  and  O_3 
REMARK    2  A    between atoms: O_3  and  C_4 
REMARK    3  A    between atoms: C_9  and  C_10 
REMARK    4  A    between atoms: C_10  and  N_11 
REMARK       I    between atoms: N_11  and  C_12 
REMARK       I    between atoms: C_12  and  N_13 
REMARK    5  A    between atoms: N_13  and  C_14 
ROOT
HETATM    1  N   UNL     1     -41.024  54.288 -53.794  1.00  0.00    -0.338 N 
HETATM    2  C   UNL     1     -42.316  54.491 -54.152  1.00  0.00     0.320 C 
HETATM    3  N   UNL     1     -42.998  55.492 -53.534  1.00  0.00    -0.309 N 
HETATM    4  O   UNL     1     -42.904  53.787 -54.971  1.00  0.00    -0.247 OA
HETATM    5  H   UNL     1     -40.782  54.530 -52.844  1.00  0.00     0.164 HD
HETATM    6  H   UNL     1     -43.989  55.424 -53.739  1.00  0.00     0.170 HD
ENDROOT
BRANCH   1   7
HETATM    7  C   UNL     1     -40.182  53.309 -54.455  1.00  0.00     0.167 C 
BRANCH   7   8
HETATM    8  C   UNL     1     -40.012  52.026 -53.686  1.00  0.00     0.013 A 
HETATM    9  C   UNL     1     -39.818  52.044 -52.303  1.00  0.00     0.172 A 
HETATM   10  N   UNL     1     -39.620  50.937 -51.549  1.00  0.00    -0.237 NA
HETATM   11  C   UNL     1     -39.583  49.755 -52.199  1.00  0.00     0.119 A 
HETATM   12  C   UNL     1     -39.731  49.625 -53.567  1.00  0.00     0.020 A 
HETATM   13  C   UNL     1     -39.940  50.778 -54.319  1.00  0.00     0.014 A 
BRANCH   9  14
HETATM   14  O   UNL     1     -39.827  53.277 -51.681  1.00  0.00    -0.334 OA
BRANCH  14  15
HETATM   15  C   UNL     1     -40.346  53.247 -50.350  1.00  0.00     0.173 C 
HETATM   16  C   UNL     1     -39.623  54.313 -49.547  1.00  0.00     0.034 C 
ENDBRANCH  14  15
ENDBRANCH   9  14
ENDBRANCH   7   8
ENDBRANCH   1   7
BRANCH   3  17
HETATM   17  C   UNL     1     -42.592  56.632 -52.814  1.00  0.00     0.037 A 
HETATM   18  C   UNL     1     -42.794  57.949 -53.226  1.00  0.00     0.049 A 
HETATM   19  C   UNL     1     -42.376  59.021 -52.424  1.00  0.00     0.019 A 
HETATM   20 BR   UNL     1     -42.662  60.776 -53.098  1.00  0.00    -0.051 Br
HETATM   21  C   UNL     1     -41.778  58.797 -51.174  1.00  0.00    -0.044 A 
HETATM   22  C   UNL     1     -41.313  59.914 -50.283  1.00  0.00     0.049 C 
HETATM   23  C   UNL     1     -41.589  57.473 -50.761  1.00  0.00     0.010 A 
HETATM   24  C   UNL     1     -41.997  56.406 -51.567  1.00  0.00     0.030 A 
ENDBRANCH   3  17
TORSDOF 5
ENDMDL
MODEL 3
REMARK VINA RESULT:      -7.2      2.308      5.950
REMARK  5 active torsions:
REMARK  status: ('A' for Active; 'I' for Inactive)
REMARK    1  A    between atoms: C_2  and  O_3 
REMARK    2  A    between atoms: O_3  and  C_4 
REMARK    3  A    between atoms: C_9  and  C_10 
REMARK    4  A    between atoms: C_10  and  N_11 
REMARK       I    between atoms: N_11  and  C_12 
REMARK       I    between atoms: C_12  and  N_13 
REMARK    5  A    between atoms: N_13  and  C_14 
ROOT
HETATM    1  N   UNL     1     -40.664  54.783 -50.603  1.00  0.00    -0.338 N 
HETATM    2  C   UNL     1     -41.087  55.520 -49.546  1.00  0.00     0.320 C 
HETATM    3  N   UNL     1     -41.348  56.839 -49.755  1.00  0.00    -0.309 N 
HETATM    4  O   UNL     1     -41.202  55.062 -48.412  1.00  0.00    -0.247 OA
HETATM    5  H   UNL     1     -40.141  55.279 -51.310  1.00  0.00     0.164 HD
HETATM    6  H   UNL     1     -41.469  57.319 -48.870  1.00  0.00     0.170 HD
ENDROOT
BRANCH   1   7
HETATM    7  C   UNL     1     -40.447  53.352 -50.511  1.00  0.00     0.167 C 
BRANCH   7   8
HETATM    8  C   UNL     1     -40.309  52.664 -51.843  1.00  0.00     0.013 A 
HETATM    9  C   UNL     1     -41.087  53.060 -52.934  1.00  0.00     0.172 A 
HETATM   10  N   UNL     1     -41.047  52.467 -54.150  1.00  0.00    -0.237 NA
HETATM   11  C   UNL     1     -40.218  51.412 -54.288  1.00  0.00     0.119 A 
HETATM   12  C   UNL     1     -39.429  50.917 -53.268  1.00  0.00     0.020 A 
HETATM   13  C   UNL     1     -39.483  51.548 -52.028  1.00  0.00     0.014 A 
BRANCH   9  14
HETATM   14  O   UNL     1     -41.949  54.123 -52.741  1.00  0.00    -0.334 OA
BRANCH  14  15
HETATM   15  C   UNL     1     -42.162  54.911 -53.913  1.00  0.00     0.173 C 
HETATM   16  C   UNL     1     -40.925  55.764 -54.129  1.00  0.00     0.034 C 
ENDBRANCH  14  15
ENDBRANCH   9  14
ENDBRANCH   7   8
ENDBRANCH   1   7
BRANCH   3  17
HETATM   17  C   UNL     1     -41.610  57.597 -50.911  1.00  0.00     0.037 A 
HETATM   18  C   UNL     1     -42.852  57.691 -51.538  1.00  0.00     0.049 A 
HETATM   19  C   UNL     1     -43.020  58.497 -52.674  1.00  0.00     0.019 A 
HETATM   20 BR   UNL     1     -44.744  58.521 -53.477  1.00  0.00    -0.051 Br
HETATM   21  C   UNL     1     -41.956  59.255 -53.185  1.00  0.00    -0.044 A 
HETATM   22  C   UNL     1     -42.089  60.129 -54.400  1.00  0.00     0.049 C 
HETATM   23  C   UNL     1     -40.715  59.166 -52.544  1.00  0.00     0.010 A 
HETATM   24  C   UNL     1     -40.547  58.354 -51.418  1.00  0.00     0.030 A 
ENDBRANCH   3  17
TORSDOF 5
ENDMDL
MODEL 4
REMARK VINA RESULT:      -7.2      4.430      7.550
REMARK  5 active torsions:
REMARK  status: ('A' for Active; 'I' for Inactive)
REMARK    1  A    between atoms: C_2  and  O_3 
REMARK    2  A    between atoms: O_3  and  C_4 
REMARK    3  A    between atoms: C_9  and  C_10 
REMARK    4  A    between atoms: C_10  and  N_11 
REMARK       I    between atoms: N_11  and  C_12 
REMARK       I    between atoms: C_12  and  N_13 
REMARK    5  A    between atoms: N_13  and  C_14 
ROOT
HETATM    1  N   UNL     1     -41.374  55.201 -55.936  1.00  0.00    -0.338 N 
HETATM    2  C   UNL     1     -42.679  54.912 -56.168  1.00  0.00     0.320 C 
HETATM    3  N   UNL     1     -43.392  55.769 -56.947  1.00  0.00    -0.309 N 
HETATM    4  O   UNL     1     -43.249  53.941 -55.673  1.00  0.00    -0.247 OA
HETATM    5  H   UNL     1     -41.129  56.181 -55.935  1.00  0.00     0.164 HD
HETATM    6  H   UNL     1     -44.382  55.556 -56.892  1.00  0.00     0.170 HD
ENDROOT
BRANCH   1   7
HETATM    7  C   UNL     1     -40.503  54.307 -55.197  1.00  0.00     0.167 C 
BRANCH   7   8
HETATM    8  C   UNL     1     -40.728  54.322 -53.708  1.00  0.00     0.013 A 
HETATM    9  C   UNL     1     -40.830  53.129 -52.990  1.00  0.00     0.172 A 
HETATM   10  N   UNL     1     -41.069  53.062 -51.659  1.00  0.00    -0.237 NA
HETATM   11  C   UNL     1     -41.244  54.231 -51.010  1.00  0.00     0.119 A 
HETATM   12  C   UNL     1     -41.195  55.467 -51.627  1.00  0.00     0.020 A 
HETATM   13  C   UNL     1     -40.941  55.509 -52.996  1.00  0.00     0.014 A 
BRANCH   9  14
HETATM   14  O   UNL     1     -40.680  51.952 -53.698  1.00  0.00    -0.334 OA
BRANCH  14  15
HETATM   15  C   UNL     1     -39.530  51.195 -53.320  1.00  0.00     0.173 C 
HETATM   16  C   UNL     1     -39.469  49.968 -54.212  1.00  0.00     0.034 C 
ENDBRANCH  14  15
ENDBRANCH   9  14
ENDBRANCH   7   8
ENDBRANCH   1   7
BRANCH   3  17
HETATM   17  C   UNL     1     -43.021  56.756 -57.880  1.00  0.00     0.037 A 
HETATM   18  C   UNL     1     -42.597  58.044 -57.551  1.00  0.00     0.049 A 
HETATM   19  C   UNL     1     -42.222  58.950 -58.554  1.00  0.00     0.019 A 
HETATM   20 BR   UNL     1     -41.700  60.693 -58.001  1.00  0.00    -0.051 Br
HETATM   21  C   UNL     1     -42.229  58.575 -59.906  1.00  0.00    -0.044 A 
HETATM   22  C   UNL     1     -41.838  59.512 -61.013  1.00  0.00     0.049 C 
HETATM   23  C   UNL     1     -42.644  57.276 -60.228  1.00  0.00     0.010 A 
HETATM   24  C   UNL     1     -43.028  56.379 -59.227  1.00  0.00     0.030 A 
ENDBRANCH   3  17
TORSDOF 5
ENDMDL
MODEL 5
REMARK VINA RESULT:      -7.0      3.175      4.701
REMARK  5 active torsions:
REMARK  status: ('A' for Active; 'I' for Inactive)
REMARK    1  A    between atoms: C_2  and  O_3 
REMARK    2  A    between atoms: O_3  and  C_4 
REMARK    3  A    between atoms: C_9  and  C_10 
REMARK    4  A    between atoms: C_10  and  N_11 
REMARK       I    between atoms: N_11  and  C_12 
REMARK       I    between atoms: C_12  and  N_13 
REMARK    5  A    between atoms: N_13  and  C_14 
ROOT
HETATM    1  N   UNL     1     -43.098  56.233 -54.739  1.00  0.00    -0.338 N 
HETATM    2  C   UNL     1     -42.274  55.996 -55.790  1.00  0.00     0.320 C 
HETATM    3  N   UNL     1     -41.194  55.196 -55.584  1.00  0.00    -0.309 N 
HETATM    4  O   UNL     1     -42.438  56.504 -56.898  1.00  0.00    -0.247 OA
HETATM    5  H   UNL     1     -42.668  56.218 -53.825  1.00  0.00     0.164 HD
HETATM    6  H   UNL     1     -40.561  55.247 -56.375  1.00  0.00     0.170 HD
ENDROOT
BRANCH   1   7
HETATM    7  C   UNL     1     -44.325  56.995 -54.874  1.00  0.00     0.167 C 
BRANCH   7   8
HETATM    8  C   UNL     1     -44.597  57.928 -53.724  1.00  0.00     0.013 A 
HETATM    9  C   UNL     1     -44.437  57.500 -52.404  1.00  0.00     0.172 A 
HETATM   10  N   UNL     1     -44.698  58.267 -51.319  1.00  0.00    -0.237 NA
HETATM   11  C   UNL     1     -45.167  59.511 -51.550  1.00  0.00     0.119 A 
HETATM   12  C   UNL     1     -45.393  60.025 -52.812  1.00  0.00     0.020 A 
HETATM   13  C   UNL     1     -45.110  59.218 -53.912  1.00  0.00     0.014 A 
BRANCH   9  14
HETATM   14  O   UNL     1     -43.989  56.208 -52.211  1.00  0.00    -0.334 OA
BRANCH  14  15
HETATM   15  C   UNL     1     -43.461  55.971 -50.904  1.00  0.00     0.173 C 
HETATM   16  C   UNL     1     -43.778  54.533 -50.531  1.00  0.00     0.034 C 
ENDBRANCH  14  15
ENDBRANCH   9  14
ENDBRANCH   7   8
ENDBRANCH   1   7
BRANCH   3  17
HETATM   17  C   UNL     1     -40.873  54.248 -54.594  1.00  0.00     0.037 A 
HETATM   18  C   UNL     1     -40.544  52.915 -54.842  1.00  0.00     0.049 A 
HETATM   19  C   UNL     1     -40.212  52.053 -53.787  1.00  0.00     0.019 A 
HETATM   20 BR   UNL     1     -39.821  50.245 -54.231  1.00  0.00    -0.051 Br
HETATM   21  C   UNL     1     -40.166  52.515 -52.464  1.00  0.00    -0.044 A 
HETATM   22  C   UNL     1     -39.818  51.627 -51.303  1.00  0.00     0.049 C 
HETATM   23  C   UNL     1     -40.485  53.857 -52.222  1.00  0.00     0.010 A 
HETATM   24  C   UNL     1     -40.827  54.712 -53.274  1.00  0.00     0.030 A 
ENDBRANCH   3  17
TORSDOF 5
ENDMDL
MODEL 6
REMARK VINA RESULT:      -7.0      3.566      7.383
REMARK  5 active torsions:
REMARK  status: ('A' for Active; 'I' for Inactive)
REMARK    1  A    between atoms: C_2  and  O_3 
REMARK    2  A    between atoms: O_3  and  C_4 
REMARK    3  A    between atoms: C_9  and  C_10 
REMARK    4  A    between atoms: C_10  and  N_11 
REMARK       I    between atoms: N_11  and  C_12 
REMARK       I    between atoms: C_12  and  N_13 
REMARK    5  A    between atoms: N_13  and  C_14 
ROOT
HETATM    1  N   UNL     1     -42.565  55.017 -54.756  1.00  0.00    -0.338 N 
HETATM    2  C   UNL     1     -41.666  55.967 -55.118  1.00  0.00     0.320 C 
HETATM    3  N   UNL     1     -41.840  56.583 -56.317  1.00  0.00    -0.309 N 
HETATM    4  O   UNL     1     -40.688  56.258 -54.433  1.00  0.00    -0.247 OA
HETATM    5  H   UNL     1     -42.998  54.505 -55.511  1.00  0.00     0.164 HD
HETATM    6  H   UNL     1     -41.016  57.123 -56.559  1.00  0.00     0.170 HD
ENDROOT
BRANCH   1   7
HETATM    7  C   UNL     1     -42.525  54.366 -53.461  1.00  0.00     0.167 C 
BRANCH   7   8
HETATM    8  C   UNL     1     -41.483  53.284 -53.350  1.00  0.00     0.013 A 
HETATM    9  C   UNL     1     -40.632  53.225 -52.245  1.00  0.00     0.172 A 
HETATM   10  N   UNL     1     -39.648  52.306 -52.092  1.00  0.00    -0.237 NA
HETATM   11  C   UNL     1     -39.479  51.421 -53.095  1.00  0.00     0.119 A 
HETATM   12  C   UNL     1     -40.243  51.409 -54.247  1.00  0.00     0.020 A 
HETATM   13  C   UNL     1     -41.253  52.359 -54.376  1.00  0.00     0.014 A 
BRANCH   9  14
HETATM   14  O   UNL     1     -40.815  54.172 -51.255  1.00  0.00    -0.334 OA
BRANCH  14  15
HETATM   15  C   UNL     1     -40.356  53.756 -49.968  1.00  0.00     0.173 C 
HETATM   16  C   UNL     1     -41.035  54.632 -48.930  1.00  0.00     0.034 C 
ENDBRANCH  14  15
ENDBRANCH   9  14
ENDBRANCH   7   8
ENDBRANCH   1   7
BRANCH   3  17
HETATM   17  C   UNL     1     -42.946  56.721 -57.178  1.00  0.00     0.037 A 
HETATM   18  C   UNL     1     -43.242  55.865 -58.238  1.00  0.00     0.049 A 
HETATM   19  C   UNL     1     -44.386  56.071 -59.024  1.00  0.00     0.019 A 
HETATM   20 BR   UNL     1     -44.675  54.872 -60.471  1.00  0.00    -0.051 Br
HETATM   21  C   UNL     1     -45.277  57.117 -58.742  1.00  0.00    -0.044 A 
HETATM   22  C   UNL     1     -46.512  57.377 -59.557  1.00  0.00     0.049 C 
HETATM   23  C   UNL     1     -44.980  57.966 -57.668  1.00  0.00     0.010 A 
HETATM   24  C   UNL     1     -43.834  57.765 -56.893  1.00  0.00     0.030 A 
ENDBRANCH   3  17
TORSDOF 5
ENDMDL
MODEL 7
REMARK VINA RESULT:      -7.0      2.326      3.590
REMARK  5 active torsions:
REMARK  status: ('A' for Active; 'I' for Inactive)
REMARK    1  A    between atoms: C_2  and  O_3 
REMARK    2  A    between atoms: O_3  and  C_4 
REMARK    3  A    between atoms: C_9  and  C_10 
REMARK    4  A    between atoms: C_10  and  N_11 
REMARK       I    between atoms: N_11  and  C_12 
REMARK       I    between atoms: C_12  and  N_13 
REMARK    5  A    between atoms: N_13  and  C_14 
ROOT
HETATM    1  N   UNL     1     -40.831  55.660 -54.173  1.00  0.00    -0.338 N 
HETATM    2  C   UNL     1     -41.295  54.833 -55.143  1.00  0.00     0.320 C 
HETATM    3  N   UNL     1     -40.992  53.510 -55.051  1.00  0.00    -0.309 N 
HETATM    4  O   UNL     1     -41.933  55.232 -56.115  1.00  0.00    -0.247 OA
HETATM    5  H   UNL     1     -39.963  55.386 -53.734  1.00  0.00     0.164 HD
HETATM    6  H   UNL     1     -41.224  53.033 -55.915  1.00  0.00     0.170 HD
ENDROOT
BRANCH   1   7
HETATM    7  C   UNL     1     -41.173  57.068 -54.128  1.00  0.00     0.167 C 
BRANCH   7   8
HETATM    8  C   UNL     1     -41.010  57.697 -52.770  1.00  0.00     0.013 A 
HETATM    9  C   UNL     1     -41.659  57.162 -51.654  1.00  0.00     0.172 A 
HETATM   10  N   UNL     1     -41.592  57.692 -50.410  1.00  0.00    -0.237 NA
HETATM   11  C   UNL     1     -40.871  58.823 -50.266  1.00  0.00     0.119 A 
HETATM   12  C   UNL     1     -40.215  59.453 -51.306  1.00  0.00     0.020 A 
HETATM   13  C   UNL     1     -40.294  58.885 -52.575  1.00  0.00     0.014 A 
BRANCH   9  14
HETATM   14  O   UNL     1     -42.416  56.023 -51.851  1.00  0.00    -0.334 OA
BRANCH  14  15
HETATM   15  C   UNL     1     -43.604  55.978 -51.059  1.00  0.00     0.173 C 
HETATM   16  C   UNL     1     -43.782  54.551 -50.572  1.00  0.00     0.034 C 
ENDBRANCH  14  15
ENDBRANCH   9  14
ENDBRANCH   7   8
ENDBRANCH   1   7
BRANCH   3  17
HETATM   17  C   UNL     1     -40.570  52.692 -53.985  1.00  0.00     0.037 A 
HETATM   18  C   UNL     1     -40.643  53.039 -52.636  1.00  0.00     0.049 A 
HETATM   19  C   UNL     1     -40.222  52.142 -51.644  1.00  0.00     0.019 A 
HETATM   20 BR   UNL     1     -40.323  52.731 -49.839  1.00  0.00    -0.051 Br
HETATM   21  C   UNL     1     -39.753  50.863 -51.979  1.00  0.00    -0.044 A 
HETATM   22  C   UNL     1     -39.290  49.870 -50.950  1.00  0.00     0.049 C 
HETATM   23  C   UNL     1     -39.695  50.515 -53.334  1.00  0.00     0.010 A 
HETATM   24  C   UNL     1     -40.105  51.416 -54.322  1.00  0.00     0.030 A 
ENDBRANCH   3  17
TORSDOF 5
ENDMDL
MODEL 8
REMARK VINA RESULT:      -6.9      3.190      7.220
REMARK  5 active torsions:
REMARK  status: ('A' for Active; 'I' for Inactive)
REMARK    1  A    between atoms: C_2  and  O_3 
REMARK    2  A    between atoms: O_3  and  C_4 
REMARK    3  A    between atoms: C_9  and  C_10 
REMARK    4  A    between atoms: C_10  and  N_11 
REMARK       I    between atoms: N_11  and  C_12 
REMARK       I    between atoms: C_12  and  N_13 
REMARK    5  A    between atoms: N_13  and  C_14 
ROOT
HETATM    1  N   UNL     1     -42.056  55.155 -54.242  1.00  0.00    -0.338 N 
HETATM    2  C   UNL     1     -43.265  54.846 -54.774  1.00  0.00     0.320 C 
HETATM    3  N   UNL     1     -44.336  55.594 -54.395  1.00  0.00    -0.309 N 
HETATM    4  O   UNL     1     -43.438  53.902 -55.541  1.00  0.00    -0.247 OA
HETATM    5  H   UNL     1     -42.067  55.559 -53.316  1.00  0.00     0.164 HD
HETATM    6  H   UNL     1     -45.198  55.156 -54.702  1.00  0.00     0.170 HD
ENDROOT
BRANCH   1   7
HETATM    7  C   UNL     1     -40.837  54.482 -54.648  1.00  0.00     0.167 C 
BRANCH   7   8
HETATM    8  C   UNL     1     -40.465  53.309 -53.780  1.00  0.00     0.013 A 
HETATM    9  C   UNL     1     -40.358  53.453 -52.395  1.00  0.00     0.172 A 
HETATM   10  N   UNL     1     -39.992  52.456 -51.555  1.00  0.00    -0.237 NA
HETATM   11  C   UNL     1     -39.689  51.267 -52.113  1.00  0.00     0.119 A 
HETATM   12  C   UNL     1     -39.729  51.024 -53.473  1.00  0.00     0.020 A 
HETATM   13  C   UNL     1     -40.116  52.063 -54.316  1.00  0.00     0.014 A 
BRANCH   9  14
HETATM   14  O   UNL     1     -40.643  54.697 -51.866  1.00  0.00    -0.334 OA
BRANCH  14  15
HETATM   15  C   UNL     1     -41.254  54.647 -50.576  1.00  0.00     0.173 C 
HETATM   16  C   UNL     1     -41.393  56.074 -50.075  1.00  0.00     0.034 C 
ENDBRANCH  14  15
ENDBRANCH   9  14
ENDBRANCH   7   8
ENDBRANCH   1   7
BRANCH   3  17
HETATM   17  C   UNL     1     -44.462  56.868 -53.810  1.00  0.00     0.037 A 
HETATM   18  C   UNL     1     -44.837  58.025 -54.493  1.00  0.00     0.049 A 
HETATM   19  C   UNL     1     -44.962  59.247 -53.815  1.00  0.00     0.019 A 
HETATM   20 BR   UNL     1     -45.437  60.771 -54.848  1.00  0.00    -0.051 Br
HETATM   21  C   UNL     1     -44.750  59.328 -52.431  1.00  0.00    -0.044 A 
HETATM   22  C   UNL     1     -44.870  60.615 -51.663  1.00  0.00     0.049 C 
HETATM   23  C   UNL     1     -44.386  58.161 -51.748  1.00  0.00     0.010 A 
HETATM   24  C   UNL     1     -44.251  56.947 -52.429  1.00  0.00     0.030 A 
ENDBRANCH   3  17
TORSDOF 5
ENDMDL
MODEL 9
REMARK VINA RESULT:      -6.8     14.234     16.081
REMARK  5 active torsions:
REMARK  status: ('A' for Active; 'I' for Inactive)
REMARK    1  A    between atoms: C_2  and  O_3 
REMARK    2  A    between atoms: O_3  and  C_4 
REMARK    3  A    between atoms: C_9  and  C_10 
REMARK    4  A    between atoms: C_10  and  N_11 
REMARK       I    between atoms: N_11  and  C_12 
REMARK       I    between atoms: C_12  and  N_13 
REMARK    5  A    between atoms: N_13  and  C_14 
ROOT
HETATM    1  N   UNL     1     -36.332  40.145 -53.760  1.00  0.00    -0.338 N 
HETATM    2  C   UNL     1     -37.339  41.048 -53.670  1.00  0.00     0.320 C 
HETATM    3  N   UNL     1     -37.777  41.630 -54.819  1.00  0.00    -0.309 N 
HETATM    4  O   UNL     1     -37.839  41.391 -52.601  1.00  0.00    -0.247 OA
HETATM    5  H   UNL     1     -35.678  40.281 -54.518  1.00  0.00     0.164 HD
HETATM    6  H   UNL     1     -38.387  42.412 -54.609  1.00  0.00     0.170 HD
ENDROOT
BRANCH   1   7
HETATM    7  C   UNL     1     -35.854  39.401 -52.610  1.00  0.00     0.167 C 
BRANCH   7   8
HETATM    8  C   UNL     1     -34.485  39.811 -52.138  1.00  0.00     0.013 A 
HETATM    9  C   UNL     1     -33.406  39.845 -53.023  1.00  0.00     0.172 A 
HETATM   10  N   UNL     1     -32.140  40.167 -52.666  1.00  0.00    -0.237 NA
HETATM   11  C   UNL     1     -31.924  40.441 -51.363  1.00  0.00     0.119 A 
HETATM   12  C   UNL     1     -32.911  40.406 -50.397  1.00  0.00     0.020 A 
HETATM   13  C   UNL     1     -34.206  40.079 -50.791  1.00  0.00     0.014 A 
BRANCH   9  14
HETATM   14  O   UNL     1     -33.662  39.523 -54.342  1.00  0.00    -0.334 OA
BRANCH  14  15
HETATM   15  C   UNL     1     -32.907  40.292 -55.280  1.00  0.00     0.173 C 
HETATM   16  C   UNL     1     -33.876  40.853 -56.305  1.00  0.00     0.034 C 
ENDBRANCH  14  15
ENDBRANCH   9  14
ENDBRANCH   7   8
ENDBRANCH   1   7
BRANCH   3  17
HETATM   17  C   UNL     1     -37.662  41.281 -56.178  1.00  0.00     0.037 A 
HETATM   18  C   UNL     1     -38.022  40.046 -56.718  1.00  0.00     0.049 A 
HETATM   19  C   UNL     1     -37.896  39.803 -58.094  1.00  0.00     0.019 A 
HETATM   20 BR   UNL     1     -38.374  38.072 -58.719  1.00  0.00    -0.051 Br
HETATM   21  C   UNL     1     -37.441  40.804 -58.964  1.00  0.00    -0.044 A 
HETATM   22  C   UNL     1     -37.287  40.588 -60.443  1.00  0.00     0.049 C 
HETATM   23  C   UNL     1     -37.093  42.045 -58.419  1.00  0.00     0.010 A 
HETATM   24  C   UNL     1     -37.209  42.282 -57.046  1.00  0.00     0.030 A 
ENDBRANCH   3  17
TORSDOF 5
ENDMDL
MODEL 10
REMARK VINA RESULT:      -6.8      3.142      4.404
REMARK  5 active torsions:
REMARK  status: ('A' for Active; 'I' for Inactive)
REMARK    1  A    between atoms: C_2  and  O_3 
REMARK    2  A    between atoms: O_3  and  C_4 
REMARK    3  A    between atoms: C_9  and  C_10 
REMARK    4  A    between atoms: C_10  and  N_11 
REMARK       I    between atoms: N_11  and  C_12 
REMARK       I    between atoms: C_12  and  N_13 
REMARK    5  A    between atoms: N_13  and  C_14 
ROOT
HETATM    1  N   UNL     1     -42.894  55.990 -53.911  1.00  0.00    -0.338 N 
HETATM    2  C   UNL     1     -42.080  55.869 -54.989  1.00  0.00     0.320 C 
HETATM    3  N   UNL     1     -40.965  55.100 -54.862  1.00  0.00    -0.309 N 
HETATM    4  O   UNL     1     -42.282  56.455 -56.051  1.00  0.00    -0.247 OA
HETATM    5  H   UNL     1     -42.448  55.921 -53.007  1.00  0.00     0.164 HD
HETATM    6  H   UNL     1     -40.349  55.238 -55.655  1.00  0.00     0.170 HD
ENDROOT
BRANCH   1   7
HETATM    7  C   UNL     1     -44.152  56.710 -53.967  1.00  0.00     0.167 C 
BRANCH   7   8
HETATM    8  C   UNL     1     -44.292  57.784 -52.921  1.00  0.00     0.013 A 
HETATM    9  C   UNL     1     -43.583  58.982 -53.030  1.00  0.00     0.172 A 
HETATM   10  N   UNL     1     -43.628  59.977 -52.112  1.00  0.00    -0.237 NA
HETATM   11  C   UNL     1     -44.389  59.765 -51.019  1.00  0.00     0.119 A 
HETATM   12  C   UNL     1     -45.105  58.605 -50.795  1.00  0.00     0.020 A 
HETATM   13  C   UNL     1     -45.048  57.600 -51.757  1.00  0.00     0.014 A 
BRANCH   9  14
HETATM   14  O   UNL     1     -42.787  59.145 -54.147  1.00  0.00    -0.334 OA
BRANCH  14  15
HETATM   15  C   UNL     1     -41.527  59.759 -53.872  1.00  0.00     0.173 C 
HETATM   16  C   UNL     1     -40.600  58.687 -53.327  1.00  0.00     0.034 C 
ENDBRANCH  14  15
ENDBRANCH   9  14
ENDBRANCH   7   8
ENDBRANCH   1   7
BRANCH   3  17
HETATM   17  C   UNL     1     -40.590  54.091 -53.954  1.00  0.00     0.037 A 
HETATM   18  C   UNL     1     -40.612  54.221 -52.565  1.00  0.00     0.049 A 
HETATM   19  C   UNL     1     -40.244  53.146 -51.742  1.00  0.00     0.019 A 
HETATM   20 BR   UNL     1     -40.267  53.443 -49.864  1.00  0.00    -0.051 Br
HETATM   21  C   UNL     1     -39.883  51.907 -52.290  1.00  0.00    -0.044 A 
HETATM   22  C   UNL     1     -39.481  50.730 -51.448  1.00  0.00     0.049 C 
HETATM   23  C   UNL     1     -39.876  51.779 -53.685  1.00  0.00     0.010 A 
HETATM   24  C   UNL     1     -40.232  52.855 -54.504  1.00  0.00     0.030 A 
ENDBRANCH   3  17
TORSDOF 5
ENDMDL
