MODEL 1
REMARK VINA RESULT:     -10.2      0.000      0.000
REMARK  6 active torsions:
REMARK  status: ('A' for Active; 'I' for Inactive)
REMARK       I    between atoms: C_2  and  N_3 
REMARK    1  A    between atoms: C_2  and  C_12 
REMARK    2  A    between atoms: N_3  and  C_4 
REMARK    3  A    between atoms: C_4  and  C_5 
REMARK    4  A    between atoms: C_5  and  C_6 
REMARK    5  A    between atoms: C_18  and  C_22 
REMARK    6  A    between atoms: C_28  and  C_34 
ROOT
HETATM    1  C   UNL     1     -44.479  59.188 -56.061  1.00  0.00     0.032 A 
HETATM    2  C   UNL     1     -43.185  59.358 -56.567  1.00  0.00     0.020 A 
HETATM    3  C   UNL     1     -42.109  59.504 -55.690  1.00  0.00     0.038 A 
HETATM    4  C   UNL     1     -42.318  59.474 -54.311  1.00  0.00     0.075 A 
HETATM    5  O   UNL     1     -41.195  59.533 -53.526  1.00  0.00    -0.350 OA
HETATM    6  C   UNL     1     -41.432  59.786 -52.135  1.00  0.00     0.188 C 
HETATM    7  C   UNL     1     -42.537  58.900 -51.567  1.00  0.00     0.082 C 
HETATM    8  C   UNL     1     -43.836  59.213 -52.310  1.00  0.00     0.056 C 
HETATM    9  C   UNL     1     -43.601  59.278 -53.790  1.00  0.00    -0.023 A 
HETATM   10  C   UNL     1     -44.681  59.149 -54.674  1.00  0.00     0.027 A 
ENDROOT
BRANCH   7  11
HETATM   11  C   UNL     1     -42.225  57.434 -51.650  1.00  0.00     0.091 A 
HETATM   12  N   UNL     1     -41.690  56.984 -52.781  1.00  0.00    -0.345 N 
HETATM   13  H   UNL     1     -41.517  57.624 -53.552  1.00  0.00     0.167 HD
HETATM   14  C   UNL     1     -41.340  55.667 -52.895  1.00  0.00     0.049 A 
HETATM   15  C   UNL     1     -40.755  55.211 -54.077  1.00  0.00     0.031 A 
HETATM   16  C   UNL     1     -41.534  54.749 -51.862  1.00  0.00     0.059 A 
HETATM   17  C   UNL     1     -40.370  53.868 -54.207  1.00  0.00     0.014 A 
HETATM   18  C   UNL     1     -40.560  52.955 -53.158  1.00  0.00    -0.022 A 
HETATM   19  C   UNL     1     -41.156  53.406 -51.976  1.00  0.00     0.031 A 
HETATM   20  C   UNL     1     -42.147  55.259 -50.639  1.00  0.00     0.259 A 
HETATM   21  O   UNL     1     -42.405  54.608 -49.647  1.00  0.00    -0.267 OA
HETATM   22  N   UNL     1     -42.457  56.635 -50.630  1.00  0.00    -0.312 N 
HETATM   23  H   UNL     1     -42.853  57.006 -49.768  1.00  0.00     0.170 HD
BRANCH  18  24
HETATM   24  C   UNL     1     -40.145  51.572 -53.309  1.00  0.00     0.010 A 
HETATM   25  C   UNL     1     -40.167  50.717 -54.436  1.00  0.00     0.152 A 
HETATM   26  N   UNL     1     -39.675  49.505 -54.174  1.00  0.00    -0.187 NA
HETATM   27  N   UNL     1     -39.331  49.574 -52.879  1.00  0.00    -0.289 N 
HETATM   28  H   UNL     1     -38.917  48.753 -52.446  1.00  0.00     0.188 HD
HETATM   29  C   UNL     1     -39.592  50.792 -52.315  1.00  0.00     0.123 A 
ENDBRANCH  18  24
ENDBRANCH   7  11
BRANCH   1  30
HETATM   30  C   UNL     1     -45.656  58.977 -56.945  1.00  0.00     0.251 C 
HETATM   31  O   UNL     1     -46.468  59.883 -57.089  1.00  0.00    -0.268 OA
HETATM   32  N   UNL     1     -45.741  57.757 -57.579  1.00  0.00    -0.357 N 
HETATM   33  H   UNL     1     -44.927  57.157 -57.605  1.00  0.00     0.162 HD
BRANCH  32  34
HETATM   34  C   UNL     1     -46.823  57.488 -58.515  1.00  0.00     0.129 C 
BRANCH  34  35
HETATM   35  C   UNL     1     -46.304  57.016 -59.869  1.00  0.00     0.079 C 
BRANCH  35  36
HETATM   36  C   UNL     1     -44.802  57.058 -59.924  1.00  0.00     0.035 A 
HETATM   37  C   UNL     1     -44.047  55.915 -59.672  1.00  0.00     0.027 A 
HETATM   38  C   UNL     1     -42.659  56.003 -59.719  1.00  0.00     0.003 A 
HETATM   39  C   UNL     1     -42.064  57.224 -60.009  1.00  0.00     0.019 A 
HETATM   40  C   UNL     1     -42.886  58.313 -60.241  1.00  0.00     0.117 A 
HETATM   41  N   UNL     1     -44.236  58.257 -60.201  1.00  0.00    -0.266 NA
ENDBRANCH  35  36
ENDBRANCH  34  35
ENDBRANCH  32  34
ENDBRANCH   1  30
TORSDOF 6
ENDMDL
MODEL 2
REMARK VINA RESULT:      -9.9      1.906      7.929
REMARK  6 active torsions:
REMARK  status: ('A' for Active; 'I' for Inactive)
REMARK       I    between atoms: C_2  and  N_3 
REMARK    1  A    between atoms: C_2  and  C_12 
REMARK    2  A    between atoms: N_3  and  C_4 
REMARK    3  A    between atoms: C_4  and  C_5 
REMARK    4  A    between atoms: C_5  and  C_6 
REMARK    5  A    between atoms: C_18  and  C_22 
REMARK    6  A    between atoms: C_28  and  C_34 
ROOT
HETATM    1  C   UNL     1     -43.188  56.433 -51.038  1.00  0.00     0.032 A 
HETATM    2  C   UNL     1     -44.457  56.981 -50.821  1.00  0.00     0.020 A 
HETATM    3  C   UNL     1     -44.739  58.277 -51.258  1.00  0.00     0.038 A 
HETATM    4  C   UNL     1     -43.761  59.024 -51.916  1.00  0.00     0.075 A 
HETATM    5  O   UNL     1     -44.153  60.250 -52.390  1.00  0.00    -0.350 OA
HETATM    6  C   UNL     1     -43.088  61.115 -52.806  1.00  0.00     0.188 C 
HETATM    7  C   UNL     1     -42.078  60.401 -53.699  1.00  0.00     0.082 C 
HETATM    8  C   UNL     1     -41.448  59.261 -52.898  1.00  0.00     0.056 C 
HETATM    9  C   UNL     1     -42.497  58.480 -52.165  1.00  0.00    -0.023 A 
HETATM   10  C   UNL     1     -42.213  57.186 -51.709  1.00  0.00     0.027 A 
ENDROOT
BRANCH   7  11
HETATM   11  C   UNL     1     -42.676  59.879 -54.972  1.00  0.00     0.091 A 
HETATM   12  N   UNL     1     -42.389  58.627 -55.317  1.00  0.00    -0.345 N 
HETATM   13  H   UNL     1     -41.775  58.067 -54.733  1.00  0.00     0.167 HD
HETATM   14  C   UNL     1     -42.945  58.082 -56.441  1.00  0.00     0.049 A 
HETATM   15  C   UNL     1     -42.658  56.760 -56.781  1.00  0.00     0.031 A 
HETATM   16  C   UNL     1     -43.811  58.798 -57.270  1.00  0.00     0.059 A 
HETATM   17  C   UNL     1     -43.233  56.176 -57.919  1.00  0.00     0.014 A 
HETATM   18  C   UNL     1     -44.112  56.902 -58.740  1.00  0.00    -0.022 A 
HETATM   19  C   UNL     1     -44.394  58.231 -58.409  1.00  0.00     0.031 A 
HETATM   20  C   UNL     1     -44.093  60.179 -56.887  1.00  0.00     0.259 A 
HETATM   21  O   UNL     1     -44.806  60.954 -57.491  1.00  0.00    -0.267 OA
HETATM   22  N   UNL     1     -43.472  60.631 -55.704  1.00  0.00    -0.312 N 
HETATM   23  H   UNL     1     -43.691  61.582 -55.411  1.00  0.00     0.170 HD
BRANCH  18  24
HETATM   24  C   UNL     1     -44.705  56.275 -59.906  1.00  0.00     0.010 A 
HETATM   25  C   UNL     1     -44.283  55.168 -60.679  1.00  0.00     0.152 A 
HETATM   26  N   UNL     1     -45.123  54.883 -61.675  1.00  0.00    -0.187 NA
HETATM   27  N   UNL     1     -46.092  55.802 -61.548  1.00  0.00    -0.289 N 
HETATM   28  H   UNL     1     -46.865  55.781 -62.207  1.00  0.00     0.188 HD
HETATM   29  C   UNL     1     -45.889  56.660 -60.503  1.00  0.00     0.123 A 
ENDBRANCH  18  24
ENDBRANCH   7  11
BRANCH   1  30
HETATM   30  C   UNL     1     -42.845  55.041 -50.641  1.00  0.00     0.251 C 
HETATM   31  O   UNL     1     -43.728  54.304 -50.219  1.00  0.00    -0.268 OA
HETATM   32  N   UNL     1     -41.533  54.658 -50.806  1.00  0.00    -0.357 N 
HETATM   33  H   UNL     1     -40.921  55.227 -51.375  1.00  0.00     0.162 HD
BRANCH  32  34
HETATM   34  C   UNL     1     -41.121  53.294 -50.507  1.00  0.00     0.129 C 
BRANCH  34  35
HETATM   35  C   UNL     1     -39.740  52.978 -51.071  1.00  0.00     0.079 C 
BRANCH  35  36
HETATM   36  C   UNL     1     -39.814  51.925 -52.142  1.00  0.00     0.035 A 
HETATM   37  C   UNL     1     -40.209  52.253 -53.437  1.00  0.00     0.027 A 
HETATM   38  C   UNL     1     -40.278  51.244 -54.393  1.00  0.00     0.003 A 
HETATM   39  C   UNL     1     -39.957  49.942 -54.034  1.00  0.00     0.019 A 
HETATM   40  C   UNL     1     -39.580  49.700 -52.724  1.00  0.00     0.117 A 
HETATM   41  N   UNL     1     -39.505  50.659 -51.774  1.00  0.00    -0.266 NA
ENDBRANCH  35  36
ENDBRANCH  34  35
ENDBRANCH  32  34
ENDBRANCH   1  30
TORSDOF 6
ENDMDL
MODEL 3
REMARK VINA RESULT:      -9.9      4.646      8.566
REMARK  6 active torsions:
REMARK  status: ('A' for Active; 'I' for Inactive)
REMARK       I    between atoms: C_2  and  N_3 
REMARK    1  A    between atoms: C_2  and  C_12 
REMARK    2  A    between atoms: N_3  and  C_4 
REMARK    3  A    between atoms: C_4  and  C_5 
REMARK    4  A    between atoms: C_5  and  C_6 
REMARK    5  A    between atoms: C_18  and  C_22 
REMARK    6  A    between atoms: C_28  and  C_34 
ROOT
HETATM    1  C   UNL     1     -45.016  59.978 -49.966  1.00  0.00     0.032 A 
HETATM    2  C   UNL     1     -45.950  59.546 -50.913  1.00  0.00     0.020 A 
HETATM    3  C   UNL     1     -45.551  59.326 -52.234  1.00  0.00     0.038 A 
HETATM    4  C   UNL     1     -44.223  59.531 -52.608  1.00  0.00     0.075 A 
HETATM    5  O   UNL     1     -43.902  59.203 -53.901  1.00  0.00    -0.350 OA
HETATM    6  C   UNL     1     -42.626  59.676 -54.353  1.00  0.00     0.188 C 
HETATM    7  C   UNL     1     -41.514  59.390 -53.348  1.00  0.00     0.082 C 
HETATM    8  C   UNL     1     -41.835  60.130 -52.050  1.00  0.00     0.056 C 
HETATM    9  C   UNL     1     -43.273  59.937 -51.667  1.00  0.00    -0.023 A 
HETATM   10  C   UNL     1     -43.681  60.172 -50.347  1.00  0.00     0.027 A 
ENDROOT
BRANCH   7  11
HETATM   11  C   UNL     1     -41.316  57.926 -53.082  1.00  0.00     0.091 A 
HETATM   12  N   UNL     1     -41.124  57.132 -54.130  1.00  0.00    -0.345 N 
HETATM   13  H   UNL     1     -41.127  57.520 -55.069  1.00  0.00     0.167 HD
HETATM   14  C   UNL     1     -40.890  55.798 -53.944  1.00  0.00     0.049 A 
HETATM   15  C   UNL     1     -40.664  54.977 -55.050  1.00  0.00     0.031 A 
HETATM   16  C   UNL     1     -40.854  55.214 -52.677  1.00  0.00     0.059 A 
HETATM   17  C   UNL     1     -40.403  53.610 -54.879  1.00  0.00     0.014 A 
HETATM   18  C   UNL     1     -40.358  53.034 -53.599  1.00  0.00    -0.022 A 
HETATM   19  C   UNL     1     -40.594  53.851 -52.489  1.00  0.00     0.031 A 
HETATM   20  C   UNL     1     -41.093  56.099 -51.540  1.00  0.00     0.259 A 
HETATM   21  O   UNL     1     -41.114  55.769 -50.372  1.00  0.00    -0.267 OA
HETATM   22  N   UNL     1     -41.313  57.458 -51.851  1.00  0.00    -0.312 N 
HETATM   23  H   UNL     1     -41.446  58.088 -51.062  1.00  0.00     0.170 HD
BRANCH  18  24
HETATM   24  C   UNL     1     -40.074  51.620 -53.444  1.00  0.00     0.010 A 
HETATM   25  C   UNL     1     -40.010  50.578 -54.399  1.00  0.00     0.152 A 
HETATM   26  N   UNL     1     -39.698  49.399 -53.857  1.00  0.00    -0.187 NA
HETATM   27  N   UNL     1     -39.555  49.676 -52.553  1.00  0.00    -0.289 N 
HETATM   28  H   UNL     1     -39.304  48.918 -51.924  1.00  0.00     0.188 HD
HETATM   29  C   UNL     1     -39.770  50.993 -52.253  1.00  0.00     0.123 A 
ENDBRANCH  18  24
ENDBRANCH   7  11
BRANCH   1  30
HETATM   30  C   UNL     1     -45.371  60.180 -48.535  1.00  0.00     0.251 C 
HETATM   31  O   UNL     1     -46.352  59.608 -48.075  1.00  0.00    -0.268 OA
HETATM   32  N   UNL     1     -44.535  60.992 -47.801  1.00  0.00    -0.357 N 
HETATM   33  H   UNL     1     -43.627  61.231 -48.175  1.00  0.00     0.162 HD
BRANCH  32  34
HETATM   34  C   UNL     1     -44.767  61.191 -46.378  1.00  0.00     0.129 C 
BRANCH  34  35
HETATM   35  C   UNL     1     -45.290  62.591 -46.075  1.00  0.00     0.079 C 
BRANCH  35  36
HETATM   36  C   UNL     1     -44.852  63.056 -44.713  1.00  0.00     0.035 A 
HETATM   37  C   UNL     1     -43.997  62.278 -43.936  1.00  0.00     0.027 A 
HETATM   38  C   UNL     1     -43.630  62.740 -42.675  1.00  0.00     0.003 A 
HETATM   39  C   UNL     1     -44.126  63.956 -42.224  1.00  0.00     0.019 A 
HETATM   40  C   UNL     1     -44.976  64.664 -43.057  1.00  0.00     0.117 A 
HETATM   41  N   UNL     1     -45.350  64.240 -44.284  1.00  0.00    -0.266 NA
ENDBRANCH  35  36
ENDBRANCH  34  35
ENDBRANCH  32  34
ENDBRANCH   1  30
TORSDOF 6
ENDMDL
MODEL 4
REMARK VINA RESULT:      -9.6      1.153      1.590
REMARK  6 active torsions:
REMARK  status: ('A' for Active; 'I' for Inactive)
REMARK       I    between atoms: C_2  and  N_3 
REMARK    1  A    between atoms: C_2  and  C_12 
REMARK    2  A    between atoms: N_3  and  C_4 
REMARK    3  A    between atoms: C_4  and  C_5 
REMARK    4  A    between atoms: C_5  and  C_6 
REMARK    5  A    between atoms: C_18  and  C_22 
REMARK    6  A    between atoms: C_28  and  C_34 
ROOT
HETATM    1  C   UNL     1     -44.418  59.813 -55.642  1.00  0.00     0.032 A 
HETATM    2  C   UNL     1     -43.143  60.183 -56.085  1.00  0.00     0.020 A 
HETATM    3  C   UNL     1     -42.071  60.191 -55.190  1.00  0.00     0.038 A 
HETATM    4  C   UNL     1     -42.266  59.826 -53.857  1.00  0.00     0.075 A 
HETATM    5  O   UNL     1     -41.142  59.775 -53.073  1.00  0.00    -0.350 OA
HETATM    6  C   UNL     1     -41.384  59.679 -51.663  1.00  0.00     0.188 C 
HETATM    7  C   UNL     1     -42.422  58.613 -51.325  1.00  0.00     0.082 C 
HETATM    8  C   UNL     1     -43.745  59.004 -51.984  1.00  0.00     0.056 C 
HETATM    9  C   UNL     1     -43.529  59.428 -53.407  1.00  0.00    -0.023 A 
HETATM   10  C   UNL     1     -44.605  59.438 -54.304  1.00  0.00     0.027 A 
ENDROOT
BRANCH   7  11
HETATM   11  C   UNL     1     -42.015  57.232 -51.747  1.00  0.00     0.091 A 
HETATM   12  N   UNL     1     -41.333  56.499 -50.872  1.00  0.00    -0.345 N 
HETATM   13  H   UNL     1     -41.096  56.884 -49.962  1.00  0.00     0.167 HD
HETATM   14  C   UNL     1     -40.978  55.216 -51.183  1.00  0.00     0.049 A 
HETATM   15  C   UNL     1     -40.285  54.447 -50.248  1.00  0.00     0.031 A 
HETATM   16  C   UNL     1     -41.294  54.629 -52.409  1.00  0.00     0.059 A 
HETATM   17  C   UNL     1     -39.928  53.122 -50.540  1.00  0.00     0.014 A 
HETATM   18  C   UNL     1     -40.261  52.537 -51.773  1.00  0.00    -0.022 A 
HETATM   19  C   UNL     1     -40.946  53.308 -52.717  1.00  0.00     0.031 A 
HETATM   20  C   UNL     1     -42.021  55.459 -53.366  1.00  0.00     0.259 A 
HETATM   21  O   UNL     1     -42.366  55.125 -54.481  1.00  0.00    -0.267 OA
HETATM   22  N   UNL     1     -42.342  56.763 -52.933  1.00  0.00    -0.312 N 
HETATM   23  H   UNL     1     -42.880  57.337 -53.581  1.00  0.00     0.170 HD
BRANCH  18  24
HETATM   24  C   UNL     1     -39.893  51.161 -52.051  1.00  0.00     0.010 A 
HETATM   25  C   UNL     1     -39.651  50.497 -53.276  1.00  0.00     0.152 A 
HETATM   26  N   UNL     1     -39.313  49.217 -53.111  1.00  0.00    -0.187 NA
HETATM   27  N   UNL     1     -39.331  49.051 -51.780  1.00  0.00    -0.289 N 
HETATM   28  H   UNL     1     -39.094  48.137 -51.405  1.00  0.00     0.188 HD
HETATM   29  C   UNL     1     -39.672  50.187 -51.099  1.00  0.00     0.123 A 
ENDBRANCH  18  24
ENDBRANCH   7  11
BRANCH   1  30
HETATM   30  C   UNL     1     -45.586  59.737 -56.559  1.00  0.00     0.251 C 
HETATM   31  O   UNL     1     -46.397  60.655 -56.575  1.00  0.00    -0.268 OA
HETATM   32  N   UNL     1     -45.664  58.625 -57.369  1.00  0.00    -0.357 N 
HETATM   33  H   UNL     1     -44.849  58.035 -57.475  1.00  0.00     0.162 HD
BRANCH  32  34
HETATM   34  C   UNL     1     -46.736  58.498 -58.344  1.00  0.00     0.129 C 
BRANCH  34  35
HETATM   35  C   UNL     1     -46.504  57.334 -59.301  1.00  0.00     0.079 C 
BRANCH  35  36
HETATM   36  C   UNL     1     -45.039  57.138 -59.579  1.00  0.00     0.035 A 
HETATM   37  C   UNL     1     -44.431  55.905 -59.355  1.00  0.00     0.027 A 
HETATM   38  C   UNL     1     -43.069  55.773 -59.612  1.00  0.00     0.003 A 
HETATM   39  C   UNL     1     -42.354  56.868 -60.078  1.00  0.00     0.019 A 
HETATM   40  C   UNL     1     -43.033  58.059 -60.267  1.00  0.00     0.117 A 
HETATM   41  N   UNL     1     -44.354  58.217 -60.025  1.00  0.00    -0.266 NA
ENDBRANCH  35  36
ENDBRANCH  34  35
ENDBRANCH  32  34
ENDBRANCH   1  30
TORSDOF 6
ENDMDL
MODEL 5
REMARK VINA RESULT:      -9.5      2.089      8.619
REMARK  6 active torsions:
REMARK  status: ('A' for Active; 'I' for Inactive)
REMARK       I    between atoms: C_2  and  N_3 
REMARK    1  A    between atoms: C_2  and  C_12 
REMARK    2  A    between atoms: N_3  and  C_4 
REMARK    3  A    between atoms: C_4  and  C_5 
REMARK    4  A    between atoms: C_5  and  C_6 
REMARK    5  A    between atoms: C_18  and  C_22 
REMARK    6  A    between atoms: C_28  and  C_34 
ROOT
HETATM    1  C   UNL     1     -43.212  56.562 -51.429  1.00  0.00     0.032 A 
HETATM    2  C   UNL     1     -44.430  57.209 -51.195  1.00  0.00     0.020 A 
HETATM    3  C   UNL     1     -44.686  58.447 -51.790  1.00  0.00     0.038 A 
HETATM    4  C   UNL     1     -43.733  59.035 -52.622  1.00  0.00     0.075 A 
HETATM    5  O   UNL     1     -44.105  60.204 -53.235  1.00  0.00    -0.350 OA
HETATM    6  C   UNL     1     -43.039  60.938 -53.853  1.00  0.00     0.188 C 
HETATM    7  C   UNL     1     -42.145  60.047 -54.710  1.00  0.00     0.082 C 
HETATM    8  C   UNL     1     -41.504  58.995 -53.806  1.00  0.00     0.056 C 
HETATM    9  C   UNL     1     -42.523  58.387 -52.888  1.00  0.00    -0.023 A 
HETATM   10  C   UNL     1     -42.263  57.154 -52.275  1.00  0.00     0.027 A 
ENDROOT
BRANCH   7  11
HETATM   11  C   UNL     1     -42.874  59.390 -55.845  1.00  0.00     0.091 A 
HETATM   12  N   UNL     1     -44.091  59.841 -56.136  1.00  0.00    -0.345 N 
HETATM   13  H   UNL     1     -44.497  60.595 -55.590  1.00  0.00     0.167 HD
HETATM   14  C   UNL     1     -44.782  59.312 -57.191  1.00  0.00     0.049 A 
HETATM   15  C   UNL     1     -46.047  59.811 -57.504  1.00  0.00     0.031 A 
HETATM   16  C   UNL     1     -44.264  58.290 -57.988  1.00  0.00     0.059 A 
HETATM   17  C   UNL     1     -46.764  59.296 -58.594  1.00  0.00     0.014 A 
HETATM   18  C   UNL     1     -46.230  58.274 -59.396  1.00  0.00    -0.022 A 
HETATM   19  C   UNL     1     -44.967  57.765 -59.079  1.00  0.00     0.031 A 
HETATM   20  C   UNL     1     -42.938  57.791 -57.635  1.00  0.00     0.259 A 
HETATM   21  O   UNL     1     -42.338  56.901 -58.201  1.00  0.00    -0.267 OA
HETATM   22  N   UNL     1     -42.315  58.417 -56.534  1.00  0.00    -0.312 N 
HETATM   23  H   UNL     1     -41.375  58.100 -56.303  1.00  0.00     0.170 HD
BRANCH  18  24
HETATM   24  C   UNL     1     -46.984  57.763 -60.526  1.00  0.00     0.010 A 
HETATM   25  C   UNL     1     -47.162  56.442 -60.999  1.00  0.00     0.152 A 
HETATM   26  N   UNL     1     -47.954  56.380 -62.071  1.00  0.00    -0.187 NA
HETATM   27  N   UNL     1     -48.294  57.659 -62.291  1.00  0.00    -0.289 N 
HETATM   28  H   UNL     1     -48.913  57.866 -63.070  1.00  0.00     0.188 HD
HETATM   29  C   UNL     1     -47.738  58.527 -61.392  1.00  0.00     0.123 A 
ENDBRANCH  18  24
ENDBRANCH   7  11
BRANCH   1  30
HETATM   30  C   UNL     1     -42.904  55.221 -50.864  1.00  0.00     0.251 C 
HETATM   31  O   UNL     1     -43.772  54.617 -50.245  1.00  0.00    -0.268 OA
HETATM   32  N   UNL     1     -41.642  54.724 -51.106  1.00  0.00    -0.357 N 
HETATM   33  H   UNL     1     -41.068  55.160 -51.816  1.00  0.00     0.162 HD
BRANCH  32  34
HETATM   34  C   UNL     1     -41.276  53.392 -50.649  1.00  0.00     0.129 C 
BRANCH  34  35
HETATM   35  C   UNL     1     -39.862  53.010 -51.077  1.00  0.00     0.079 C 
BRANCH  35  36
HETATM   36  C   UNL     1     -39.881  51.974 -52.166  1.00  0.00     0.035 A 
HETATM   37  C   UNL     1     -40.274  52.309 -53.460  1.00  0.00     0.027 A 
HETATM   38  C   UNL     1     -40.291  51.314 -54.434  1.00  0.00     0.003 A 
HETATM   39  C   UNL     1     -39.922  50.020 -54.093  1.00  0.00     0.019 A 
HETATM   40  C   UNL     1     -39.550  49.771 -52.783  1.00  0.00     0.117 A 
HETATM   41  N   UNL     1     -39.525  50.715 -51.816  1.00  0.00    -0.266 NA
ENDBRANCH  35  36
ENDBRANCH  34  35
ENDBRANCH  32  34
ENDBRANCH   1  30
TORSDOF 6
ENDMDL
MODEL 6
REMARK VINA RESULT:      -9.1      3.848      7.678
REMARK  6 active torsions:
REMARK  status: ('A' for Active; 'I' for Inactive)
REMARK       I    between atoms: C_2  and  N_3 
REMARK    1  A    between atoms: C_2  and  C_12 
REMARK    2  A    between atoms: N_3  and  C_4 
REMARK    3  A    between atoms: C_4  and  C_5 
REMARK    4  A    between atoms: C_5  and  C_6 
REMARK    5  A    between atoms: C_18  and  C_22 
REMARK    6  A    between atoms: C_28  and  C_34 
ROOT
HETATM    1  C   UNL     1     -44.422  60.595 -51.530  1.00  0.00     0.032 A 
HETATM    2  C   UNL     1     -45.551  59.940 -52.033  1.00  0.00     0.020 A 
HETATM    3  C   UNL     1     -45.467  59.229 -53.233  1.00  0.00     0.038 A 
HETATM    4  C   UNL     1     -44.258  59.166 -53.927  1.00  0.00     0.075 A 
HETATM    5  O   UNL     1     -44.244  58.372 -55.045  1.00  0.00    -0.350 OA
HETATM    6  C   UNL     1     -43.102  58.536 -55.897  1.00  0.00     0.188 C 
HETATM    7  C   UNL     1     -41.791  58.527 -55.116  1.00  0.00     0.082 C 
HETATM    8  C   UNL     1     -41.802  59.707 -54.144  1.00  0.00     0.056 C 
HETATM    9  C   UNL     1     -43.115  59.793 -53.423  1.00  0.00    -0.023 A 
HETATM   10  C   UNL     1     -43.209  60.519 -52.228  1.00  0.00     0.027 A 
ENDROOT
BRANCH   7  11
HETATM   11  C   UNL     1     -41.548  57.243 -54.378  1.00  0.00     0.091 A 
HETATM   12  N   UNL     1     -41.139  56.196 -55.088  1.00  0.00    -0.345 N 
HETATM   13  H   UNL     1     -41.015  56.280 -56.093  1.00  0.00     0.167 HD
HETATM   14  C   UNL     1     -40.855  55.014 -54.462  1.00  0.00     0.049 A 
HETATM   15  C   UNL     1     -40.402  53.928 -55.212  1.00  0.00     0.031 A 
HETATM   16  C   UNL     1     -40.988  54.847 -53.083  1.00  0.00     0.059 A 
HETATM   17  C   UNL     1     -40.086  52.714 -54.587  1.00  0.00     0.014 A 
HETATM   18  C   UNL     1     -40.213  52.559 -53.197  1.00  0.00    -0.022 A 
HETATM   19  C   UNL     1     -40.677  53.642 -52.442  1.00  0.00     0.031 A 
HETATM   20  C   UNL     1     -41.463  56.002 -52.325  1.00  0.00     0.259 A 
HETATM   21  O   UNL     1     -41.652  56.039 -51.127  1.00  0.00    -0.267 OA
HETATM   22  N   UNL     1     -41.715  57.170 -53.074  1.00  0.00    -0.312 N 
HETATM   23  H   UNL     1     -42.013  57.991 -52.549  1.00  0.00     0.170 HD
BRANCH  18  24
HETATM   24  C   UNL     1     -39.870  51.297 -52.568  1.00  0.00     0.010 A 
HETATM   25  C   UNL     1     -39.622  50.975 -51.213  1.00  0.00     0.152 A 
HETATM   26  N   UNL     1     -39.353  49.681 -51.031  1.00  0.00    -0.187 NA
HETATM   27  N   UNL     1     -39.430  49.163 -52.265  1.00  0.00    -0.289 N 
HETATM   28  H   UNL     1     -39.266  48.166 -52.381  1.00  0.00     0.188 HD
HETATM   29  C   UNL     1     -39.737  50.090 -53.223  1.00  0.00     0.123 A 
ENDBRANCH  18  24
ENDBRANCH   7  11
BRANCH   1  30
HETATM   30  C   UNL     1     -44.439  61.324 -50.234  1.00  0.00     0.251 C 
HETATM   31  O   UNL     1     -43.534  61.135 -49.429  1.00  0.00    -0.268 OA
HETATM   32  N   UNL     1     -45.479  62.204 -50.033  1.00  0.00    -0.357 N 
HETATM   33  H   UNL     1     -46.046  62.485 -50.822  1.00  0.00     0.162 HD
BRANCH  32  34
HETATM   34  C   UNL     1     -45.538  63.009 -48.822  1.00  0.00     0.129 C 
BRANCH  34  35
HETATM   35  C   UNL     1     -46.396  62.357 -47.743  1.00  0.00     0.079 C 
BRANCH  35  36
HETATM   36  C   UNL     1     -45.652  62.253 -46.441  1.00  0.00     0.035 A 
HETATM   37  C   UNL     1     -45.505  63.365 -45.615  1.00  0.00     0.027 A 
HETATM   38  C   UNL     1     -44.795  63.228 -44.425  1.00  0.00     0.003 A 
HETATM   39  C   UNL     1     -44.251  61.994 -44.095  1.00  0.00     0.019 A 
HETATM   40  C   UNL     1     -44.438  60.941 -44.975  1.00  0.00     0.117 A 
HETATM   41  N   UNL     1     -45.121  61.045 -46.137  1.00  0.00    -0.266 NA
ENDBRANCH  35  36
ENDBRANCH  34  35
ENDBRANCH  32  34
ENDBRANCH   1  30
TORSDOF 6
ENDMDL
MODEL 7
REMARK VINA RESULT:      -8.8      3.539      7.556
REMARK  6 active torsions:
REMARK  status: ('A' for Active; 'I' for Inactive)
REMARK       I    between atoms: C_2  and  N_3 
REMARK    1  A    between atoms: C_2  and  C_12 
REMARK    2  A    between atoms: N_3  and  C_4 
REMARK    3  A    between atoms: C_4  and  C_5 
REMARK    4  A    between atoms: C_5  and  C_6 
REMARK    5  A    between atoms: C_18  and  C_22 
REMARK    6  A    between atoms: C_28  and  C_34 
ROOT
HETATM    1  C   UNL     1     -42.799  55.826 -56.112  1.00  0.00     0.032 A 
HETATM    2  C   UNL     1     -43.422  54.830 -55.354  1.00  0.00     0.020 A 
HETATM    3  C   UNL     1     -43.335  54.860 -53.960  1.00  0.00     0.038 A 
HETATM    4  C   UNL     1     -42.633  55.883 -53.322  1.00  0.00     0.075 A 
HETATM    5  O   UNL     1     -42.677  55.883 -51.952  1.00  0.00    -0.350 OA
HETATM    6  C   UNL     1     -41.735  56.754 -51.310  1.00  0.00     0.188 C 
HETATM    7  C   UNL     1     -41.723  58.149 -51.929  1.00  0.00     0.082 C 
HETATM    8  C   UNL     1     -41.296  58.023 -53.391  1.00  0.00     0.056 C 
HETATM    9  C   UNL     1     -42.027  56.900 -54.066  1.00  0.00    -0.023 A 
HETATM   10  C   UNL     1     -42.103  56.857 -55.464  1.00  0.00     0.027 A 
ENDROOT
BRANCH   7  11
HETATM   11  C   UNL     1     -43.042  58.856 -51.826  1.00  0.00     0.091 A 
HETATM   12  N   UNL     1     -43.250  59.888 -52.639  1.00  0.00    -0.345 N 
HETATM   13  H   UNL     1     -42.525  60.177 -53.290  1.00  0.00     0.167 HD
HETATM   14  C   UNL     1     -44.452  60.539 -52.624  1.00  0.00     0.049 A 
HETATM   15  C   UNL     1     -44.670  61.604 -53.500  1.00  0.00     0.031 A 
HETATM   16  C   UNL     1     -45.491  60.172 -51.768  1.00  0.00     0.059 A 
HETATM   17  C   UNL     1     -45.903  62.272 -53.514  1.00  0.00     0.014 A 
HETATM   18  C   UNL     1     -46.945  61.888 -52.655  1.00  0.00    -0.022 A 
HETATM   19  C   UNL     1     -46.728  60.828 -51.769  1.00  0.00     0.031 A 
HETATM   20  C   UNL     1     -45.233  59.054 -50.865  1.00  0.00     0.259 A 
HETATM   21  O   UNL     1     -46.008  58.607 -50.045  1.00  0.00    -0.267 OA
HETATM   22  N   UNL     1     -43.962  58.452 -50.975  1.00  0.00    -0.312 N 
HETATM   23  H   UNL     1     -43.786  57.648 -50.374  1.00  0.00     0.170 HD
BRANCH  18  24
HETATM   24  C   UNL     1     -48.217  62.586 -52.694  1.00  0.00     0.010 A 
HETATM   25  C   UNL     1     -48.729  63.625 -51.881  1.00  0.00     0.152 A 
HETATM   26  N   UNL     1     -49.948  64.018 -52.252  1.00  0.00    -0.187 NA
HETATM   27  N   UNL     1     -50.227  63.239 -53.307  1.00  0.00    -0.289 N 
HETATM   28  H   UNL     1     -51.121  63.362 -53.775  1.00  0.00     0.188 HD
HETATM   29  C   UNL     1     -49.222  62.363 -53.613  1.00  0.00     0.123 A 
ENDBRANCH  18  24
ENDBRANCH   7  11
BRANCH   1  30
HETATM   30  C   UNL     1     -42.899  55.876 -57.596  1.00  0.00     0.251 C 
HETATM   31  O   UNL     1     -43.519  54.997 -58.184  1.00  0.00    -0.268 OA
HETATM   32  N   UNL     1     -42.300  56.947 -58.220  1.00  0.00    -0.357 N 
HETATM   33  H   UNL     1     -42.021  57.746 -57.667  1.00  0.00     0.162 HD
BRANCH  32  34
HETATM   34  C   UNL     1     -42.406  57.112 -59.662  1.00  0.00     0.129 C 
BRANCH  34  35
HETATM   35  C   UNL     1     -43.334  58.263 -60.038  1.00  0.00     0.079 C 
BRANCH  35  36
HETATM   36  C   UNL     1     -44.638  58.179 -59.295  1.00  0.00     0.035 A 
HETATM   37  C   UNL     1     -45.680  57.387 -59.772  1.00  0.00     0.027 A 
HETATM   38  C   UNL     1     -46.876  57.352 -59.059  1.00  0.00     0.003 A 
HETATM   39  C   UNL     1     -47.001  58.106 -57.900  1.00  0.00     0.019 A 
HETATM   40  C   UNL     1     -45.919  58.871 -57.499  1.00  0.00     0.117 A 
HETATM   41  N   UNL     1     -44.747  58.926 -58.170  1.00  0.00    -0.266 NA
ENDBRANCH  35  36
ENDBRANCH  34  35
ENDBRANCH  32  34
ENDBRANCH   1  30
TORSDOF 6
ENDMDL
MODEL 8
REMARK VINA RESULT:      -8.7      5.116      9.088
REMARK  6 active torsions:
REMARK  status: ('A' for Active; 'I' for Inactive)
REMARK       I    between atoms: C_2  and  N_3 
REMARK    1  A    between atoms: C_2  and  C_12 
REMARK    2  A    between atoms: N_3  and  C_4 
REMARK    3  A    between atoms: C_4  and  C_5 
REMARK    4  A    between atoms: C_5  and  C_6 
REMARK    5  A    between atoms: C_18  and  C_22 
REMARK    6  A    between atoms: C_28  and  C_34 
ROOT
HETATM    1  C   UNL     1     -44.999  62.574 -50.480  1.00  0.00     0.032 A 
HETATM    2  C   UNL     1     -46.082  61.687 -50.495  1.00  0.00     0.020 A 
HETATM    3  C   UNL     1     -46.365  60.954 -51.650  1.00  0.00     0.038 A 
HETATM    4  C   UNL     1     -45.568  61.100 -52.786  1.00  0.00     0.075 A 
HETATM    5  O   UNL     1     -45.863  60.275 -53.842  1.00  0.00    -0.350 OA
HETATM    6  C   UNL     1     -45.236  60.622 -55.084  1.00  0.00     0.188 C 
HETATM    7  C   UNL     1     -43.746  60.906 -54.919  1.00  0.00     0.082 C 
HETATM    8  C   UNL     1     -43.584  62.103 -53.982  1.00  0.00     0.056 C 
HETATM    9  C   UNL     1     -44.467  61.961 -52.777  1.00  0.00    -0.023 A 
HETATM   10  C   UNL     1     -44.197  62.707 -51.623  1.00  0.00     0.027 A 
ENDROOT
BRANCH   7  11
HETATM   11  C   UNL     1     -42.970  59.729 -54.404  1.00  0.00     0.091 A 
HETATM   12  N   UNL     1     -43.576  58.546 -54.406  1.00  0.00    -0.345 N 
HETATM   13  H   UNL     1     -44.534  58.466 -54.736  1.00  0.00     0.167 HD
HETATM   14  C   UNL     1     -42.901  57.430 -53.994  1.00  0.00     0.049 A 
HETATM   15  C   UNL     1     -43.539  56.189 -54.024  1.00  0.00     0.031 A 
HETATM   16  C   UNL     1     -41.579  57.477 -53.551  1.00  0.00     0.059 A 
HETATM   17  C   UNL     1     -42.857  55.030 -53.625  1.00  0.00     0.014 A 
HETATM   18  C   UNL     1     -41.523  55.087 -53.190  1.00  0.00    -0.022 A 
HETATM   19  C   UNL     1     -40.884  56.330 -53.149  1.00  0.00     0.031 A 
HETATM   20  C   UNL     1     -40.940  58.790 -53.533  1.00  0.00     0.259 A 
HETATM   21  O   UNL     1     -39.807  59.026 -53.166  1.00  0.00    -0.267 OA
HETATM   22  N   UNL     1     -41.728  59.868 -53.988  1.00  0.00    -0.312 N 
HETATM   23  H   UNL     1     -41.279  60.781 -54.012  1.00  0.00     0.170 HD
BRANCH  18  24
HETATM   24  C   UNL     1     -40.833  53.874 -52.792  1.00  0.00     0.010 A 
HETATM   25  C   UNL     1     -40.476  52.725 -53.536  1.00  0.00     0.152 A 
HETATM   26  N   UNL     1     -39.823  51.819 -52.806  1.00  0.00    -0.187 NA
HETATM   27  N   UNL     1     -39.752  52.381 -51.590  1.00  0.00    -0.289 N 
HETATM   28  H   UNL     1     -39.281  51.869 -50.849  1.00  0.00     0.188 HD
HETATM   29  C   UNL     1     -40.343  53.613 -51.529  1.00  0.00     0.123 A 
ENDBRANCH  18  24
ENDBRANCH   7  11
BRANCH   1  30
HETATM   30  C   UNL     1     -44.619  63.342 -49.265  1.00  0.00     0.251 C 
HETATM   31  O   UNL     1     -43.846  64.287 -49.371  1.00  0.00    -0.268 OA
HETATM   32  N   UNL     1     -45.197  62.948 -48.079  1.00  0.00    -0.357 N 
HETATM   33  H   UNL     1     -45.995  62.328 -48.102  1.00  0.00     0.162 HD
BRANCH  32  34
HETATM   34  C   UNL     1     -44.934  63.685 -46.851  1.00  0.00     0.129 C 
BRANCH  34  35
HETATM   35  C   UNL     1     -45.459  62.951 -45.622  1.00  0.00     0.079 C 
BRANCH  35  36
HETATM   36  C   UNL     1     -44.611  63.235 -44.413  1.00  0.00     0.035 A 
HETATM   37  C   UNL     1     -43.912  62.211 -43.777  1.00  0.00     0.027 A 
HETATM   38  C   UNL     1     -43.152  62.517 -42.651  1.00  0.00     0.003 A 
HETATM   39  C   UNL     1     -43.112  63.826 -42.191  1.00  0.00     0.019 A 
HETATM   40  C   UNL     1     -43.841  64.782 -42.877  1.00  0.00     0.117 A 
HETATM   41  N   UNL     1     -44.589  64.515 -43.971  1.00  0.00    -0.266 NA
ENDBRANCH  35  36
ENDBRANCH  34  35
ENDBRANCH  32  34
ENDBRANCH   1  30
TORSDOF 6
ENDMDL
MODEL 9
REMARK VINA RESULT:      -8.7     16.230     18.082
REMARK  6 active torsions:
REMARK  status: ('A' for Active; 'I' for Inactive)
REMARK       I    between atoms: C_2  and  N_3 
REMARK    1  A    between atoms: C_2  and  C_12 
REMARK    2  A    between atoms: N_3  and  C_4 
REMARK    3  A    between atoms: C_4  and  C_5 
REMARK    4  A    between atoms: C_5  and  C_6 
REMARK    5  A    between atoms: C_18  and  C_22 
REMARK    6  A    between atoms: C_28  and  C_34 
ROOT
HETATM    1  C   UNL     1     -36.216  40.274 -57.685  1.00  0.00     0.032 A 
HETATM    2  C   UNL     1     -35.430  39.172 -57.330  1.00  0.00     0.020 A 
HETATM    3  C   UNL     1     -34.813  39.131 -56.078  1.00  0.00     0.038 A 
HETATM    4  C   UNL     1     -34.982  40.184 -55.178  1.00  0.00     0.075 A 
HETATM    5  O   UNL     1     -34.415  40.018 -53.941  1.00  0.00    -0.350 OA
HETATM    6  C   UNL     1     -34.350  41.202 -53.133  1.00  0.00     0.188 C 
HETATM    7  C   UNL     1     -35.675  41.959 -53.110  1.00  0.00     0.082 C 
HETATM    8  C   UNL     1     -36.001  42.402 -54.537  1.00  0.00     0.056 C 
HETATM    9  C   UNL     1     -35.786  41.279 -55.508  1.00  0.00    -0.023 A 
HETATM   10  C   UNL     1     -36.390  41.324 -56.771  1.00  0.00     0.027 A 
ENDROOT
BRANCH   7  11
HETATM   11  C   UNL     1     -36.808  41.157 -52.539  1.00  0.00     0.091 A 
HETATM   12  N   UNL     1     -38.044  41.546 -52.833  1.00  0.00    -0.345 N 
HETATM   13  H   UNL     1     -38.195  42.365 -53.416  1.00  0.00     0.167 HD
HETATM   14  C   UNL     1     -39.114  40.825 -52.381  1.00  0.00     0.049 A 
HETATM   15  C   UNL     1     -40.407  41.226 -52.717  1.00  0.00     0.031 A 
HETATM   16  C   UNL     1     -38.967  39.681 -51.596  1.00  0.00     0.059 A 
HETATM   17  C   UNL     1     -41.517  40.489 -52.279  1.00  0.00     0.014 A 
HETATM   18  C   UNL     1     -41.358  39.333 -51.499  1.00  0.00    -0.022 A 
HETATM   19  C   UNL     1     -40.064  38.933 -51.150  1.00  0.00     0.031 A 
HETATM   20  C   UNL     1     -37.601  39.286 -51.262  1.00  0.00     0.259 A 
HETATM   21  O   UNL     1     -37.281  38.333 -50.581  1.00  0.00    -0.267 OA
HETATM   22  N   UNL     1     -36.576  40.098 -51.791  1.00  0.00    -0.312 N 
HETATM   23  H   UNL     1     -35.619  39.810 -51.593  1.00  0.00     0.170 HD
BRANCH  18  24
HETATM   24  C   UNL     1     -42.519  38.579 -51.065  1.00  0.00     0.010 A 
HETATM   25  C   UNL     1     -43.157  38.503 -49.805  1.00  0.00     0.152 A 
HETATM   26  N   UNL     1     -44.224  37.702 -49.813  1.00  0.00    -0.187 NA
HETATM   27  N   UNL     1     -44.281  37.260 -51.079  1.00  0.00    -0.289 N 
HETATM   28  H   UNL     1     -45.033  36.626 -51.334  1.00  0.00     0.188 HD
HETATM   29  C   UNL     1     -43.282  37.757 -51.870  1.00  0.00     0.123 A 
ENDBRANCH  18  24
ENDBRANCH   7  11
BRANCH   1  30
HETATM   30  C   UNL     1     -36.939  40.350 -58.982  1.00  0.00     0.251 C 
HETATM   31  O   UNL     1     -37.792  41.215 -59.143  1.00  0.00    -0.268 OA
HETATM   32  N   UNL     1     -36.573  39.439 -59.948  1.00  0.00    -0.357 N 
HETATM   33  H   UNL     1     -35.711  38.921 -59.835  1.00  0.00     0.162 HD
BRANCH  32  34
HETATM   34  C   UNL     1     -37.179  39.483 -61.270  1.00  0.00     0.129 C 
BRANCH  34  35
HETATM   35  C   UNL     1     -37.658  38.108 -61.725  1.00  0.00     0.079 C 
BRANCH  35  36
HETATM   36  C   UNL     1     -39.160  38.038 -61.765  1.00  0.00     0.035 A 
HETATM   37  C   UNL     1     -39.904  38.046 -60.587  1.00  0.00     0.027 A 
HETATM   38  C   UNL     1     -41.291  37.963 -60.671  1.00  0.00     0.003 A 
HETATM   39  C   UNL     1     -41.895  37.871 -61.918  1.00  0.00     0.019 A 
HETATM   40  C   UNL     1     -41.081  37.864 -63.038  1.00  0.00     0.117 A 
HETATM   41  N   UNL     1     -39.733  37.941 -62.988  1.00  0.00    -0.266 NA
ENDBRANCH  35  36
ENDBRANCH  34  35
ENDBRANCH  32  34
ENDBRANCH   1  30
TORSDOF 6
ENDMDL
MODEL 10
REMARK VINA RESULT:      -8.7      4.426      9.200
REMARK  6 active torsions:
REMARK  status: ('A' for Active; 'I' for Inactive)
REMARK       I    between atoms: C_2  and  N_3 
REMARK    1  A    between atoms: C_2  and  C_12 
REMARK    2  A    between atoms: N_3  and  C_4 
REMARK    3  A    between atoms: C_4  and  C_5 
REMARK    4  A    between atoms: C_5  and  C_6 
REMARK    5  A    between atoms: C_18  and  C_22 
REMARK    6  A    between atoms: C_28  and  C_34 
ROOT
HETATM    1  C   UNL     1     -42.425  57.434 -54.174  1.00  0.00     0.032 A 
HETATM    2  C   UNL     1     -41.386  58.371 -54.150  1.00  0.00     0.020 A 
HETATM    3  C   UNL     1     -41.679  59.736 -54.162  1.00  0.00     0.038 A 
HETATM    4  C   UNL     1     -43.006  60.169 -54.193  1.00  0.00     0.075 A 
HETATM    5  O   UNL     1     -43.202  61.523 -54.110  1.00  0.00    -0.350 OA
HETATM    6  C   UNL     1     -44.529  61.970 -54.424  1.00  0.00     0.188 C 
HETATM    7  C   UNL     1     -45.599  61.145 -53.714  1.00  0.00     0.082 C 
HETATM    8  C   UNL     1     -45.485  59.697 -54.190  1.00  0.00     0.056 C 
HETATM    9  C   UNL     1     -44.055  59.245 -54.189  1.00  0.00    -0.023 A 
HETATM   10  C   UNL     1     -43.756  57.876 -54.194  1.00  0.00     0.027 A 
ENDROOT
BRANCH   7  11
HETATM   11  C   UNL     1     -45.507  61.214 -52.218  1.00  0.00     0.091 A 
HETATM   12  N   UNL     1     -45.158  62.378 -51.677  1.00  0.00    -0.345 N 
HETATM   13  H   UNL     1     -44.954  63.175 -52.274  1.00  0.00     0.167 HD
HETATM   14  C   UNL     1     -45.106  62.512 -50.318  1.00  0.00     0.049 A 
HETATM   15  C   UNL     1     -44.764  63.745 -49.760  1.00  0.00     0.031 A 
HETATM   16  C   UNL     1     -45.396  61.459 -49.450  1.00  0.00     0.059 A 
HETATM   17  C   UNL     1     -44.724  63.909 -48.368  1.00  0.00     0.014 A 
HETATM   18  C   UNL     1     -45.028  62.845 -47.504  1.00  0.00    -0.022 A 
HETATM   19  C   UNL     1     -45.361  61.605 -48.058  1.00  0.00     0.031 A 
HETATM   20  C   UNL     1     -45.752  60.182 -50.064  1.00  0.00     0.259 A 
HETATM   21  O   UNL     1     -46.019  59.157 -49.472  1.00  0.00    -0.267 OA
HETATM   22  N   UNL     1     -45.783  60.163 -51.474  1.00  0.00    -0.312 N 
HETATM   23  H   UNL     1     -46.064  59.286 -51.911  1.00  0.00     0.170 HD
BRANCH  18  24
HETATM   24  C   UNL     1     -44.992  63.040 -46.066  1.00  0.00     0.010 A 
HETATM   25  C   UNL     1     -45.218  64.195 -45.281  1.00  0.00     0.152 A 
HETATM   26  N   UNL     1     -45.109  63.960 -43.973  1.00  0.00    -0.187 NA
HETATM   27  N   UNL     1     -44.816  62.653 -43.907  1.00  0.00    -0.289 N 
HETATM   28  H   UNL     1     -44.691  62.232 -42.990  1.00  0.00     0.188 HD
HETATM   29  C   UNL     1     -44.735  62.055 -45.134  1.00  0.00     0.123 A 
ENDBRANCH  18  24
ENDBRANCH   7  11
BRANCH   1  30
HETATM   30  C   UNL     1     -42.176  55.969 -54.111  1.00  0.00     0.251 C 
HETATM   31  O   UNL     1     -43.120  55.208 -53.936  1.00  0.00    -0.268 OA
HETATM   32  N   UNL     1     -40.874  55.556 -54.286  1.00  0.00    -0.357 N 
HETATM   33  H   UNL     1     -40.196  56.208 -54.660  1.00  0.00     0.162 HD
BRANCH  32  34
HETATM   34  C   UNL     1     -40.548  54.138 -54.307  1.00  0.00     0.129 C 
BRANCH  34  35
HETATM   35  C   UNL     1     -40.454  53.553 -52.902  1.00  0.00     0.079 C 
BRANCH  35  36
HETATM   36  C   UNL     1     -40.104  52.091 -52.940  1.00  0.00     0.035 A 
HETATM   37  C   UNL     1     -40.135  51.383 -54.139  1.00  0.00     0.027 A 
HETATM   38  C   UNL     1     -39.819  50.027 -54.126  1.00  0.00     0.003 A 
HETATM   39  C   UNL     1     -39.485  49.417 -52.924  1.00  0.00     0.019 A 
HETATM   40  C   UNL     1     -39.484  50.192 -51.777  1.00  0.00     0.117 A 
HETATM   41  N   UNL     1     -39.788  51.509 -51.759  1.00  0.00    -0.266 NA
ENDBRANCH  35  36
ENDBRANCH  34  35
ENDBRANCH  32  34
ENDBRANCH   1  30
TORSDOF 6
ENDMDL
