MODEL 1
REMARK VINA RESULT:      -8.1      0.000      0.000
REMARK  5 active torsions:
REMARK  status: ('A' for Active; 'I' for Inactive)
REMARK    1  A    between atoms: C_3  and  N_4 
REMARK       I    between atoms: N_4  and  C_5 
REMARK       I    between atoms: C_5  and  N_6 
REMARK    2  A    between atoms: N_6  and  C_7 
REMARK    3  A    between atoms: C_7  and  C_8 
REMARK    4  A    between atoms: C_10  and  N_11 
REMARK       I    between atoms: N_11  and  C_12 
REMARK    5  A    between atoms: C_12  and  C_13 
ROOT
HETATM    1  C   UNL     1     -43.991  57.295 -52.272  1.00  0.00    -0.038 A 
HETATM    2  C   UNL     1     -43.988  56.746 -53.567  1.00  0.00     0.038 A 
HETATM    3  C   UNL     1     -44.482  57.467 -54.656  1.00  0.00     0.035 A 
HETATM    4  C   UNL     1     -45.004  58.748 -54.438  1.00  0.00     0.029 A 
HETATM    5  C   UNL     1     -45.038  59.293 -53.153  1.00  0.00     0.003 A 
HETATM    6  C   UNL     1     -44.534  58.570 -52.073  1.00  0.00     0.009 A 
ENDROOT
BRANCH   1   7
HETATM    7  C   UNL     1     -43.391  56.530 -51.122  1.00  0.00     0.163 C 
BRANCH   7   8
HETATM    8  N   UNL     1     -42.129  55.920 -51.474  1.00  0.00    -0.339 N 
HETATM    9  C   UNL     1     -42.053  54.599 -51.854  1.00  0.00     0.321 C 
HETATM   10  N   UNL     1     -40.735  54.218 -52.004  1.00  0.00    -0.307 N 
HETATM   11  O   UNL     1     -43.033  53.875 -51.955  1.00  0.00    -0.247 OA
HETATM   12  H   UNL     1     -40.128  54.726 -51.375  1.00  0.00     0.170 HD
HETATM   13  H   UNL     1     -41.404  56.536 -51.811  1.00  0.00     0.164 HD
BRANCH  10  14
HETATM   14  C   UNL     1     -40.310  52.911 -52.346  1.00  0.00     0.059 A 
HETATM   15  C   UNL     1     -40.150  52.425 -53.651  1.00  0.00    -0.032 A 
HETATM   16  C   UNL     1     -40.322  53.253 -54.892  1.00  0.00     0.050 C 
HETATM   17  C   UNL     1     -39.779  51.080 -53.815  1.00  0.00     0.028 A 
HETATM   18  C   UNL     1     -39.523  50.298 -52.700  1.00  0.00     0.117 A 
HETATM   19  N   UNL     1     -39.599  50.756 -51.437  1.00  0.00    -0.271 NA
HETATM   20  C   UNL     1     -39.986  52.046 -51.296  1.00  0.00     0.146 A 
ENDBRANCH  10  14
ENDBRANCH   7   8
ENDBRANCH   1   7
BRANCH   3  21
HETATM   21  N   UNL     1     -44.453  56.999 -55.982  1.00  0.00    -0.321 N 
HETATM   22  C   UNL     1     -43.511  57.260 -56.963  1.00  0.00     0.279 C 
HETATM   23  O   UNL     1     -42.465  57.879 -56.797  1.00  0.00    -0.265 OA
HETATM   24  H   UNL     1     -45.218  56.403 -56.279  1.00  0.00     0.169 HD
BRANCH  22  25
HETATM   25  C   UNL     1     -43.880  56.708 -58.255  1.00  0.00     0.142 A 
HETATM   26  O   UNL     1     -45.025  57.142 -58.877  1.00  0.00    -0.317 OA
HETATM   27  C   UNL     1     -45.105  56.491 -60.066  1.00  0.00     0.143 A 
HETATM   28  C   UNL     1     -44.041  55.635 -60.221  1.00  0.00     0.027 A 
HETATM   29  C   UNL     1     -43.251  55.771 -59.054  1.00  0.00     0.045 A 
ENDBRANCH  22  25
ENDBRANCH   3  21
TORSDOF 5
ENDMDL
MODEL 2
REMARK VINA RESULT:      -8.0      4.061      8.846
REMARK  5 active torsions:
REMARK  status: ('A' for Active; 'I' for Inactive)
REMARK    1  A    between atoms: C_3  and  N_4 
REMARK       I    between atoms: N_4  and  C_5 
REMARK       I    between atoms: C_5  and  N_6 
REMARK    2  A    between atoms: N_6  and  C_7 
REMARK    3  A    between atoms: C_7  and  C_8 
REMARK    4  A    between atoms: C_10  and  N_11 
REMARK       I    between atoms: N_11  and  C_12 
REMARK    5  A    between atoms: C_12  and  C_13 
ROOT
HETATM    1  C   UNL     1     -43.251  56.855 -52.281  1.00  0.00    -0.038 A 
HETATM    2  C   UNL     1     -42.911  55.501 -52.457  1.00  0.00     0.038 A 
HETATM    3  C   UNL     1     -41.752  55.135 -53.146  1.00  0.00     0.035 A 
HETATM    4  C   UNL     1     -40.938  56.139 -53.682  1.00  0.00     0.029 A 
HETATM    5  C   UNL     1     -41.280  57.485 -53.538  1.00  0.00     0.003 A 
HETATM    6  C   UNL     1     -42.433  57.843 -52.840  1.00  0.00     0.009 A 
ENDROOT
BRANCH   1   7
HETATM    7  C   UNL     1     -44.468  57.232 -51.476  1.00  0.00     0.163 C 
BRANCH   7   8
HETATM    8  N   UNL     1     -44.270  58.457 -50.735  1.00  0.00    -0.339 N 
HETATM    9  C   UNL     1     -45.335  59.180 -50.247  1.00  0.00     0.321 C 
HETATM   10  N   UNL     1     -44.899  60.370 -49.701  1.00  0.00    -0.307 N 
HETATM   11  O   UNL     1     -46.498  58.822 -50.371  1.00  0.00    -0.247 OA
HETATM   12  H   UNL     1     -44.071  60.711 -50.171  1.00  0.00     0.170 HD
HETATM   13  H   UNL     1     -43.387  58.562 -50.255  1.00  0.00     0.164 HD
BRANCH  10  14
HETATM   14  C   UNL     1     -45.747  61.361 -49.152  1.00  0.00     0.059 A 
HETATM   15  C   UNL     1     -45.979  61.565 -47.785  1.00  0.00    -0.032 A 
HETATM   16  C   UNL     1     -45.286  60.812 -46.685  1.00  0.00     0.050 C 
HETATM   17  C   UNL     1     -46.902  62.556 -47.411  1.00  0.00     0.028 A 
HETATM   18  C   UNL     1     -47.502  63.338 -48.386  1.00  0.00     0.117 A 
HETATM   19  N   UNL     1     -47.245  63.213 -49.700  1.00  0.00    -0.271 NA
HETATM   20  C   UNL     1     -46.377  62.234 -50.046  1.00  0.00     0.146 A 
ENDBRANCH  10  14
ENDBRANCH   7   8
ENDBRANCH   1   7
BRANCH   3  21
HETATM   21  N   UNL     1     -41.325  53.803 -53.304  1.00  0.00    -0.321 N 
HETATM   22  C   UNL     1     -40.420  53.096 -52.532  1.00  0.00     0.279 C 
HETATM   23  O   UNL     1     -39.906  53.498 -51.492  1.00  0.00    -0.265 OA
HETATM   24  H   UNL     1     -41.709  53.285 -54.087  1.00  0.00     0.169 HD
BRANCH  22  25
HETATM   25  C   UNL     1     -40.126  51.781 -53.076  1.00  0.00     0.142 A 
HETATM   26  O   UNL     1     -39.685  50.785 -52.241  1.00  0.00    -0.317 OA
HETATM   27  C   UNL     1     -39.523  49.670 -53.001  1.00  0.00     0.143 A 
HETATM   28  C   UNL     1     -39.839  49.929 -54.313  1.00  0.00     0.027 A 
HETATM   29  C   UNL     1     -40.226  51.290 -54.365  1.00  0.00     0.045 A 
ENDBRANCH  22  25
ENDBRANCH   3  21
TORSDOF 5
ENDMDL
MODEL 3
REMARK VINA RESULT:      -7.6      2.064      7.367
REMARK  5 active torsions:
REMARK  status: ('A' for Active; 'I' for Inactive)
REMARK    1  A    between atoms: C_3  and  N_4 
REMARK       I    between atoms: N_4  and  C_5 
REMARK       I    between atoms: C_5  and  N_6 
REMARK    2  A    between atoms: N_6  and  C_7 
REMARK    3  A    between atoms: C_7  and  C_8 
REMARK    4  A    between atoms: C_10  and  N_11 
REMARK       I    between atoms: N_11  and  C_12 
REMARK    5  A    between atoms: C_12  and  C_13 
ROOT
HETATM    1  C   UNL     1     -42.070  57.363 -53.331  1.00  0.00    -0.038 A 
HETATM    2  C   UNL     1     -41.621  56.067 -53.642  1.00  0.00     0.038 A 
HETATM    3  C   UNL     1     -41.563  55.071 -52.663  1.00  0.00     0.035 A 
HETATM    4  C   UNL     1     -41.941  55.388 -51.353  1.00  0.00     0.029 A 
HETATM    5  C   UNL     1     -42.362  56.679 -51.026  1.00  0.00     0.003 A 
HETATM    6  C   UNL     1     -42.426  57.664 -52.011  1.00  0.00     0.009 A 
ENDROOT
BRANCH   1   7
HETATM    7  C   UNL     1     -42.190  58.404 -54.413  1.00  0.00     0.163 C 
BRANCH   7   8
HETATM    8  N   UNL     1     -41.943  57.854 -55.726  1.00  0.00    -0.339 N 
HETATM    9  C   UNL     1     -42.979  57.485 -56.555  1.00  0.00     0.321 C 
HETATM   10  N   UNL     1     -42.491  56.864 -57.686  1.00  0.00    -0.307 N 
HETATM   11  O   UNL     1     -44.157  57.632 -56.259  1.00  0.00    -0.247 OA
HETATM   12  H   UNL     1     -41.632  56.365 -57.494  1.00  0.00     0.170 HD
HETATM   13  H   UNL     1     -41.070  58.102 -56.167  1.00  0.00     0.164 HD
BRANCH  10  14
HETATM   14  C   UNL     1     -43.296  56.327 -58.719  1.00  0.00     0.059 A 
HETATM   15  C   UNL     1     -43.740  57.026 -59.850  1.00  0.00    -0.032 A 
HETATM   16  C   UNL     1     -43.350  58.438 -60.181  1.00  0.00     0.050 C 
HETATM   17  C   UNL     1     -44.587  56.359 -60.751  1.00  0.00     0.028 A 
HETATM   18  C   UNL     1     -44.905  55.026 -60.535  1.00  0.00     0.117 A 
HETATM   19  N   UNL     1     -44.437  54.310 -59.497  1.00  0.00    -0.271 NA
HETATM   20  C   UNL     1     -43.646  54.976 -58.623  1.00  0.00     0.146 A 
ENDBRANCH  10  14
ENDBRANCH   7   8
ENDBRANCH   1   7
BRANCH   3  21
HETATM   21  N   UNL     1     -41.181  53.742 -52.923  1.00  0.00    -0.321 N 
HETATM   22  C   UNL     1     -40.232  52.979 -52.265  1.00  0.00     0.279 C 
HETATM   23  O   UNL     1     -39.625  53.317 -51.253  1.00  0.00    -0.265 OA
HETATM   24  H   UNL     1     -41.640  53.272 -53.695  1.00  0.00     0.169 HD
BRANCH  22  25
HETATM   25  C   UNL     1     -40.014  51.689 -52.896  1.00  0.00     0.142 A 
HETATM   26  O   UNL     1     -39.623  50.618 -52.132  1.00  0.00    -0.317 OA
HETATM   27  C   UNL     1     -39.528  49.548 -52.964  1.00  0.00     0.143 A 
HETATM   28  C   UNL     1     -39.837  49.909 -54.253  1.00  0.00     0.027 A 
HETATM   29  C   UNL     1     -40.149  51.289 -54.213  1.00  0.00     0.045 A 
ENDBRANCH  22  25
ENDBRANCH   3  21
TORSDOF 5
ENDMDL
MODEL 4
REMARK VINA RESULT:      -7.4      1.922      7.414
REMARK  5 active torsions:
REMARK  status: ('A' for Active; 'I' for Inactive)
REMARK    1  A    between atoms: C_3  and  N_4 
REMARK       I    between atoms: N_4  and  C_5 
REMARK       I    between atoms: C_5  and  N_6 
REMARK    2  A    between atoms: N_6  and  C_7 
REMARK    3  A    between atoms: C_7  and  C_8 
REMARK    4  A    between atoms: C_10  and  N_11 
REMARK       I    between atoms: N_11  and  C_12 
REMARK    5  A    between atoms: C_12  and  C_13 
ROOT
HETATM    1  C   UNL     1     -43.182  56.882 -52.250  1.00  0.00    -0.038 A 
HETATM    2  C   UNL     1     -42.656  55.632 -52.623  1.00  0.00     0.038 A 
HETATM    3  C   UNL     1     -41.575  55.073 -51.937  1.00  0.00     0.035 A 
HETATM    4  C   UNL     1     -41.004  55.787 -50.877  1.00  0.00     0.029 A 
HETATM    5  C   UNL     1     -41.500  57.041 -50.515  1.00  0.00     0.003 A 
HETATM    6  C   UNL     1     -42.585  57.588 -51.199  1.00  0.00     0.009 A 
ENDROOT
BRANCH   1   7
HETATM    7  C   UNL     1     -44.390  57.438 -52.957  1.00  0.00     0.163 C 
BRANCH   7   8
HETATM    8  N   UNL     1     -44.542  56.891 -54.286  1.00  0.00    -0.339 N 
HETATM    9  C   UNL     1     -44.054  57.549 -55.392  1.00  0.00     0.321 C 
HETATM   10  N   UNL     1     -44.442  56.901 -56.547  1.00  0.00    -0.307 N 
HETATM   11  O   UNL     1     -43.436  58.603 -55.324  1.00  0.00    -0.247 OA
HETATM   12  H   UNL     1     -45.336  56.443 -56.432  1.00  0.00     0.170 HD
HETATM   13  H   UNL     1     -44.643  55.889 -54.357  1.00  0.00     0.164 HD
BRANCH  10  14
HETATM   14  C   UNL     1     -44.140  57.344 -57.857  1.00  0.00     0.059 A 
HETATM   15  C   UNL     1     -45.040  57.971 -58.730  1.00  0.00    -0.032 A 
HETATM   16  C   UNL     1     -46.448  58.349 -58.369  1.00  0.00     0.050 C 
HETATM   17  C   UNL     1     -44.593  58.293 -60.023  1.00  0.00     0.028 A 
HETATM   18  C   UNL     1     -43.275  58.045 -60.374  1.00  0.00     0.117 A 
HETATM   19  N   UNL     1     -42.370  57.510 -59.535  1.00  0.00    -0.271 NA
HETATM   20  C   UNL     1     -42.825  57.178 -58.304  1.00  0.00     0.146 A 
ENDBRANCH  10  14
ENDBRANCH   7   8
ENDBRANCH   1   7
BRANCH   3  21
HETATM   21  N   UNL     1     -41.042  53.802 -52.222  1.00  0.00    -0.321 N 
HETATM   22  C   UNL     1     -40.419  53.374 -53.382  1.00  0.00     0.279 C 
HETATM   23  O   UNL     1     -40.132  54.087 -54.338  1.00  0.00    -0.265 OA
HETATM   24  H   UNL     1     -41.129  53.093 -51.502  1.00  0.00     0.169 HD
BRANCH  22  25
HETATM   25  C   UNL     1     -40.115  51.954 -53.363  1.00  0.00     0.142 A 
HETATM   26  O   UNL     1     -39.737  51.357 -52.186  1.00  0.00    -0.317 OA
HETATM   27  C   UNL     1     -39.548  50.038 -52.450  1.00  0.00     0.143 A 
HETATM   28  C   UNL     1     -39.784  49.772 -53.778  1.00  0.00     0.027 A 
HETATM   29  C   UNL     1     -40.147  51.006 -54.369  1.00  0.00     0.045 A 
ENDBRANCH  22  25
ENDBRANCH   3  21
TORSDOF 5
ENDMDL
MODEL 5
REMARK VINA RESULT:      -7.4      3.662      8.340
REMARK  5 active torsions:
REMARK  status: ('A' for Active; 'I' for Inactive)
REMARK    1  A    between atoms: C_3  and  N_4 
REMARK       I    between atoms: N_4  and  C_5 
REMARK       I    between atoms: C_5  and  N_6 
REMARK    2  A    between atoms: N_6  and  C_7 
REMARK    3  A    between atoms: C_7  and  C_8 
REMARK    4  A    between atoms: C_10  and  N_11 
REMARK       I    between atoms: N_11  and  C_12 
REMARK    5  A    between atoms: C_12  and  C_13 
ROOT
HETATM    1  C   UNL     1     -42.464  57.514 -53.349  1.00  0.00    -0.038 A 
HETATM    2  C   UNL     1     -41.749  56.332 -53.089  1.00  0.00     0.038 A 
HETATM    3  C   UNL     1     -42.246  55.088 -53.486  1.00  0.00     0.035 A 
HETATM    4  C   UNL     1     -43.485  55.031 -54.134  1.00  0.00     0.029 A 
HETATM    5  C   UNL     1     -44.218  56.195 -54.372  1.00  0.00     0.003 A 
HETATM    6  C   UNL     1     -43.711  57.433 -53.982  1.00  0.00     0.009 A 
ENDROOT
BRANCH   1   7
HETATM    7  C   UNL     1     -41.881  58.852 -52.975  1.00  0.00     0.163 C 
BRANCH   7   8
HETATM    8  N   UNL     1     -42.231  59.240 -51.628  1.00  0.00    -0.339 N 
HETATM    9  C   UNL     1     -43.259  60.120 -51.379  1.00  0.00     0.321 C 
HETATM   10  N   UNL     1     -43.307  60.437 -50.037  1.00  0.00    -0.307 N 
HETATM   11  O   UNL     1     -43.960  60.596 -52.262  1.00  0.00    -0.247 OA
HETATM   12  H   UNL     1     -42.387  60.411 -49.617  1.00  0.00     0.170 HD
HETATM   13  H   UNL     1     -41.997  58.590 -50.891  1.00  0.00     0.164 HD
BRANCH  10  14
HETATM   14  C   UNL     1     -44.222  61.350 -49.459  1.00  0.00     0.059 A 
HETATM   15  C   UNL     1     -44.060  62.741 -49.408  1.00  0.00    -0.032 A 
HETATM   16  C   UNL     1     -42.921  63.486 -50.044  1.00  0.00     0.050 C 
HETATM   17  C   UNL     1     -45.038  63.497 -48.740  1.00  0.00     0.028 A 
HETATM   18  C   UNL     1     -46.153  62.865 -48.213  1.00  0.00     0.117 A 
HETATM   19  N   UNL     1     -46.370  61.541 -48.308  1.00  0.00    -0.271 NA
HETATM   20  C   UNL     1     -45.405  60.823 -48.929  1.00  0.00     0.146 A 
ENDBRANCH  10  14
ENDBRANCH   7   8
ENDBRANCH   1   7
BRANCH   3  21
HETATM   21  N   UNL     1     -41.552  53.877 -53.309  1.00  0.00    -0.321 N 
HETATM   22  C   UNL     1     -40.564  53.330 -54.111  1.00  0.00     0.279 C 
HETATM   23  O   UNL     1     -40.047  53.881 -55.078  1.00  0.00    -0.265 OA
HETATM   24  H   UNL     1     -41.805  53.313 -52.505  1.00  0.00     0.169 HD
BRANCH  22  25
HETATM   25  C   UNL     1     -40.171  51.998 -53.684  1.00  0.00     0.142 A 
HETATM   26  O   UNL     1     -39.767  51.792 -52.389  1.00  0.00    -0.317 OA
HETATM   27  C   UNL     1     -39.492  50.468 -52.261  1.00  0.00     0.143 A 
HETATM   28  C   UNL     1     -39.699  49.815 -53.453  1.00  0.00     0.027 A 
HETATM   29  C   UNL     1     -40.134  50.799 -54.372  1.00  0.00     0.045 A 
ENDBRANCH  22  25
ENDBRANCH   3  21
TORSDOF 5
ENDMDL
MODEL 6
REMARK VINA RESULT:      -7.2      3.331      4.528
REMARK  5 active torsions:
REMARK  status: ('A' for Active; 'I' for Inactive)
REMARK    1  A    between atoms: C_3  and  N_4 
REMARK       I    between atoms: N_4  and  C_5 
REMARK       I    between atoms: C_5  and  N_6 
REMARK    2  A    between atoms: N_6  and  C_7 
REMARK    3  A    between atoms: C_7  and  C_8 
REMARK    4  A    between atoms: C_10  and  N_11 
REMARK       I    between atoms: N_11  and  C_12 
REMARK    5  A    between atoms: C_12  and  C_13 
ROOT
HETATM    1  C   UNL     1     -42.525  56.278 -56.636  1.00  0.00    -0.038 A 
HETATM    2  C   UNL     1     -42.358  57.569 -57.168  1.00  0.00     0.038 A 
HETATM    3  C   UNL     1     -42.801  57.879 -58.456  1.00  0.00     0.035 A 
HETATM    4  C   UNL     1     -43.400  56.875 -59.226  1.00  0.00     0.029 A 
HETATM    5  C   UNL     1     -43.545  55.581 -58.719  1.00  0.00     0.003 A 
HETATM    6  C   UNL     1     -43.109  55.283 -57.429  1.00  0.00     0.009 A 
ENDROOT
BRANCH   1   7
HETATM    7  C   UNL     1     -42.103  55.980 -55.221  1.00  0.00     0.163 C 
BRANCH   7   8
HETATM    8  N   UNL     1     -41.090  54.951 -55.161  1.00  0.00    -0.339 N 
HETATM    9  C   UNL     1     -41.250  53.834 -54.372  1.00  0.00     0.321 C 
HETATM   10  N   UNL     1     -40.097  53.074 -54.377  1.00  0.00    -0.307 N 
HETATM   11  O   UNL     1     -42.257  53.620 -53.711  1.00  0.00    -0.247 OA
HETATM   12  H   UNL     1     -39.274  53.651 -54.490  1.00  0.00     0.170 HD
HETATM   13  H   UNL     1     -40.482  54.863 -55.962  1.00  0.00     0.164 HD
BRANCH  10  14
HETATM   14  C   UNL     1     -39.917  51.883 -53.633  1.00  0.00     0.059 A 
HETATM   15  C   UNL     1     -39.707  51.813 -52.249  1.00  0.00    -0.032 A 
HETATM   16  C   UNL     1     -39.731  52.998 -51.326  1.00  0.00     0.050 C 
HETATM   17  C   UNL     1     -39.485  50.550 -51.676  1.00  0.00     0.028 A 
HETATM   18  C   UNL     1     -39.541  49.416 -52.472  1.00  0.00     0.117 A 
HETATM   19  N   UNL     1     -39.810  49.446 -53.790  1.00  0.00    -0.271 NA
HETATM   20  C   UNL     1     -39.993  50.673 -54.331  1.00  0.00     0.146 A 
ENDBRANCH  10  14
ENDBRANCH   7   8
ENDBRANCH   1   7
BRANCH   3  21
HETATM   21  N   UNL     1     -42.719  59.164 -59.022  1.00  0.00    -0.321 N 
HETATM   22  C   UNL     1     -42.091  59.545 -60.196  1.00  0.00     0.279 C 
HETATM   23  O   UNL     1     -41.578  58.782 -61.008  1.00  0.00    -0.265 OA
HETATM   24  H   UNL     1     -43.158  59.923 -58.512  1.00  0.00     0.169 HD
BRANCH  22  25
HETATM   25  C   UNL     1     -42.102  60.984 -60.395  1.00  0.00     0.142 A 
HETATM   26  O   UNL     1     -42.573  61.804 -59.400  1.00  0.00    -0.317 OA
HETATM   27  C   UNL     1     -42.438  63.083 -59.838  1.00  0.00     0.143 A 
HETATM   28  C   UNL     1     -41.900  63.106 -61.103  1.00  0.00     0.027 A 
HETATM   29  C   UNL     1     -41.684  61.755 -61.465  1.00  0.00     0.045 A 
ENDBRANCH  22  25
ENDBRANCH   3  21
TORSDOF 5
ENDMDL
MODEL 7
REMARK VINA RESULT:      -7.1     15.786     17.651
REMARK  5 active torsions:
REMARK  status: ('A' for Active; 'I' for Inactive)
REMARK    1  A    between atoms: C_3  and  N_4 
REMARK       I    between atoms: N_4  and  C_5 
REMARK       I    between atoms: C_5  and  N_6 
REMARK    2  A    between atoms: N_6  and  C_7 
REMARK    3  A    between atoms: C_7  and  C_8 
REMARK    4  A    between atoms: C_10  and  N_11 
REMARK       I    between atoms: N_11  and  C_12 
REMARK    5  A    between atoms: C_12  and  C_13 
ROOT
HETATM    1  C   UNL     1     -34.804  40.997 -56.555  1.00  0.00    -0.038 A 
HETATM    2  C   UNL     1     -35.367  40.332 -57.659  1.00  0.00     0.038 A 
HETATM    3  C   UNL     1     -36.626  40.689 -58.148  1.00  0.00     0.035 A 
HETATM    4  C   UNL     1     -37.336  41.711 -57.508  1.00  0.00     0.029 A 
HETATM    5  C   UNL     1     -36.799  42.359 -56.393  1.00  0.00     0.003 A 
HETATM    6  C   UNL     1     -35.538  42.005 -55.917  1.00  0.00     0.009 A 
ENDROOT
BRANCH   1   7
HETATM    7  C   UNL     1     -33.417  40.646 -56.084  1.00  0.00     0.163 C 
BRANCH   7   8
HETATM    8  N   UNL     1     -33.171  41.098 -54.734  1.00  0.00    -0.339 N 
HETATM    9  C   UNL     1     -33.057  40.209 -53.689  1.00  0.00     0.321 C 
HETATM   10  N   UNL     1     -32.963  40.885 -52.490  1.00  0.00    -0.307 N 
HETATM   11  O   UNL     1     -33.115  38.995 -53.835  1.00  0.00    -0.247 OA
HETATM   12  H   UNL     1     -33.470  41.760 -52.518  1.00  0.00     0.170 HD
HETATM   13  H   UNL     1     -32.707  41.989 -54.629  1.00  0.00     0.164 HD
BRANCH  10  14
HETATM   14  C   UNL     1     -32.877  40.263 -51.221  1.00  0.00     0.059 A 
HETATM   15  C   UNL     1     -33.966  39.837 -50.449  1.00  0.00    -0.032 A 
HETATM   16  C   UNL     1     -35.399  39.898 -50.897  1.00  0.00     0.050 C 
HETATM   17  C   UNL     1     -33.706  39.293 -49.180  1.00  0.00     0.028 A 
HETATM   18  C   UNL     1     -32.395  39.134 -48.758  1.00  0.00     0.117 A 
HETATM   19  N   UNL     1     -31.328  39.468 -49.506  1.00  0.00    -0.271 NA
HETATM   20  C   UNL     1     -31.597  40.018 -50.713  1.00  0.00     0.146 A 
ENDBRANCH  10  14
ENDBRANCH   7   8
ENDBRANCH   1   7
BRANCH   3  21
HETATM   21  N   UNL     1     -37.217  40.105 -59.283  1.00  0.00    -0.321 N 
HETATM   22  C   UNL     1     -38.040  38.993 -59.345  1.00  0.00     0.279 C 
HETATM   23  O   UNL     1     -38.481  38.381 -58.378  1.00  0.00    -0.265 OA
HETATM   24  H   UNL     1     -37.015  40.532 -60.181  1.00  0.00     0.169 HD
BRANCH  22  25
HETATM   25  C   UNL     1     -38.355  38.604 -60.709  1.00  0.00     0.142 A 
HETATM   26  O   UNL     1     -39.582  38.060 -60.993  1.00  0.00    -0.317 OA
HETATM   27  C   UNL     1     -39.615  37.824 -62.331  1.00  0.00     0.143 A 
HETATM   28  C   UNL     1     -38.428  38.194 -62.916  1.00  0.00     0.027 A 
HETATM   29  C   UNL     1     -37.613  38.695 -61.873  1.00  0.00     0.045 A 
ENDBRANCH  22  25
ENDBRANCH   3  21
TORSDOF 5
ENDMDL
MODEL 8
REMARK VINA RESULT:      -7.1     15.726     17.228
REMARK  5 active torsions:
REMARK  status: ('A' for Active; 'I' for Inactive)
REMARK    1  A    between atoms: C_3  and  N_4 
REMARK       I    between atoms: N_4  and  C_5 
REMARK       I    between atoms: C_5  and  N_6 
REMARK    2  A    between atoms: N_6  and  C_7 
REMARK    3  A    between atoms: C_7  and  C_8 
REMARK    4  A    between atoms: C_10  and  N_11 
REMARK       I    between atoms: N_11  and  C_12 
REMARK    5  A    between atoms: C_12  and  C_13 
ROOT
HETATM    1  C   UNL     1     -37.401  41.248 -55.821  1.00  0.00    -0.038 A 
HETATM    2  C   UNL     1     -38.214  40.577 -56.752  1.00  0.00     0.038 A 
HETATM    3  C   UNL     1     -37.935  40.629 -58.120  1.00  0.00     0.035 A 
HETATM    4  C   UNL     1     -36.838  41.380 -58.558  1.00  0.00     0.029 A 
HETATM    5  C   UNL     1     -36.041  42.074 -57.646  1.00  0.00     0.003 A 
HETATM    6  C   UNL     1     -36.320  42.009 -56.281  1.00  0.00     0.009 A 
ENDROOT
BRANCH   1   7
HETATM    7  C   UNL     1     -37.677  41.125 -54.345  1.00  0.00     0.163 C 
BRANCH   7   8
HETATM    8  N   UNL     1     -36.785  40.187 -53.702  1.00  0.00    -0.339 N 
HETATM    9  C   UNL     1     -35.831  40.606 -52.802  1.00  0.00     0.321 C 
HETATM   10  N   UNL     1     -35.020  39.551 -52.436  1.00  0.00    -0.307 N 
HETATM   11  O   UNL     1     -35.701  41.774 -52.461  1.00  0.00    -0.247 OA
HETATM   12  H   UNL     1     -34.924  38.880 -53.186  1.00  0.00     0.170 HD
HETATM   13  H   UNL     1     -37.111  39.235 -53.614  1.00  0.00     0.164 HD
BRANCH  10  14
HETATM   14  C   UNL     1     -33.915  39.655 -51.557  1.00  0.00     0.059 A 
HETATM   15  C   UNL     1     -32.597  39.941 -51.938  1.00  0.00    -0.032 A 
HETATM   16  C   UNL     1     -32.173  40.270 -53.341  1.00  0.00     0.050 C 
HETATM   17  C   UNL     1     -31.606  39.946 -50.942  1.00  0.00     0.028 A 
HETATM   18  C   UNL     1     -31.962  39.736 -49.619  1.00  0.00     0.117 A 
HETATM   19  N   UNL     1     -33.228  39.530 -49.214  1.00  0.00    -0.271 NA
HETATM   20  C   UNL     1     -34.166  39.498 -50.189  1.00  0.00     0.146 A 
ENDBRANCH  10  14
ENDBRANCH   7   8
ENDBRANCH   1   7
BRANCH   3  21
HETATM   21  N   UNL     1     -38.673  39.932 -59.095  1.00  0.00    -0.321 N 
HETATM   22  C   UNL     1     -38.646  38.579 -59.385  1.00  0.00     0.279 C 
HETATM   23  O   UNL     1     -38.032  37.728 -58.750  1.00  0.00    -0.265 OA
HETATM   24  H   UNL     1     -39.298  40.478 -59.678  1.00  0.00     0.169 HD
BRANCH  22  25
HETATM   25  C   UNL     1     -39.448  38.240 -60.548  1.00  0.00     0.142 A 
HETATM   26  O   UNL     1     -38.860  38.186 -61.786  1.00  0.00    -0.317 OA
HETATM   27  C   UNL     1     -39.823  37.819 -62.671  1.00  0.00     0.143 A 
HETATM   28  C   UNL     1     -41.026  37.646 -62.031  1.00  0.00     0.027 A 
HETATM   29  C   UNL     1     -40.789  37.919 -60.663  1.00  0.00     0.045 A 
ENDBRANCH  22  25
ENDBRANCH   3  21
TORSDOF 5
ENDMDL
MODEL 9
REMARK VINA RESULT:      -7.0      3.780      5.179
REMARK  5 active torsions:
REMARK  status: ('A' for Active; 'I' for Inactive)
REMARK    1  A    between atoms: C_3  and  N_4 
REMARK       I    between atoms: N_4  and  C_5 
REMARK       I    between atoms: C_5  and  N_6 
REMARK    2  A    between atoms: N_6  and  C_7 
REMARK    3  A    between atoms: C_7  and  C_8 
REMARK    4  A    between atoms: C_10  and  N_11 
REMARK       I    between atoms: N_11  and  C_12 
REMARK    5  A    between atoms: C_12  and  C_13 
ROOT
HETATM    1  C   UNL     1     -43.392  57.238 -57.367  1.00  0.00    -0.038 A 
HETATM    2  C   UNL     1     -42.819  58.435 -57.833  1.00  0.00     0.038 A 
HETATM    3  C   UNL     1     -42.226  58.505 -59.096  1.00  0.00     0.035 A 
HETATM    4  C   UNL     1     -42.190  57.353 -59.891  1.00  0.00     0.029 A 
HETATM    5  C   UNL     1     -42.730  56.151 -59.427  1.00  0.00     0.003 A 
HETATM    6  C   UNL     1     -43.329  56.093 -58.169  1.00  0.00     0.009 A 
ENDROOT
BRANCH   1   7
HETATM    7  C   UNL     1     -44.087  57.200 -56.031  1.00  0.00     0.163 C 
BRANCH   7   8
HETATM    8  N   UNL     1     -43.925  55.925 -55.370  1.00  0.00    -0.339 N 
HETATM    9  C   UNL     1     -42.989  55.747 -54.377  1.00  0.00     0.321 C 
HETATM   10  N   UNL     1     -42.932  54.420 -54.003  1.00  0.00    -0.307 N 
HETATM   11  O   UNL     1     -42.271  56.648 -53.966  1.00  0.00    -0.247 OA
HETATM   12  H   UNL     1     -43.150  53.807 -54.778  1.00  0.00     0.170 HD
HETATM   13  H   UNL     1     -44.728  55.313 -55.358  1.00  0.00     0.164 HD
BRANCH  10  14
HETATM   14  C   UNL     1     -42.042  53.895 -53.036  1.00  0.00     0.059 A 
HETATM   15  C   UNL     1     -40.814  53.277 -53.310  1.00  0.00    -0.032 A 
HETATM   16  C   UNL     1     -40.213  53.158 -54.682  1.00  0.00     0.050 C 
HETATM   17  C   UNL     1     -40.080  52.755 -52.233  1.00  0.00     0.028 A 
HETATM   18  C   UNL     1     -40.550  52.918 -50.939  1.00  0.00     0.117 A 
HETATM   19  N   UNL     1     -41.689  53.568 -50.639  1.00  0.00    -0.271 NA
HETATM   20  C   UNL     1     -42.399  54.039 -51.690  1.00  0.00     0.146 A 
ENDBRANCH  10  14
ENDBRANCH   7   8
ENDBRANCH   1   7
BRANCH   3  21
HETATM   21  N   UNL     1     -41.690  59.685 -59.644  1.00  0.00    -0.321 N 
HETATM   22  C   UNL     1     -42.287  60.567 -60.528  1.00  0.00     0.279 C 
HETATM   23  O   UNL     1     -43.454  60.515 -60.906  1.00  0.00    -0.265 OA
HETATM   24  H   UNL     1     -40.742  59.927 -59.380  1.00  0.00     0.169 HD
BRANCH  22  25
HETATM   25  C   UNL     1     -41.380  61.609 -60.978  1.00  0.00     0.142 A 
HETATM   26  O   UNL     1     -40.509  62.182 -60.086  1.00  0.00    -0.317 OA
HETATM   27  C   UNL     1     -39.769  63.088 -60.777  1.00  0.00     0.143 A 
HETATM   28  C   UNL     1     -40.153  63.121 -62.096  1.00  0.00     0.027 A 
HETATM   29  C   UNL     1     -41.193  62.171 -62.228  1.00  0.00     0.045 A 
ENDBRANCH  22  25
ENDBRANCH   3  21
TORSDOF 5
ENDMDL
MODEL 10
REMARK VINA RESULT:      -7.0      2.710      6.583
REMARK  5 active torsions:
REMARK  status: ('A' for Active; 'I' for Inactive)
REMARK    1  A    between atoms: C_3  and  N_4 
REMARK       I    between atoms: N_4  and  C_5 
REMARK       I    between atoms: C_5  and  N_6 
REMARK    2  A    between atoms: N_6  and  C_7 
REMARK    3  A    between atoms: C_7  and  C_8 
REMARK    4  A    between atoms: C_10  and  N_11 
REMARK       I    between atoms: N_11  and  C_12 
REMARK    5  A    between atoms: C_12  and  C_13 
ROOT
HETATM    1  C   UNL     1     -41.284  55.697 -52.343  1.00  0.00    -0.038 A 
HETATM    2  C   UNL     1     -41.481  56.280 -53.608  1.00  0.00     0.038 A 
HETATM    3  C   UNL     1     -41.359  55.524 -54.776  1.00  0.00     0.035 A 
HETATM    4  C   UNL     1     -41.014  54.171 -54.673  1.00  0.00     0.029 A 
HETATM    5  C   UNL     1     -40.787  53.588 -53.424  1.00  0.00     0.003 A 
HETATM    6  C   UNL     1     -40.921  54.347 -52.263  1.00  0.00     0.009 A 
ENDROOT
BRANCH   1   7
HETATM    7  C   UNL     1     -41.487  56.512 -51.092  1.00  0.00     0.163 C 
BRANCH   7   8
HETATM    8  N   UNL     1     -42.859  56.941 -50.941  1.00  0.00    -0.339 N 
HETATM    9  C   UNL     1     -43.218  58.260 -51.104  1.00  0.00     0.321 C 
HETATM   10  N   UNL     1     -44.546  58.440 -50.774  1.00  0.00    -0.307 N 
HETATM   11  O   UNL     1     -42.425  59.135 -51.420  1.00  0.00    -0.247 OA
HETATM   12  H   UNL     1     -44.840  57.793 -50.054  1.00  0.00     0.170 HD
HETATM   13  H   UNL     1     -43.574  56.248 -51.104  1.00  0.00     0.164 HD
BRANCH  10  14
HETATM   14  C   UNL     1     -45.217  59.686 -50.792  1.00  0.00     0.059 A 
HETATM   15  C   UNL     1     -45.643  60.364 -51.943  1.00  0.00    -0.032 A 
HETATM   16  C   UNL     1     -45.526  59.820 -53.338  1.00  0.00     0.050 C 
HETATM   17  C   UNL     1     -46.241  61.625 -51.786  1.00  0.00     0.028 A 
HETATM   18  C   UNL     1     -46.451  62.131 -50.513  1.00  0.00     0.117 A 
HETATM   19  N   UNL     1     -46.118  61.473 -49.387  1.00  0.00    -0.271 NA
HETATM   20  C   UNL     1     -45.516  60.273 -49.557  1.00  0.00     0.146 A 
ENDBRANCH  10  14
ENDBRANCH   7   8
ENDBRANCH   1   7
BRANCH   3  21
HETATM   21  N   UNL     1     -41.602  56.032 -56.065  1.00  0.00    -0.321 N 
HETATM   22  C   UNL     1     -42.786  56.535 -56.579  1.00  0.00     0.279 C 
HETATM   23  O   UNL     1     -43.817  56.718 -55.940  1.00  0.00    -0.265 OA
HETATM   24  H   UNL     1     -40.827  56.024 -56.719  1.00  0.00     0.169 HD
BRANCH  22  25
HETATM   25  C   UNL     1     -42.693  56.848 -57.995  1.00  0.00     0.142 A 
HETATM   26  O   UNL     1     -41.908  57.895 -58.408  1.00  0.00    -0.317 OA
HETATM   27  C   UNL     1     -41.981  57.939 -59.764  1.00  0.00     0.143 A 
HETATM   28  C   UNL     1     -42.808  56.947 -60.235  1.00  0.00     0.027 A 
HETATM   29  C   UNL     1     -43.270  56.244 -59.097  1.00  0.00     0.045 A 
ENDBRANCH  22  25
ENDBRANCH   3  21
TORSDOF 5
ENDMDL
