MODEL 1
REMARK VINA RESULT:      -8.2      0.000      0.000
REMARK  11 active torsions:
REMARK  status: ('A' for Active; 'I' for Inactive)
REMARK    1  A    between atoms: C_2  and  O_3 
REMARK    2  A    between atoms: C_2  and  C_4 
REMARK    3  A    between atoms: C_8  and  C_9 
REMARK    4  A    between atoms: C_12  and  C_13 
REMARK    5  A    between atoms: C_13  and  C_14 
REMARK    6  A    between atoms: C_14  and  N_15 
REMARK    7  A    between atoms: C_14  and  C_29 
REMARK       I    between atoms: N_15  and  C_16 
REMARK    8  A    between atoms: C_16  and  C_17 
REMARK    9  A    between atoms: C_21  and  O_22 
REMARK   10  A    between atoms: O_22  and  C_23 
REMARK   11  A    between atoms: C_29  and  N_30 
ROOT
HETATM    1  C   UNL     1     -42.876  60.623 -52.334  1.00  0.00     0.114 C 
ENDROOT
BRANCH   1   2
HETATM    2  C   UNL     1     -43.452  59.651 -51.270  1.00  0.00     0.065 C 
BRANCH   2   3
HETATM    3  C   UNL     1     -42.885  58.252 -51.343  1.00  0.00    -0.056 A 
HETATM    4  C   UNL     1     -43.644  57.186 -51.848  1.00  0.00     0.008 A 
HETATM    5  C   UNL     1     -43.142  55.880 -51.839  1.00  0.00     0.014 A 
HETATM    6  C   UNL     1     -41.879  55.601 -51.301  1.00  0.00    -0.006 A 
HETATM    7  C   UNL     1     -41.126  56.667 -50.792  1.00  0.00     0.014 A 
HETATM    8  C   UNL     1     -41.621  57.975 -50.809  1.00  0.00     0.008 A 
BRANCH   6   9
HETATM    9  C   UNL     1     -41.350  54.246 -51.227  1.00  0.00     0.085 A 
HETATM   10  C   UNL     1     -41.246  53.462 -50.097  1.00  0.00     0.130 A 
HETATM   11  N   UNL     1     -40.658  52.291 -50.507  1.00  0.00    -0.315 N 
HETATM   12  C   UNL     1     -40.433  52.408 -51.873  1.00  0.00     0.143 A 
HETATM   13  C   UNL     1     -40.321  51.170 -49.759  1.00  0.00     0.098 A 
HETATM   14  C   UNL     1     -39.806  51.302 -52.555  1.00  0.00     0.017 A 
HETATM   15  N   UNL     1     -40.850  53.576 -52.323  1.00  0.00    -0.228 NA
HETATM   16  C   UNL     1     -39.493  50.212 -51.807  1.00  0.00     0.015 A 
HETATM   17  C   UNL     1     -39.744  50.129 -50.377  1.00  0.00     0.018 A 
BRANCH  14  18
HETATM   18  C   UNL     1     -39.530  51.348 -54.049  1.00  0.00     0.150 C 
HETATM   19  C   UNL     1     -39.613  49.961 -54.680  1.00  0.00     0.044 C 
BRANCH  18  20
HETATM   20  O   UNL     1     -40.461  52.204 -54.717  1.00  0.00    -0.391 OA
HETATM   21  H   UNL     1     -41.349  51.941 -54.423  1.00  0.00     0.210 HD
ENDBRANCH  18  20
ENDBRANCH  14  18
ENDBRANCH   6   9
ENDBRANCH   2   3
ENDBRANCH   1   2
BRANCH   1  22
HETATM   22  N   UNL     1     -42.927  59.977 -53.664  1.00  0.00    -0.350 N 
HETATM   23  C   UNL     1     -41.838  59.395 -54.276  1.00  0.00     0.252 C 
HETATM   24  O   UNL     1     -40.697  59.543 -53.846  1.00  0.00    -0.268 OA
HETATM   25  H   UNL     1     -43.827  59.589 -53.938  1.00  0.00     0.163 HD
BRANCH  23  26
HETATM   26  C   UNL     1     -42.110  58.563 -55.475  1.00  0.00     0.033 A 
HETATM   27  C   UNL     1     -42.330  57.194 -55.302  1.00  0.00     0.043 A 
HETATM   28  C   UNL     1     -42.589  56.388 -56.413  1.00  0.00     0.068 A 
HETATM   29 CL   UNL     1     -42.872  54.705 -56.143  1.00  0.00    -0.081 Cl
HETATM   30  C   UNL     1     -42.602  56.931 -57.706  1.00  0.00     0.091 A 
HETATM   31  C   UNL     1     -42.391  58.303 -57.870  1.00  0.00     0.039 A 
HETATM   32  C   UNL     1     -42.136  59.117 -56.761  1.00  0.00     0.020 A 
BRANCH  30  33
HETATM   33  O   UNL     1     -42.884  56.092 -58.749  1.00  0.00    -0.345 OA
BRANCH  33  34
HETATM   34  C   UNL     1     -44.248  56.006 -59.184  1.00  0.00     0.121 C 
HETATM   35  C   UNL     1     -44.507  56.951 -60.358  1.00  0.00     0.040 C 
HETATM   36  C   UNL     1     -44.476  54.561 -59.620  1.00  0.00     0.040 C 
ENDBRANCH  33  34
ENDBRANCH  30  33
ENDBRANCH  23  26
ENDBRANCH   1  22
BRANCH   1  37
HETATM   37  C   UNL     1     -43.640  61.976 -52.265  1.00  0.00     0.254 C 
BRANCH  37  38
HETATM   38  N   UNL     1     -44.886  61.867 -51.462  1.00  0.00    -0.077 N 
HETATM   39  H   UNL     1     -45.480  62.701 -51.533  1.00  0.00     0.274 HD
HETATM   40  H   UNL     1     -45.475  61.087 -51.827  1.00  0.00     0.274 HD
HETATM   41  H   UNL     1     -44.713  61.667 -50.471  1.00  0.00     0.274 HD
ENDBRANCH  37  38
ENDBRANCH   1  37
TORSDOF 11
ENDMDL
MODEL 2
REMARK VINA RESULT:      -8.1      2.624      8.225
REMARK  11 active torsions:
REMARK  status: ('A' for Active; 'I' for Inactive)
REMARK    1  A    between atoms: C_2  and  O_3 
REMARK    2  A    between atoms: C_2  and  C_4 
REMARK    3  A    between atoms: C_8  and  C_9 
REMARK    4  A    between atoms: C_12  and  C_13 
REMARK    5  A    between atoms: C_13  and  C_14 
REMARK    6  A    between atoms: C_14  and  N_15 
REMARK    7  A    between atoms: C_14  and  C_29 
REMARK       I    between atoms: N_15  and  C_16 
REMARK    8  A    between atoms: C_16  and  C_17 
REMARK    9  A    between atoms: C_21  and  O_22 
REMARK   10  A    between atoms: O_22  and  C_23 
REMARK   11  A    between atoms: C_29  and  N_30 
ROOT
HETATM    1  C   UNL     1     -39.824  52.128 -51.533  1.00  0.00     0.114 C 
ENDROOT
BRANCH   1   2
HETATM    2  C   UNL     1     -39.822  51.695 -53.024  1.00  0.00     0.065 C 
BRANCH   2   3
HETATM    3  C   UNL     1     -40.471  52.692 -53.955  1.00  0.00    -0.056 A 
HETATM    4  C   UNL     1     -39.705  53.625 -54.668  1.00  0.00     0.008 A 
HETATM    5  C   UNL     1     -40.318  54.596 -55.468  1.00  0.00     0.014 A 
HETATM    6  C   UNL     1     -41.714  54.677 -55.555  1.00  0.00    -0.006 A 
HETATM    7  C   UNL     1     -42.476  53.747 -54.836  1.00  0.00     0.014 A 
HETATM    8  C   UNL     1     -41.866  52.768 -54.044  1.00  0.00     0.008 A 
BRANCH   6   9
HETATM    9  C   UNL     1     -42.385  55.709 -56.334  1.00  0.00     0.085 A 
HETATM   10  C   UNL     1     -42.396  57.063 -56.073  1.00  0.00     0.130 A 
HETATM   11  N   UNL     1     -43.181  57.624 -57.049  1.00  0.00    -0.315 N 
HETATM   12  C   UNL     1     -43.612  56.589 -57.868  1.00  0.00     0.143 A 
HETATM   13  C   UNL     1     -43.525  58.957 -57.238  1.00  0.00     0.098 A 
HETATM   14  C   UNL     1     -44.472  56.915 -58.979  1.00  0.00     0.017 A 
HETATM   15  N   UNL     1     -43.136  55.430 -57.456  1.00  0.00    -0.228 NA
HETATM   16  C   UNL     1     -44.789  58.225 -59.153  1.00  0.00     0.015 A 
HETATM   17  C   UNL     1     -44.318  59.281 -58.270  1.00  0.00     0.018 A 
BRANCH  14  18
HETATM   18  C   UNL     1     -44.982  55.841 -59.927  1.00  0.00     0.150 C 
HETATM   19  C   UNL     1     -46.463  56.028 -60.245  1.00  0.00     0.044 C 
BRANCH  18  20
HETATM   20  O   UNL     1     -44.251  55.852 -61.156  1.00  0.00    -0.391 OA
HETATM   21  H   UNL     1     -44.905  55.819 -61.875  1.00  0.00     0.210 HD
ENDBRANCH  18  20
ENDBRANCH  14  18
ENDBRANCH   6   9
ENDBRANCH   2   3
ENDBRANCH   1   2
BRANCH   1  22
HETATM   22  N   UNL     1     -40.712  53.300 -51.367  1.00  0.00    -0.350 N 
HETATM   23  C   UNL     1     -40.380  54.414 -50.626  1.00  0.00     0.252 C 
HETATM   24  O   UNL     1     -39.399  54.432 -49.888  1.00  0.00    -0.268 OA
HETATM   25  H   UNL     1     -41.372  53.471 -52.122  1.00  0.00     0.163 HD
BRANCH  23  26
HETATM   26  C   UNL     1     -41.257  55.602 -50.776  1.00  0.00     0.033 A 
HETATM   27  C   UNL     1     -40.734  56.861 -50.467  1.00  0.00     0.043 A 
HETATM   28  C   UNL     1     -41.538  57.996 -50.600  1.00  0.00     0.068 A 
HETATM   29 CL   UNL     1     -40.839  59.530 -50.222  1.00  0.00    -0.081 Cl
HETATM   30  C   UNL     1     -42.874  57.885 -51.012  1.00  0.00     0.091 A 
HETATM   31  C   UNL     1     -43.386  56.624 -51.329  1.00  0.00     0.039 A 
HETATM   32  C   UNL     1     -42.585  55.483 -51.204  1.00  0.00     0.020 A 
BRANCH  30  33
HETATM   33  O   UNL     1     -43.599  59.037 -51.143  1.00  0.00    -0.345 OA
BRANCH  33  34
HETATM   34  C   UNL     1     -43.843  59.524 -52.470  1.00  0.00     0.121 C 
HETATM   35  C   UNL     1     -45.342  59.601 -52.758  1.00  0.00     0.040 C 
HETATM   36  C   UNL     1     -43.227  60.918 -52.542  1.00  0.00     0.040 C 
ENDBRANCH  33  34
ENDBRANCH  30  33
ENDBRANCH  23  26
ENDBRANCH   1  22
BRANCH   1  37
HETATM   37  C   UNL     1     -40.217  50.914 -50.644  1.00  0.00     0.254 C 
BRANCH  37  38
HETATM   38  N   UNL     1     -39.440  49.696 -50.995  1.00  0.00    -0.077 N 
HETATM   39  H   UNL     1     -39.601  48.919 -50.344  1.00  0.00     0.274 HD
HETATM   40  H   UNL     1     -39.748  49.336 -51.925  1.00  0.00     0.274 HD
HETATM   41  H   UNL     1     -38.431  49.866 -51.064  1.00  0.00     0.274 HD
ENDBRANCH  37  38
ENDBRANCH   1  37
TORSDOF 11
ENDMDL
MODEL 3
REMARK VINA RESULT:      -8.0      2.685      7.993
REMARK  11 active torsions:
REMARK  status: ('A' for Active; 'I' for Inactive)
REMARK    1  A    between atoms: C_2  and  O_3 
REMARK    2  A    between atoms: C_2  and  C_4 
REMARK    3  A    between atoms: C_8  and  C_9 
REMARK    4  A    between atoms: C_12  and  C_13 
REMARK    5  A    between atoms: C_13  and  C_14 
REMARK    6  A    between atoms: C_14  and  N_15 
REMARK    7  A    between atoms: C_14  and  C_29 
REMARK       I    between atoms: N_15  and  C_16 
REMARK    8  A    between atoms: C_16  and  C_17 
REMARK    9  A    between atoms: C_21  and  O_22 
REMARK   10  A    between atoms: O_22  and  C_23 
REMARK   11  A    between atoms: C_29  and  N_30 
ROOT
HETATM    1  C   UNL     1     -42.395  59.086 -51.520  1.00  0.00     0.114 C 
ENDROOT
BRANCH   1   2
HETATM    2  C   UNL     1     -42.087  59.863 -52.827  1.00  0.00     0.065 C 
BRANCH   2   3
HETATM    3  C   UNL     1     -42.819  59.339 -54.041  1.00  0.00    -0.056 A 
HETATM    4  C   UNL     1     -42.122  58.840 -55.150  1.00  0.00     0.008 A 
HETATM    5  C   UNL     1     -42.804  58.430 -56.302  1.00  0.00     0.014 A 
HETATM    6  C   UNL     1     -44.198  58.534 -56.385  1.00  0.00    -0.006 A 
HETATM    7  C   UNL     1     -44.891  59.040 -55.278  1.00  0.00     0.014 A 
HETATM    8  C   UNL     1     -44.214  59.440 -54.121  1.00  0.00     0.008 A 
BRANCH   6   9
HETATM    9  C   UNL     1     -44.933  58.169 -57.589  1.00  0.00     0.085 A 
HETATM   10  C   UNL     1     -46.057  58.791 -58.090  1.00  0.00     0.130 A 
HETATM   11  N   UNL     1     -46.411  58.078 -59.208  1.00  0.00    -0.315 N 
HETATM   12  C   UNL     1     -45.485  57.053 -59.345  1.00  0.00     0.143 A 
HETATM   13  C   UNL     1     -47.477  58.282 -60.075  1.00  0.00     0.098 A 
HETATM   14  C   UNL     1     -45.641  56.140 -60.452  1.00  0.00     0.017 A 
HETATM   15  N   UNL     1     -44.584  57.097 -58.382  1.00  0.00    -0.228 NA
HETATM   16  C   UNL     1     -46.683  56.362 -61.294  1.00  0.00     0.015 A 
HETATM   17  C   UNL     1     -47.635  57.448 -61.114  1.00  0.00     0.018 A 
BRANCH  14  18
HETATM   18  C   UNL     1     -44.666  54.995 -60.676  1.00  0.00     0.150 C 
HETATM   19  C   UNL     1     -44.848  53.890 -59.641  1.00  0.00     0.044 C 
BRANCH  18  20
HETATM   20  O   UNL     1     -44.833  54.427 -61.978  1.00  0.00    -0.391 OA
HETATM   21  H   UNL     1     -44.289  54.953 -62.589  1.00  0.00     0.210 HD
ENDBRANCH  18  20
ENDBRANCH  14  18
ENDBRANCH   6   9
ENDBRANCH   2   3
ENDBRANCH   1   2
BRANCH   1  22
HETATM   22  N   UNL     1     -41.736  57.762 -51.573  1.00  0.00    -0.350 N 
HETATM   23  C   UNL     1     -42.417  56.565 -51.510  1.00  0.00     0.252 C 
HETATM   24  O   UNL     1     -43.606  56.510 -51.208  1.00  0.00    -0.268 OA
HETATM   25  H   UNL     1     -40.851  57.723 -52.072  1.00  0.00     0.163 HD
BRANCH  23  26
HETATM   26  C   UNL     1     -41.647  55.339 -51.843  1.00  0.00     0.033 A 
HETATM   27  C   UNL     1     -41.239  55.146 -53.165  1.00  0.00     0.043 A 
HETATM   28  C   UNL     1     -40.512  54.002 -53.506  1.00  0.00     0.068 A 
HETATM   29 CL   UNL     1     -40.017  53.819 -55.150  1.00  0.00    -0.081 Cl
HETATM   30  C   UNL     1     -40.212  53.030 -52.540  1.00  0.00     0.091 A 
HETATM   31  C   UNL     1     -40.614  53.236 -51.218  1.00  0.00     0.039 A 
HETATM   32  C   UNL     1     -41.338  54.381 -50.869  1.00  0.00     0.020 A 
BRANCH  30  33
HETATM   33  O   UNL     1     -39.478  51.944 -52.935  1.00  0.00    -0.345 OA
BRANCH  33  34
HETATM   34  C   UNL     1     -40.155  50.683 -53.032  1.00  0.00     0.121 C 
HETATM   35  C   UNL     1     -39.984  50.077 -54.425  1.00  0.00     0.040 C 
HETATM   36  C   UNL     1     -39.523  49.769 -51.986  1.00  0.00     0.040 C 
ENDBRANCH  33  34
ENDBRANCH  30  33
ENDBRANCH  23  26
ENDBRANCH   1  22
BRANCH   1  37
HETATM   37  C   UNL     1     -41.970  59.947 -50.296  1.00  0.00     0.254 C 
BRANCH  37  38
HETATM   38  N   UNL     1     -41.000  59.233 -49.426  1.00  0.00    -0.077 N 
HETATM   39  H   UNL     1     -40.207  58.845 -49.948  1.00  0.00     0.274 HD
HETATM   40  H   UNL     1     -40.574  59.902 -48.748  1.00  0.00     0.274 HD
HETATM   41  H   UNL     1     -41.429  58.485 -48.871  1.00  0.00     0.274 HD
ENDBRANCH  37  38
ENDBRANCH   1  37
TORSDOF 11
ENDMDL
MODEL 4
REMARK VINA RESULT:      -7.9      2.483      7.609
REMARK  11 active torsions:
REMARK  status: ('A' for Active; 'I' for Inactive)
REMARK    1  A    between atoms: C_2  and  O_3 
REMARK    2  A    between atoms: C_2  and  C_4 
REMARK    3  A    between atoms: C_8  and  C_9 
REMARK    4  A    between atoms: C_12  and  C_13 
REMARK    5  A    between atoms: C_13  and  C_14 
REMARK    6  A    between atoms: C_14  and  N_15 
REMARK    7  A    between atoms: C_14  and  C_29 
REMARK       I    between atoms: N_15  and  C_16 
REMARK    8  A    between atoms: C_16  and  C_17 
REMARK    9  A    between atoms: C_21  and  O_22 
REMARK   10  A    between atoms: O_22  and  C_23 
REMARK   11  A    between atoms: C_29  and  N_30 
ROOT
HETATM    1  C   UNL     1     -40.917  58.770 -50.268  1.00  0.00     0.114 C 
ENDROOT
BRANCH   1   2
HETATM    2  C   UNL     1     -42.160  59.379 -50.968  1.00  0.00     0.065 C 
BRANCH   2   3
HETATM    3  C   UNL     1     -42.441  58.804 -52.337  1.00  0.00    -0.056 A 
HETATM    4  C   UNL     1     -41.652  59.146 -53.444  1.00  0.00     0.008 A 
HETATM    5  C   UNL     1     -41.966  58.672 -54.723  1.00  0.00     0.014 A 
HETATM    6  C   UNL     1     -43.091  57.865 -54.932  1.00  0.00    -0.006 A 
HETATM    7  C   UNL     1     -43.880  57.530 -53.825  1.00  0.00     0.014 A 
HETATM    8  C   UNL     1     -43.564  57.993 -52.543  1.00  0.00     0.008 A 
BRANCH   6   9
HETATM    9  C   UNL     1     -43.476  57.400 -56.258  1.00  0.00     0.085 A 
HETATM   10  C   UNL     1     -42.889  56.381 -56.978  1.00  0.00     0.130 A 
HETATM   11  N   UNL     1     -43.561  56.332 -58.173  1.00  0.00    -0.315 N 
HETATM   12  C   UNL     1     -44.536  57.321 -58.131  1.00  0.00     0.143 A 
HETATM   13  C   UNL     1     -43.358  55.490 -59.259  1.00  0.00     0.098 A 
HETATM   14  C   UNL     1     -45.385  57.488 -59.284  1.00  0.00     0.017 A 
HETATM   15  N   UNL     1     -44.503  57.968 -56.981  1.00  0.00    -0.228 NA
HETATM   16  C   UNL     1     -45.177  56.649 -60.332  1.00  0.00     0.015 A 
HETATM   17  C   UNL     1     -44.143  55.626 -60.339  1.00  0.00     0.018 A 
BRANCH  14  18
HETATM   18  C   UNL     1     -46.480  58.543 -59.315  1.00  0.00     0.150 C 
HETATM   19  C   UNL     1     -47.344  58.421 -60.566  1.00  0.00     0.044 C 
BRANCH  18  20
HETATM   20  O   UNL     1     -47.328  58.437 -58.169  1.00  0.00    -0.391 OA
HETATM   21  H   UNL     1     -48.157  58.894 -58.386  1.00  0.00     0.210 HD
ENDBRANCH  18  20
ENDBRANCH  14  18
ENDBRANCH   6   9
ENDBRANCH   2   3
ENDBRANCH   1   2
BRANCH   1  22
HETATM   22  N   UNL     1     -40.619  57.449 -50.866  1.00  0.00    -0.350 N 
HETATM   23  C   UNL     1     -40.906  56.249 -50.253  1.00  0.00     0.252 C 
HETATM   24  O   UNL     1     -41.253  56.188 -49.077  1.00  0.00    -0.268 OA
HETATM   25  H   UNL     1     -40.595  57.414 -51.883  1.00  0.00     0.163 HD
BRANCH  23  26
HETATM   26  C   UNL     1     -40.792  55.027 -51.090  1.00  0.00     0.033 A 
HETATM   27  C   UNL     1     -41.508  54.969 -52.288  1.00  0.00     0.043 A 
HETATM   28  C   UNL     1     -41.418  53.832 -53.095  1.00  0.00     0.068 A 
HETATM   29 CL   UNL     1     -42.308  53.818 -54.575  1.00  0.00    -0.081 Cl
HETATM   30  C   UNL     1     -40.640  52.733 -52.701  1.00  0.00     0.091 A 
HETATM   31  C   UNL     1     -39.919  52.803 -51.506  1.00  0.00     0.039 A 
HETATM   32  C   UNL     1     -40.000  53.941 -50.696  1.00  0.00     0.020 A 
BRANCH  30  33
HETATM   33  O   UNL     1     -40.577  51.660 -53.547  1.00  0.00    -0.345 OA
BRANCH  33  34
HETATM   34  C   UNL     1     -39.498  50.732 -53.366  1.00  0.00     0.121 C 
HETATM   35  C   UNL     1     -39.786  49.779 -52.206  1.00  0.00     0.040 C 
HETATM   36  C   UNL     1     -39.378  49.945 -54.668  1.00  0.00     0.040 C 
ENDBRANCH  33  34
ENDBRANCH  30  33
ENDBRANCH  23  26
ENDBRANCH   1  22
BRANCH   1  37
HETATM   37  C   UNL     1     -39.733  59.776 -50.351  1.00  0.00     0.254 C 
BRANCH  37  38
HETATM   38  N   UNL     1     -38.613  59.247 -51.173  1.00  0.00    -0.077 N 
HETATM   39  H   UNL     1     -38.927  58.849 -52.066  1.00  0.00     0.274 HD
HETATM   40  H   UNL     1     -37.970  60.025 -51.437  1.00  0.00     0.274 HD
HETATM   41  H   UNL     1     -38.045  58.549 -50.682  1.00  0.00     0.274 HD
ENDBRANCH  37  38
ENDBRANCH   1  37
TORSDOF 11
ENDMDL
MODEL 5
REMARK VINA RESULT:      -7.9      3.786      8.939
REMARK  11 active torsions:
REMARK  status: ('A' for Active; 'I' for Inactive)
REMARK    1  A    between atoms: C_2  and  O_3 
REMARK    2  A    between atoms: C_2  and  C_4 
REMARK    3  A    between atoms: C_8  and  C_9 
REMARK    4  A    between atoms: C_12  and  C_13 
REMARK    5  A    between atoms: C_13  and  C_14 
REMARK    6  A    between atoms: C_14  and  N_15 
REMARK    7  A    between atoms: C_14  and  C_29 
REMARK       I    between atoms: N_15  and  C_16 
REMARK    8  A    between atoms: C_16  and  C_17 
REMARK    9  A    between atoms: C_21  and  O_22 
REMARK   10  A    between atoms: O_22  and  C_23 
REMARK   11  A    between atoms: C_29  and  N_30 
ROOT
HETATM    1  C   UNL     1     -43.484  57.721 -55.566  1.00  0.00     0.114 C 
ENDROOT
BRANCH   1   2
HETATM    2  C   UNL     1     -44.816  57.491 -54.803  1.00  0.00     0.065 C 
BRANCH   2   3
HETATM    3  C   UNL     1     -45.020  58.420 -53.628  1.00  0.00    -0.056 A 
HETATM    4  C   UNL     1     -44.875  57.966 -52.310  1.00  0.00     0.008 A 
HETATM    5  C   UNL     1     -45.143  58.810 -51.227  1.00  0.00     0.014 A 
HETATM    6  C   UNL     1     -45.589  60.122 -51.432  1.00  0.00    -0.006 A 
HETATM    7  C   UNL     1     -45.739  60.570 -52.751  1.00  0.00     0.014 A 
HETATM    8  C   UNL     1     -45.462  59.732 -53.837  1.00  0.00     0.008 A 
BRANCH   6   9
HETATM    9  C   UNL     1     -45.929  61.008 -50.328  1.00  0.00     0.085 A 
HETATM   10  C   UNL     1     -46.467  62.275 -50.422  1.00  0.00     0.130 A 
HETATM   11  N   UNL     1     -46.578  62.730 -49.132  1.00  0.00    -0.315 N 
HETATM   12  C   UNL     1     -46.107  61.720 -48.304  1.00  0.00     0.143 A 
HETATM   13  C   UNL     1     -47.053  63.952 -48.672  1.00  0.00     0.098 A 
HETATM   14  C   UNL     1     -46.107  61.954 -46.880  1.00  0.00     0.017 A 
HETATM   15  N   UNL     1     -45.720  60.673 -49.007  1.00  0.00    -0.228 NA
HETATM   16  C   UNL     1     -46.584  63.151 -46.450  1.00  0.00     0.015 A 
HETATM   17  C   UNL     1     -47.066  64.186 -47.351  1.00  0.00     0.018 A 
BRANCH  14  18
HETATM   18  C   UNL     1     -45.615  60.897 -45.905  1.00  0.00     0.150 C 
HETATM   19  C   UNL     1     -46.504  59.657 -45.920  1.00  0.00     0.044 C 
BRANCH  18  20
HETATM   20  O   UNL     1     -44.277  60.497 -46.213  1.00  0.00    -0.391 OA
HETATM   21  H   UNL     1     -43.697  60.909 -45.550  1.00  0.00     0.210 HD
ENDBRANCH  18  20
ENDBRANCH  14  18
ENDBRANCH   6   9
ENDBRANCH   2   3
ENDBRANCH   1   2
BRANCH   1  22
HETATM   22  N   UNL     1     -42.570  56.587 -55.305  1.00  0.00    -0.350 N 
HETATM   23  C   UNL     1     -41.740  56.510 -54.207  1.00  0.00     0.252 C 
HETATM   24  O   UNL     1     -41.554  57.472 -53.466  1.00  0.00    -0.268 OA
HETATM   25  H   UNL     1     -42.851  55.688 -55.690  1.00  0.00     0.163 HD
BRANCH  23  26
HETATM   26  C   UNL     1     -41.088  55.200 -53.951  1.00  0.00     0.033 A 
HETATM   27  C   UNL     1     -40.998  54.746 -52.633  1.00  0.00     0.043 A 
HETATM   28  C   UNL     1     -40.391  53.517 -52.364  1.00  0.00     0.068 A 
HETATM   29 CL   UNL     1     -40.321  52.992 -50.720  1.00  0.00    -0.081 Cl
HETATM   30  C   UNL     1     -39.844  52.745 -53.400  1.00  0.00     0.091 A 
HETATM   31  C   UNL     1     -39.948  53.202 -54.717  1.00  0.00     0.039 A 
HETATM   32  C   UNL     1     -40.559  54.429 -54.994  1.00  0.00     0.020 A 
BRANCH  30  33
HETATM   33  O   UNL     1     -39.284  51.541 -53.072  1.00  0.00    -0.345 OA
BRANCH  33  34
HETATM   34  C   UNL     1     -40.061  50.359 -53.310  1.00  0.00     0.121 C 
HETATM   35  C   UNL     1     -39.768  49.782 -54.695  1.00  0.00     0.040 C 
HETATM   36  C   UNL     1     -39.663  49.353 -52.233  1.00  0.00     0.040 C 
ENDBRANCH  33  34
ENDBRANCH  30  33
ENDBRANCH  23  26
ENDBRANCH   1  22
BRANCH   1  37
HETATM   37  C   UNL     1     -43.787  57.945 -57.076  1.00  0.00     0.254 C 
BRANCH  37  38
HETATM   38  N   UNL     1     -44.109  56.672 -57.771  1.00  0.00    -0.077 N 
HETATM   39  H   UNL     1     -45.013  56.700 -58.256  1.00  0.00     0.274 HD
HETATM   40  H   UNL     1     -43.407  56.492 -58.522  1.00  0.00     0.274 HD
HETATM   41  H   UNL     1     -44.092  55.856 -57.150  1.00  0.00     0.274 HD
ENDBRANCH  37  38
ENDBRANCH   1  37
TORSDOF 11
ENDMDL
MODEL 6
REMARK VINA RESULT:      -7.9      3.013      7.310
REMARK  11 active torsions:
REMARK  status: ('A' for Active; 'I' for Inactive)
REMARK    1  A    between atoms: C_2  and  O_3 
REMARK    2  A    between atoms: C_2  and  C_4 
REMARK    3  A    between atoms: C_8  and  C_9 
REMARK    4  A    between atoms: C_12  and  C_13 
REMARK    5  A    between atoms: C_13  and  C_14 
REMARK    6  A    between atoms: C_14  and  N_15 
REMARK    7  A    between atoms: C_14  and  C_29 
REMARK       I    between atoms: N_15  and  C_16 
REMARK    8  A    between atoms: C_16  and  C_17 
REMARK    9  A    between atoms: C_21  and  O_22 
REMARK   10  A    between atoms: O_22  and  C_23 
REMARK   11  A    between atoms: C_29  and  N_30 
ROOT
HETATM    1  C   UNL     1     -44.818  60.864 -50.253  1.00  0.00     0.114 C 
ENDROOT
BRANCH   1   2
HETATM    2  C   UNL     1     -44.387  61.885 -51.339  1.00  0.00     0.065 C 
BRANCH   2   3
HETATM    3  C   UNL     1     -44.214  61.285 -52.715  1.00  0.00    -0.056 A 
HETATM    4  C   UNL     1     -45.322  60.909 -53.488  1.00  0.00     0.008 A 
HETATM    5  C   UNL     1     -45.153  60.281 -54.727  1.00  0.00     0.014 A 
HETATM    6  C   UNL     1     -43.873  59.990 -55.215  1.00  0.00    -0.006 A 
HETATM    7  C   UNL     1     -42.768  60.361 -54.437  1.00  0.00     0.014 A 
HETATM    8  C   UNL     1     -42.934  60.998 -53.203  1.00  0.00     0.008 A 
BRANCH   6   9
HETATM    9  C   UNL     1     -43.663  59.289 -56.474  1.00  0.00     0.085 A 
HETATM   10  C   UNL     1     -42.456  59.067 -57.104  1.00  0.00     0.130 A 
HETATM   11  N   UNL     1     -42.758  58.406 -58.268  1.00  0.00    -0.315 N 
HETATM   12  C   UNL     1     -44.138  58.247 -58.298  1.00  0.00     0.143 A 
HETATM   13  C   UNL     1     -41.904  57.958 -59.269  1.00  0.00     0.098 A 
HETATM   14  C   UNL     1     -44.720  57.582 -59.437  1.00  0.00     0.017 A 
HETATM   15  N   UNL     1     -44.697  58.767 -57.222  1.00  0.00    -0.228 NA
HETATM   16  C   UNL     1     -43.868  57.143 -60.400  1.00  0.00     0.015 A 
HETATM   17  C   UNL     1     -42.427  57.331 -60.333  1.00  0.00     0.018 A 
BRANCH  14  18
HETATM   18  C   UNL     1     -46.221  57.362 -59.544  1.00  0.00     0.150 C 
HETATM   19  C   UNL     1     -46.553  56.140 -60.394  1.00  0.00     0.044 C 
BRANCH  18  20
HETATM   20  O   UNL     1     -46.807  57.186 -58.251  1.00  0.00    -0.391 OA
HETATM   21  H   UNL     1     -47.766  57.310 -58.355  1.00  0.00     0.210 HD
ENDBRANCH  18  20
ENDBRANCH  14  18
ENDBRANCH   6   9
ENDBRANCH   2   3
ENDBRANCH   1   2
BRANCH   1  22
HETATM   22  N   UNL     1     -44.279  59.529 -50.598  1.00  0.00    -0.350 N 
HETATM   23  C   UNL     1     -45.067  58.431 -50.869  1.00  0.00     0.252 C 
HETATM   24  O   UNL     1     -46.276  58.432 -50.651  1.00  0.00    -0.268 OA
HETATM   25  H   UNL     1     -43.365  59.518 -51.044  1.00  0.00     0.163 HD
BRANCH  23  26
HETATM   26  C   UNL     1     -44.387  57.248 -51.453  1.00  0.00     0.033 A 
HETATM   27  C   UNL     1     -44.180  57.211 -52.835  1.00  0.00     0.043 A 
HETATM   28  C   UNL     1     -43.542  56.110 -53.411  1.00  0.00     0.068 A 
HETATM   29 CL   UNL     1     -43.295  56.122 -55.120  1.00  0.00    -0.081 Cl
HETATM   30  C   UNL     1     -43.132  55.026 -52.622  1.00  0.00     0.091 A 
HETATM   31  C   UNL     1     -43.332  55.074 -51.240  1.00  0.00     0.039 A 
HETATM   32  C   UNL     1     -43.966  56.176 -50.655  1.00  0.00     0.020 A 
BRANCH  30  33
HETATM   33  O   UNL     1     -42.493  53.989 -53.245  1.00  0.00    -0.345 OA
BRANCH  33  34
HETATM   34  C   UNL     1     -41.058  54.003 -53.260  1.00  0.00     0.121 C 
HETATM   35  C   UNL     1     -40.491  53.015 -52.242  1.00  0.00     0.040 C 
HETATM   36  C   UNL     1     -40.634  53.599 -54.670  1.00  0.00     0.040 C 
ENDBRANCH  33  34
ENDBRANCH  30  33
ENDBRANCH  23  26
ENDBRANCH   1  22
BRANCH   1  37
HETATM   37  C   UNL     1     -44.370  61.377 -48.855  1.00  0.00     0.254 C 
BRANCH  37  38
HETATM   38  N   UNL     1     -45.032  60.632 -47.753  1.00  0.00    -0.077 N 
HETATM   39  H   UNL     1     -44.510  59.797 -47.466  1.00  0.00     0.274 HD
HETATM   40  H   UNL     1     -45.075  61.229 -46.898  1.00  0.00     0.274 HD
HETATM   41  H   UNL     1     -45.997  60.361 -47.971  1.00  0.00     0.274 HD
ENDBRANCH  37  38
ENDBRANCH   1  37
TORSDOF 11
ENDMDL
MODEL 7
REMARK VINA RESULT:      -7.7      2.370      8.325
REMARK  11 active torsions:
REMARK  status: ('A' for Active; 'I' for Inactive)
REMARK    1  A    between atoms: C_2  and  O_3 
REMARK    2  A    between atoms: C_2  and  C_4 
REMARK    3  A    between atoms: C_8  and  C_9 
REMARK    4  A    between atoms: C_12  and  C_13 
REMARK    5  A    between atoms: C_13  and  C_14 
REMARK    6  A    between atoms: C_14  and  N_15 
REMARK    7  A    between atoms: C_14  and  C_29 
REMARK       I    between atoms: N_15  and  C_16 
REMARK    8  A    between atoms: C_16  and  C_17 
REMARK    9  A    between atoms: C_21  and  O_22 
REMARK   10  A    between atoms: O_22  and  C_23 
REMARK   11  A    between atoms: C_29  and  N_30 
ROOT
HETATM    1  C   UNL     1     -39.919  52.473 -51.518  1.00  0.00     0.114 C 
ENDROOT
BRANCH   1   2
HETATM    2  C   UNL     1     -39.969  51.934 -52.972  1.00  0.00     0.065 C 
BRANCH   2   3
HETATM    3  C   UNL     1     -40.606  52.883 -53.960  1.00  0.00    -0.056 A 
HETATM    4  C   UNL     1     -39.846  53.857 -54.625  1.00  0.00     0.008 A 
HETATM    5  C   UNL     1     -40.456  54.783 -55.478  1.00  0.00     0.014 A 
HETATM    6  C   UNL     1     -41.843  54.779 -55.669  1.00  0.00    -0.006 A 
HETATM    7  C   UNL     1     -42.600  53.809 -54.998  1.00  0.00     0.014 A 
HETATM    8  C   UNL     1     -41.992  52.874 -54.153  1.00  0.00     0.008 A 
BRANCH   6   9
HETATM    9  C   UNL     1     -42.515  55.763 -56.506  1.00  0.00     0.085 A 
HETATM   10  C   UNL     1     -43.207  55.518 -57.673  1.00  0.00     0.130 A 
HETATM   11  N   UNL     1     -43.628  56.745 -58.123  1.00  0.00    -0.315 N 
HETATM   12  C   UNL     1     -43.179  57.687 -57.207  1.00  0.00     0.143 A 
HETATM   13  C   UNL     1     -44.358  57.057 -59.263  1.00  0.00     0.098 A 
HETATM   14  C   UNL     1     -43.484  59.075 -57.456  1.00  0.00     0.017 A 
HETATM   15  N   UNL     1     -42.513  57.112 -56.224  1.00  0.00    -0.228 NA
HETATM   16  C   UNL     1     -44.206  59.359 -58.571  1.00  0.00     0.015 A 
HETATM   17  C   UNL     1     -44.657  58.342 -59.508  1.00  0.00     0.018 A 
BRANCH  14  18
HETATM   18  C   UNL     1     -43.034  60.168 -56.499  1.00  0.00     0.150 C 
HETATM   19  C   UNL     1     -43.885  60.195 -55.234  1.00  0.00     0.044 C 
BRANCH  18  20
HETATM   20  O   UNL     1     -41.667  59.988 -56.121  1.00  0.00    -0.391 OA
HETATM   21  H   UNL     1     -41.636  59.217 -55.529  1.00  0.00     0.210 HD
ENDBRANCH  18  20
ENDBRANCH  14  18
ENDBRANCH   6   9
ENDBRANCH   2   3
ENDBRANCH   1   2
BRANCH   1  22
HETATM   22  N   UNL     1     -40.731  53.707 -51.428  1.00  0.00    -0.350 N 
HETATM   23  C   UNL     1     -40.386  54.796 -50.657  1.00  0.00     0.252 C 
HETATM   24  O   UNL     1     -39.476  54.746 -49.834  1.00  0.00    -0.268 OA
HETATM   25  H   UNL     1     -41.307  53.923 -52.238  1.00  0.00     0.163 HD
BRANCH  23  26
HETATM   26  C   UNL     1     -41.159  56.045 -50.880  1.00  0.00     0.033 A 
HETATM   27  C   UNL     1     -42.223  56.018 -51.785  1.00  0.00     0.043 A 
HETATM   28  C   UNL     1     -42.967  57.179 -52.013  1.00  0.00     0.068 A 
HETATM   29 CL   UNL     1     -44.283  57.089 -53.128  1.00  0.00    -0.081 Cl
HETATM   30  C   UNL     1     -42.640  58.379 -51.366  1.00  0.00     0.091 A 
HETATM   31  C   UNL     1     -41.581  58.395 -50.454  1.00  0.00     0.039 A 
HETATM   32  C   UNL     1     -40.835  57.235 -50.217  1.00  0.00     0.020 A 
BRANCH  30  33
HETATM   33  O   UNL     1     -43.422  59.473 -51.616  1.00  0.00    -0.345 OA
BRANCH  33  34
HETATM   34  C   UNL     1     -43.314  60.588 -50.720  1.00  0.00     0.121 C 
HETATM   35  C   UNL     1     -43.146  61.896 -51.494  1.00  0.00     0.040 C 
HETATM   36  C   UNL     1     -44.609  60.625 -49.913  1.00  0.00     0.040 C 
ENDBRANCH  33  34
ENDBRANCH  30  33
ENDBRANCH  23  26
ENDBRANCH   1  22
BRANCH   1  37
HETATM   37  C   UNL     1     -40.369  51.354 -50.536  1.00  0.00     0.254 C 
BRANCH  37  38
HETATM   38  N   UNL     1     -39.661  50.073 -50.795  1.00  0.00    -0.077 N 
HETATM   39  H   UNL     1     -40.277  49.256 -50.727  1.00  0.00     0.274 HD
HETATM   40  H   UNL     1     -39.303  50.059 -51.775  1.00  0.00     0.274 HD
HETATM   41  H   UNL     1     -38.850  49.928 -50.183  1.00  0.00     0.274 HD
ENDBRANCH  37  38
ENDBRANCH   1  37
TORSDOF 11
ENDMDL
MODEL 8
REMARK VINA RESULT:      -7.5      4.393      6.597
REMARK  11 active torsions:
REMARK  status: ('A' for Active; 'I' for Inactive)
REMARK    1  A    between atoms: C_2  and  O_3 
REMARK    2  A    between atoms: C_2  and  C_4 
REMARK    3  A    between atoms: C_8  and  C_9 
REMARK    4  A    between atoms: C_12  and  C_13 
REMARK    5  A    between atoms: C_13  and  C_14 
REMARK    6  A    between atoms: C_14  and  N_15 
REMARK    7  A    between atoms: C_14  and  C_29 
REMARK       I    between atoms: N_15  and  C_16 
REMARK    8  A    between atoms: C_16  and  C_17 
REMARK    9  A    between atoms: C_21  and  O_22 
REMARK   10  A    between atoms: O_22  and  C_23 
REMARK   11  A    between atoms: C_29  and  N_30 
ROOT
HETATM    1  C   UNL     1     -43.657  57.431 -59.728  1.00  0.00     0.114 C 
ENDROOT
BRANCH   1   2
HETATM    2  C   UNL     1     -43.808  58.028 -58.304  1.00  0.00     0.065 C 
BRANCH   2   3
HETATM    3  C   UNL     1     -43.164  57.199 -57.216  1.00  0.00    -0.056 A 
HETATM    4  C   UNL     1     -43.081  55.804 -57.320  1.00  0.00     0.008 A 
HETATM    5  C   UNL     1     -42.555  55.036 -56.275  1.00  0.00     0.014 A 
HETATM    6  C   UNL     1     -42.123  55.641 -55.088  1.00  0.00    -0.006 A 
HETATM    7  C   UNL     1     -42.214  57.036 -54.985  1.00  0.00     0.014 A 
HETATM    8  C   UNL     1     -42.730  57.807 -56.032  1.00  0.00     0.008 A 
BRANCH   6   9
HETATM    9  C   UNL     1     -41.622  54.867 -53.960  1.00  0.00     0.085 A 
HETATM   10  C   UNL     1     -41.610  55.252 -52.636  1.00  0.00     0.130 A 
HETATM   11  N   UNL     1     -41.014  54.222 -51.953  1.00  0.00    -0.315 N 
HETATM   12  C   UNL     1     -40.692  53.248 -52.889  1.00  0.00     0.143 A 
HETATM   13  C   UNL     1     -40.748  54.109 -50.594  1.00  0.00     0.098 A 
HETATM   14  C   UNL     1     -40.037  52.049 -52.424  1.00  0.00     0.017 A 
HETATM   15  N   UNL     1     -41.058  53.618 -54.102  1.00  0.00    -0.228 NA
HETATM   16  C   UNL     1     -39.794  51.954 -51.091  1.00  0.00     0.015 A 
HETATM   17  C   UNL     1     -40.146  52.999 -50.142  1.00  0.00     0.018 A 
BRANCH  14  18
HETATM   18  C   UNL     1     -39.657  50.933 -53.384  1.00  0.00     0.150 C 
HETATM   19  C   UNL     1     -39.600  49.580 -52.681  1.00  0.00     0.044 C 
BRANCH  18  20
HETATM   20  O   UNL     1     -40.591  50.842 -54.463  1.00  0.00    -0.391 OA
HETATM   21  H   UNL     1     -41.479  50.924 -54.076  1.00  0.00     0.210 HD
ENDBRANCH  18  20
ENDBRANCH  14  18
ENDBRANCH   6   9
ENDBRANCH   2   3
ENDBRANCH   1   2
BRANCH   1  22
HETATM   22  N   UNL     1     -44.865  57.748 -60.521  1.00  0.00    -0.350 N 
HETATM   23  C   UNL     1     -46.039  57.029 -60.449  1.00  0.00     0.252 C 
HETATM   24  O   UNL     1     -46.104  55.951 -59.865  1.00  0.00    -0.268 OA
HETATM   25  H   UNL     1     -44.978  58.722 -60.793  1.00  0.00     0.163 HD
BRANCH  23  26
HETATM   26  C   UNL     1     -47.232  57.629 -61.100  1.00  0.00     0.033 A 
HETATM   27  C   UNL     1     -47.483  58.990 -60.908  1.00  0.00     0.043 A 
HETATM   28  C   UNL     1     -48.597  59.580 -61.510  1.00  0.00     0.068 A 
HETATM   29 CL   UNL     1     -48.853  61.269 -61.256  1.00  0.00    -0.081 Cl
HETATM   30  C   UNL     1     -49.484  58.815 -62.281  1.00  0.00     0.091 A 
HETATM   31  C   UNL     1     -49.220  57.457 -62.477  1.00  0.00     0.039 A 
HETATM   32  C   UNL     1     -48.103  56.861 -61.882  1.00  0.00     0.020 A 
BRANCH  30  33
HETATM   33  O   UNL     1     -50.544  59.458 -62.861  1.00  0.00    -0.345 OA
BRANCH  33  34
HETATM   34  C   UNL     1     -51.862  59.090 -62.432  1.00  0.00     0.121 C 
HETATM   35  C   UNL     1     -52.232  59.801 -61.130  1.00  0.00     0.040 C 
HETATM   36  C   UNL     1     -52.816  59.514 -63.545  1.00  0.00     0.040 C 
ENDBRANCH  33  34
ENDBRANCH  30  33
ENDBRANCH  23  26
ENDBRANCH   1  22
BRANCH   1  37
HETATM   37  C   UNL     1     -42.336  57.947 -60.366  1.00  0.00     0.254 C 
BRANCH  37  38
HETATM   38  N   UNL     1     -41.236  56.956 -60.241  1.00  0.00    -0.077 N 
HETATM   39  H   UNL     1     -41.568  55.986 -60.272  1.00  0.00     0.274 HD
HETATM   40  H   UNL     1     -40.587  57.044 -61.053  1.00  0.00     0.274 HD
HETATM   41  H   UNL     1     -40.669  57.086 -59.396  1.00  0.00     0.274 HD
ENDBRANCH  37  38
ENDBRANCH   1  37
TORSDOF 11
ENDMDL
MODEL 9
REMARK VINA RESULT:      -7.4      4.505      6.900
REMARK  11 active torsions:
REMARK  status: ('A' for Active; 'I' for Inactive)
REMARK    1  A    between atoms: C_2  and  O_3 
REMARK    2  A    between atoms: C_2  and  C_4 
REMARK    3  A    between atoms: C_8  and  C_9 
REMARK    4  A    between atoms: C_12  and  C_13 
REMARK    5  A    between atoms: C_13  and  C_14 
REMARK    6  A    between atoms: C_14  and  N_15 
REMARK    7  A    between atoms: C_14  and  C_29 
REMARK       I    between atoms: N_15  and  C_16 
REMARK    8  A    between atoms: C_16  and  C_17 
REMARK    9  A    between atoms: C_21  and  O_22 
REMARK   10  A    between atoms: O_22  and  C_23 
REMARK   11  A    between atoms: C_29  and  N_30 
ROOT
HETATM    1  C   UNL     1     -43.677  57.478 -59.693  1.00  0.00     0.114 C 
ENDROOT
BRANCH   1   2
HETATM    2  C   UNL     1     -43.819  58.083 -58.271  1.00  0.00     0.065 C 
BRANCH   2   3
HETATM    3  C   UNL     1     -43.305  57.188 -57.167  1.00  0.00    -0.056 A 
HETATM    4  C   UNL     1     -42.837  57.722 -55.958  1.00  0.00     0.008 A 
HETATM    5  C   UNL     1     -42.290  56.893 -54.972  1.00  0.00     0.014 A 
HETATM    6  C   UNL     1     -42.172  55.513 -55.179  1.00  0.00    -0.006 A 
HETATM    7  C   UNL     1     -42.635  54.984 -56.391  1.00  0.00     0.014 A 
HETATM    8  C   UNL     1     -43.192  55.808 -57.374  1.00  0.00     0.008 A 
BRANCH   6   9
HETATM    9  C   UNL     1     -41.558  54.631 -54.196  1.00  0.00     0.085 A 
HETATM   10  C   UNL     1     -40.884  53.455 -54.451  1.00  0.00     0.130 A 
HETATM   11  N   UNL     1     -40.521  52.959 -53.223  1.00  0.00    -0.315 N 
HETATM   12  C   UNL     1     -40.985  53.856 -52.270  1.00  0.00     0.143 A 
HETATM   13  C   UNL     1     -39.830  51.793 -52.919  1.00  0.00     0.098 A 
HETATM   14  C   UNL     1     -40.739  53.559 -50.881  1.00  0.00     0.017 A 
HETATM   15  N   UNL     1     -41.605  54.872 -52.840  1.00  0.00    -0.228 NA
HETATM   16  C   UNL     1     -40.054  52.419 -50.604  1.00  0.00     0.015 A 
HETATM   17  C   UNL     1     -39.586  51.502 -51.632  1.00  0.00     0.018 A 
BRANCH  14  18
HETATM   18  C   UNL     1     -41.208  54.493 -49.776  1.00  0.00     0.150 C 
HETATM   19  C   UNL     1     -40.518  54.188 -48.450  1.00  0.00     0.044 C 
BRANCH  18  20
HETATM   20  O   UNL     1     -40.951  55.858 -50.115  1.00  0.00    -0.391 OA
HETATM   21  H   UNL     1     -40.060  55.892 -50.502  1.00  0.00     0.210 HD
ENDBRANCH  18  20
ENDBRANCH  14  18
ENDBRANCH   6   9
ENDBRANCH   2   3
ENDBRANCH   1   2
BRANCH   1  22
HETATM   22  N   UNL     1     -44.891  57.791 -60.479  1.00  0.00    -0.350 N 
HETATM   23  C   UNL     1     -46.063  57.070 -60.398  1.00  0.00     0.252 C 
HETATM   24  O   UNL     1     -46.123  55.993 -59.811  1.00  0.00    -0.268 OA
HETATM   25  H   UNL     1     -45.008  58.764 -60.753  1.00  0.00     0.163 HD
BRANCH  23  26
HETATM   26  C   UNL     1     -47.261  57.666 -61.043  1.00  0.00     0.033 A 
HETATM   27  C   UNL     1     -47.526  59.022 -60.834  1.00  0.00     0.043 A 
HETATM   28  C   UNL     1     -48.646  59.608 -61.429  1.00  0.00     0.068 A 
HETATM   29 CL   UNL     1     -48.919  61.291 -61.154  1.00  0.00    -0.081 Cl
HETATM   30  C   UNL     1     -49.525  58.844 -62.211  1.00  0.00     0.091 A 
HETATM   31  C   UNL     1     -49.247  57.491 -62.424  1.00  0.00     0.039 A 
HETATM   32  C   UNL     1     -48.124  56.899 -61.835  1.00  0.00     0.020 A 
BRANCH  30  33
HETATM   33  O   UNL     1     -50.590  59.484 -62.784  1.00  0.00    -0.345 OA
BRANCH  33  34
HETATM   34  C   UNL     1     -51.905  59.100 -62.358  1.00  0.00     0.121 C 
HETATM   35  C   UNL     1     -52.279  59.792 -61.048  1.00  0.00     0.040 C 
HETATM   36  C   UNL     1     -52.863  59.530 -63.466  1.00  0.00     0.040 C 
ENDBRANCH  33  34
ENDBRANCH  30  33
ENDBRANCH  23  26
ENDBRANCH   1  22
BRANCH   1  37
HETATM   37  C   UNL     1     -42.361  57.991 -60.343  1.00  0.00     0.254 C 
BRANCH  37  38
HETATM   38  N   UNL     1     -41.263  56.996 -60.232  1.00  0.00    -0.077 N 
HETATM   39  H   UNL     1     -41.525  56.071 -60.591  1.00  0.00     0.274 HD
HETATM   40  H   UNL     1     -40.455  57.294 -60.820  1.00  0.00     0.274 HD
HETATM   41  H   UNL     1     -40.908  56.891 -59.275  1.00  0.00     0.274 HD
ENDBRANCH  37  38
ENDBRANCH   1  37
TORSDOF 11
ENDMDL
MODEL 10
REMARK VINA RESULT:      -7.4      2.341      3.296
REMARK  11 active torsions:
REMARK  status: ('A' for Active; 'I' for Inactive)
REMARK    1  A    between atoms: C_2  and  O_3 
REMARK    2  A    between atoms: C_2  and  C_4 
REMARK    3  A    between atoms: C_8  and  C_9 
REMARK    4  A    between atoms: C_12  and  C_13 
REMARK    5  A    between atoms: C_13  and  C_14 
REMARK    6  A    between atoms: C_14  and  N_15 
REMARK    7  A    between atoms: C_14  and  C_29 
REMARK       I    between atoms: N_15  and  C_16 
REMARK    8  A    between atoms: C_16  and  C_17 
REMARK    9  A    between atoms: C_21  and  O_22 
REMARK   10  A    between atoms: O_22  and  C_23 
REMARK   11  A    between atoms: C_29  and  N_30 
ROOT
HETATM    1  C   UNL     1     -45.974  62.093 -51.895  1.00  0.00     0.114 C 
ENDROOT
BRANCH   1   2
HETATM    2  C   UNL     1     -45.609  61.364 -50.574  1.00  0.00     0.065 C 
BRANCH   2   3
HETATM    3  C   UNL     1     -44.807  60.098 -50.770  1.00  0.00    -0.056 A 
HETATM    4  C   UNL     1     -43.411  60.134 -50.886  1.00  0.00     0.008 A 
HETATM    5  C   UNL     1     -42.682  58.968 -51.147  1.00  0.00     0.014 A 
HETATM    6  C   UNL     1     -43.332  57.741 -51.324  1.00  0.00    -0.006 A 
HETATM    7  C   UNL     1     -44.729  57.709 -51.214  1.00  0.00     0.014 A 
HETATM    8  C   UNL     1     -45.459  58.871 -50.943  1.00  0.00     0.008 A 
BRANCH   6   9
HETATM    9  C   UNL     1     -42.609  56.519 -51.651  1.00  0.00     0.085 A 
HETATM   10  C   UNL     1     -41.953  55.688 -50.767  1.00  0.00     0.130 A 
HETATM   11  N   UNL     1     -41.394  54.695 -51.533  1.00  0.00    -0.315 N 
HETATM   12  C   UNL     1     -41.738  54.959 -52.853  1.00  0.00     0.143 A 
HETATM   13  C   UNL     1     -40.621  53.612 -51.135  1.00  0.00     0.098 A 
HETATM   14  C   UNL     1     -41.260  54.058 -53.873  1.00  0.00     0.017 A 
HETATM   15  N   UNL     1     -42.476  56.050 -52.940  1.00  0.00    -0.228 NA
HETATM   16  C   UNL     1     -40.514  53.000 -53.462  1.00  0.00     0.015 A 
HETATM   17  C   UNL     1     -40.173  52.759 -52.069  1.00  0.00     0.018 A 
BRANCH  14  18
HETATM   18  C   UNL     1     -41.597  54.273 -55.340  1.00  0.00     0.150 C 
HETATM   19  C   UNL     1     -43.074  54.017 -55.622  1.00  0.00     0.044 C 
BRANCH  18  20
HETATM   20  O   UNL     1     -41.284  55.607 -55.748  1.00  0.00    -0.391 OA
HETATM   21  H   UNL     1     -41.407  55.645 -56.712  1.00  0.00     0.210 HD
ENDBRANCH  18  20
ENDBRANCH  14  18
ENDBRANCH   6   9
ENDBRANCH   2   3
ENDBRANCH   1   2
BRANCH   1  22
HETATM   22  N   UNL     1     -45.568  61.253 -53.043  1.00  0.00    -0.350 N 
HETATM   23  C   UNL     1     -44.471  61.517 -53.835  1.00  0.00     0.252 C 
HETATM   24  O   UNL     1     -43.862  62.581 -53.764  1.00  0.00    -0.268 OA
HETATM   25  H   UNL     1     -45.832  60.272 -52.996  1.00  0.00     0.163 HD
BRANCH  23  26
HETATM   26  C   UNL     1     -44.047  60.444 -54.770  1.00  0.00     0.033 A 
HETATM   27  C   UNL     1     -43.133  60.761 -55.779  1.00  0.00     0.043 A 
HETATM   28  C   UNL     1     -42.716  59.770 -56.672  1.00  0.00     0.068 A 
HETATM   29 CL   UNL     1     -41.572  60.209 -57.889  1.00  0.00    -0.081 Cl
HETATM   30  C   UNL     1     -43.228  58.467 -56.586  1.00  0.00     0.091 A 
HETATM   31  C   UNL     1     -44.134  58.156 -55.568  1.00  0.00     0.039 A 
HETATM   32  C   UNL     1     -44.551  59.142 -54.668  1.00  0.00     0.020 A 
BRANCH  30  33
HETATM   33  O   UNL     1     -42.762  57.539 -57.477  1.00  0.00    -0.345 OA
BRANCH  33  34
HETATM   34  C   UNL     1     -43.720  56.892 -58.327  1.00  0.00     0.121 C 
HETATM   35  C   UNL     1     -44.330  57.884 -59.317  1.00  0.00     0.040 C 
HETATM   36  C   UNL     1     -42.966  55.801 -59.082  1.00  0.00     0.040 C 
ENDBRANCH  33  34
ENDBRANCH  30  33
ENDBRANCH  23  26
ENDBRANCH   1  22
BRANCH   1  37
HETATM   37  C   UNL     1     -47.488  62.450 -51.885  1.00  0.00     0.254 C 
BRANCH  37  38
HETATM   38  N   UNL     1     -48.229  61.753 -52.969  1.00  0.00    -0.077 N 
HETATM   39  H   UNL     1     -49.233  61.672 -52.778  1.00  0.00     0.274 HD
HETATM   40  H   UNL     1     -48.167  62.306 -53.852  1.00  0.00     0.274 HD
HETATM   41  H   UNL     1     -47.855  60.821 -53.179  1.00  0.00     0.274 HD
ENDBRANCH  37  38
ENDBRANCH   1  37
TORSDOF 11
ENDMDL
