MODEL 1
REMARK VINA RESULT:      -9.1      0.000      0.000
REMARK  6 active torsions:
REMARK  status: ('A' for Active; 'I' for Inactive)
REMARK    1  A    between atoms: C_3  and  C_4 
REMARK    2  A    between atoms: C_4  and  C_5 
REMARK    3  A    between atoms: N_8  and  C_10 
REMARK    4  A    between atoms: C_10  and  C_11 
REMARK    5  A    between atoms: N_24  and  C_25 
REMARK    6  A    between atoms: C_25  and  C_26 
ROOT
HETATM    1  C   UNL     1     -42.626  56.759 -52.135  1.00  0.00     0.149 C 
HETATM    2  N   UNL     1     -41.333  56.430 -52.724  1.00  0.00    -0.220 NA
HETATM    3  C   UNL     1     -41.396  56.370 -54.094  1.00  0.00     0.304 C 
HETATM    4  O   UNL     1     -40.415  56.203 -54.797  1.00  0.00    -0.253 OA
HETATM    5  N   UNL     1     -42.689  56.474 -54.484  1.00  0.00    -0.270 N 
HETATM    6  C   UNL     1     -43.490  56.773 -53.416  1.00  0.00     0.257 C 
HETATM    7  O   UNL     1     -44.704  56.923 -53.437  1.00  0.00    -0.270 OA
HETATM    8  H   UNL     1     -40.511  56.921 -52.374  1.00  0.00     0.134 HD
ENDROOT
BRANCH   1   9
HETATM    9  C   UNL     1     -42.515  58.114 -51.443  1.00  0.00     0.067 A 
HETATM   10  C   UNL     1     -41.301  58.663 -51.039  1.00  0.00     0.030 A 
HETATM   11  C   UNL     1     -41.295  59.940 -50.480  1.00  0.00     0.003 A 
HETATM   12  C   UNL     1     -42.487  60.641 -50.344  1.00  0.00     0.019 A 
HETATM   13  C   UNL     1     -43.651  60.035 -50.776  1.00  0.00     0.117 A 
HETATM   14  N   UNL     1     -43.693  58.802 -51.330  1.00  0.00    -0.263 NA
ENDBRANCH   1   9
BRANCH   1  15
HETATM   15  C   UNL     1     -43.133  55.652 -51.140  1.00  0.00     0.028 C 
HETATM   16  C   UNL     1     -42.275  55.467 -49.876  1.00  0.00     0.035 C 
HETATM   17  C   UNL     1     -40.916  54.847 -50.153  1.00  0.00     0.235 C 
HETATM   18  N   UNL     1     -41.044  53.542 -50.907  1.00  0.00    -0.067 N 
HETATM   19  H   UNL     1     -41.366  52.837 -50.229  1.00  0.00     0.280 HD
HETATM   20  C   UNL     1     -42.018  53.523 -52.060  1.00  0.00     0.235 C 
HETATM   21  C   UNL     1     -43.317  54.246 -51.744  1.00  0.00     0.035 C 
BRANCH  18  22
HETATM   22  C   UNL     1     -39.685  53.052 -51.415  1.00  0.00     0.278 C 
BRANCH  22  23
HETATM   23  C   UNL     1     -39.727  51.855 -52.315  1.00  0.00     0.028 A 
HETATM   24  C   UNL     1     -39.769  50.533 -51.848  1.00  0.00     0.045 A 
HETATM   25 CL   UNL     1     -39.838  50.164 -50.163  1.00  0.00    -0.084 Cl
HETATM   26  C   UNL     1     -39.780  49.461 -52.746  1.00  0.00     0.024 A 
HETATM   27  C   UNL     1     -39.751  49.695 -54.121  1.00  0.00     0.005 A 
HETATM   28  C   UNL     1     -39.721  51.002 -54.600  1.00  0.00     0.043 A 
HETATM   29  C   UNL     1     -39.712  52.060 -53.697  1.00  0.00     0.126 A 
HETATM   30  F   UNL     1     -39.713  53.317 -54.163  1.00  0.00    -0.205 F 
ENDBRANCH  22  23
ENDBRANCH  18  22
ENDBRANCH   1  15
BRANCH   5  31
HETATM   31  C   UNL     1     -43.116  56.356 -55.868  1.00  0.00     0.168 C 
BRANCH  31  32
HETATM   32  C   UNL     1     -43.221  57.712 -56.570  1.00  0.00     0.140 C 
HETATM   33  O   UNL     1     -44.580  57.937 -56.994  1.00  0.00    -0.384 OA
HETATM   34  C   UNL     1     -44.573  58.245 -58.396  1.00  0.00     0.168 C 
HETATM   35  C   UNL     1     -43.161  58.670 -58.729  1.00  0.00     0.029 C 
HETATM   36  C   UNL     1     -42.355  57.777 -57.822  1.00  0.00     0.036 C 
ENDBRANCH  31  32
ENDBRANCH   5  31
TORSDOF 6
ENDMDL
MODEL 2
REMARK VINA RESULT:      -9.0      2.047      2.696
REMARK  6 active torsions:
REMARK  status: ('A' for Active; 'I' for Inactive)
REMARK    1  A    between atoms: C_3  and  C_4 
REMARK    2  A    between atoms: C_4  and  C_5 
REMARK    3  A    between atoms: N_8  and  C_10 
REMARK    4  A    between atoms: C_10  and  C_11 
REMARK    5  A    between atoms: N_24  and  C_25 
REMARK    6  A    between atoms: C_25  and  C_26 
ROOT
HETATM    1  C   UNL     1     -43.662  58.961 -52.283  1.00  0.00     0.149 C 
HETATM    2  N   UNL     1     -42.210  58.839 -52.307  1.00  0.00    -0.220 NA
HETATM    3  C   UNL     1     -41.663  59.452 -53.408  1.00  0.00     0.304 C 
HETATM    4  O   UNL     1     -40.462  59.553 -53.582  1.00  0.00    -0.253 OA
HETATM    5  N   UNL     1     -42.659  59.849 -54.234  1.00  0.00    -0.270 N 
HETATM    6  C   UNL     1     -43.878  59.669 -53.639  1.00  0.00     0.257 C 
HETATM    7  O   UNL     1     -44.970  59.922 -54.128  1.00  0.00    -0.270 OA
HETATM    8  H   UNL     1     -41.701  59.023 -51.443  1.00  0.00     0.134 HD
ENDROOT
BRANCH   1   9
HETATM    9  C   UNL     1     -44.060  59.800 -51.071  1.00  0.00     0.067 A 
HETATM   10  C   UNL     1     -43.163  60.610 -50.381  1.00  0.00     0.030 A 
HETATM   11  C   UNL     1     -43.637  61.395 -49.331  1.00  0.00     0.003 A 
HETATM   12  C   UNL     1     -44.986  61.362 -48.999  1.00  0.00     0.019 A 
HETATM   13  C   UNL     1     -45.819  60.541 -49.736  1.00  0.00     0.117 A 
HETATM   14  N   UNL     1     -45.395  59.773 -50.765  1.00  0.00    -0.263 NA
ENDBRANCH   1   9
BRANCH   1  15
HETATM   15  C   UNL     1     -44.384  57.565 -52.269  1.00  0.00     0.028 C 
HETATM   16  C   UNL     1     -43.946  56.613 -51.141  1.00  0.00     0.035 C 
HETATM   17  C   UNL     1     -42.533  56.081 -51.314  1.00  0.00     0.235 C 
HETATM   18  N   UNL     1     -42.346  55.428 -52.666  1.00  0.00    -0.067 N 
HETATM   19  H   UNL     1     -42.819  54.514 -52.622  1.00  0.00     0.280 HD
HETATM   20  C   UNL     1     -42.917  56.165 -53.854  1.00  0.00     0.235 C 
HETATM   21  C   UNL     1     -44.291  56.753 -53.575  1.00  0.00     0.035 C 
BRANCH  18  22
HETATM   22  C   UNL     1     -40.871  55.130 -52.946  1.00  0.00     0.278 C 
BRANCH  22  23
HETATM   23  C   UNL     1     -40.496  53.680 -52.952  1.00  0.00     0.028 A 
HETATM   24  C   UNL     1     -40.024  52.996 -51.822  1.00  0.00     0.045 A 
HETATM   25 CL   UNL     1     -39.889  53.763 -50.282  1.00  0.00    -0.084 Cl
HETATM   26  C   UNL     1     -39.666  51.646 -51.906  1.00  0.00     0.024 A 
HETATM   27  C   UNL     1     -39.778  50.963 -53.118  1.00  0.00     0.005 A 
HETATM   28  C   UNL     1     -40.256  51.626 -54.244  1.00  0.00     0.043 A 
HETATM   29  C   UNL     1     -40.609  52.968 -54.149  1.00  0.00     0.126 A 
HETATM   30  F   UNL     1     -41.096  53.594 -55.229  1.00  0.00    -0.205 F 
ENDBRANCH  22  23
ENDBRANCH  18  22
ENDBRANCH   1  15
BRANCH   5  31
HETATM   31  C   UNL     1     -42.422  60.451 -55.536  1.00  0.00     0.168 C 
BRANCH  31  32
HETATM   32  C   UNL     1     -42.078  59.416 -56.609  1.00  0.00     0.140 C 
HETATM   33  O   UNL     1     -41.351  60.048 -57.681  1.00  0.00    -0.384 OA
HETATM   34  C   UNL     1     -42.019  59.756 -58.917  1.00  0.00     0.168 C 
HETATM   35  C   UNL     1     -42.892  58.552 -58.652  1.00  0.00     0.029 C 
HETATM   36  C   UNL     1     -43.326  58.799 -57.230  1.00  0.00     0.036 C 
ENDBRANCH  31  32
ENDBRANCH   5  31
TORSDOF 6
ENDMDL
MODEL 3
REMARK VINA RESULT:      -8.8      2.624      5.710
REMARK  6 active torsions:
REMARK  status: ('A' for Active; 'I' for Inactive)
REMARK    1  A    between atoms: C_3  and  C_4 
REMARK    2  A    between atoms: C_4  and  C_5 
REMARK    3  A    between atoms: N_8  and  C_10 
REMARK    4  A    between atoms: C_10  and  C_11 
REMARK    5  A    between atoms: N_24  and  C_25 
REMARK    6  A    between atoms: C_25  and  C_26 
ROOT
HETATM    1  C   UNL     1     -43.036  59.326 -52.570  1.00  0.00     0.149 C 
HETATM    2  N   UNL     1     -43.996  58.324 -52.123  1.00  0.00    -0.220 NA
HETATM    3  C   UNL     1     -44.964  58.867 -51.316  1.00  0.00     0.304 C 
HETATM    4  O   UNL     1     -45.919  58.232 -50.906  1.00  0.00    -0.253 OA
HETATM    5  N   UNL     1     -44.642  60.153 -51.041  1.00  0.00    -0.270 N 
HETATM    6  C   UNL     1     -43.561  60.547 -51.782  1.00  0.00     0.257 C 
HETATM    7  O   UNL     1     -43.023  61.645 -51.756  1.00  0.00    -0.270 OA
HETATM    8  H   UNL     1     -44.360  57.671 -52.816  1.00  0.00     0.134 HD
ENDROOT
BRANCH   1   9
HETATM    9  C   UNL     1     -43.149  59.467 -54.085  1.00  0.00     0.067 A 
HETATM   10  C   UNL     1     -42.419  60.398 -54.818  1.00  0.00     0.030 A 
HETATM   11  C   UNL     1     -42.537  60.401 -56.207  1.00  0.00     0.003 A 
HETATM   12  C   UNL     1     -43.366  59.478 -56.832  1.00  0.00     0.019 A 
HETATM   13  C   UNL     1     -44.053  58.578 -56.040  1.00  0.00     0.117 A 
HETATM   14  N   UNL     1     -43.956  58.540 -54.692  1.00  0.00    -0.263 NA
ENDBRANCH   1   9
BRANCH   1  15
HETATM   15  C   UNL     1     -41.563  58.984 -52.139  1.00  0.00     0.028 C 
HETATM   16  C   UNL     1     -40.753  58.173 -53.166  1.00  0.00     0.035 C 
HETATM   17  C   UNL     1     -41.232  56.738 -53.315  1.00  0.00     0.235 C 
HETATM   18  N   UNL     1     -41.272  56.024 -51.982  1.00  0.00    -0.067 N 
HETATM   19  H   UNL     1     -40.297  55.805 -51.733  1.00  0.00     0.280 HD
HETATM   20  C   UNL     1     -41.862  56.793 -50.824  1.00  0.00     0.235 C 
HETATM   21  C   UNL     1     -41.416  58.245 -50.795  1.00  0.00     0.035 C 
BRANCH  18  22
HETATM   22  C   UNL     1     -41.996  54.680 -52.088  1.00  0.00     0.278 C 
BRANCH  22  23
HETATM   23  C   UNL     1     -41.138  53.514 -52.473  1.00  0.00     0.028 A 
HETATM   24  C   UNL     1     -40.227  52.899 -51.603  1.00  0.00     0.045 A 
HETATM   25 CL   UNL     1     -40.054  53.401 -49.961  1.00  0.00    -0.084 Cl
HETATM   26  C   UNL     1     -39.438  51.829 -52.039  1.00  0.00     0.024 A 
HETATM   27  C   UNL     1     -39.551  51.359 -53.348  1.00  0.00     0.005 A 
HETATM   28  C   UNL     1     -40.459  51.952 -54.219  1.00  0.00     0.043 A 
HETATM   29  C   UNL     1     -41.239  53.015 -53.775  1.00  0.00     0.126 A 
HETATM   30  F   UNL     1     -42.133  53.564 -54.609  1.00  0.00    -0.205 F 
ENDBRANCH  22  23
ENDBRANCH  18  22
ENDBRANCH   1  15
BRANCH   5  31
HETATM   31  C   UNL     1     -45.412  60.992 -50.136  1.00  0.00     0.168 C 
BRANCH  31  32
HETATM   32  C   UNL     1     -44.946  60.872 -48.684  1.00  0.00     0.140 C 
HETATM   33  O   UNL     1     -45.943  60.178 -47.908  1.00  0.00    -0.384 OA
HETATM   34  C   UNL     1     -46.277  60.987 -46.771  1.00  0.00     0.168 C 
HETATM   35  C   UNL     1     -45.139  61.967 -46.599  1.00  0.00     0.029 C 
HETATM   36  C   UNL     1     -44.752  62.235 -48.031  1.00  0.00     0.036 C 
ENDBRANCH  31  32
ENDBRANCH   5  31
TORSDOF 6
ENDMDL
MODEL 4
REMARK VINA RESULT:      -8.4      3.051      7.387
REMARK  6 active torsions:
REMARK  status: ('A' for Active; 'I' for Inactive)
REMARK    1  A    between atoms: C_3  and  C_4 
REMARK    2  A    between atoms: C_4  and  C_5 
REMARK    3  A    between atoms: N_8  and  C_10 
REMARK    4  A    between atoms: C_10  and  C_11 
REMARK    5  A    between atoms: N_24  and  C_25 
REMARK    6  A    between atoms: C_25  and  C_26 
ROOT
HETATM    1  C   UNL     1     -41.972  55.075 -53.134  1.00  0.00     0.149 C 
HETATM    2  N   UNL     1     -41.148  56.049 -53.839  1.00  0.00    -0.220 NA
HETATM    3  C   UNL     1     -40.920  57.171 -53.080  1.00  0.00     0.304 C 
HETATM    4  O   UNL     1     -40.180  58.071 -53.435  1.00  0.00    -0.253 OA
HETATM    5  N   UNL     1     -41.671  57.106 -51.956  1.00  0.00    -0.270 N 
HETATM    6  C   UNL     1     -42.279  55.885 -51.854  1.00  0.00     0.257 C 
HETATM    7  O   UNL     1     -43.028  55.517 -50.959  1.00  0.00    -0.270 OA
HETATM    8  H   UNL     1     -40.319  55.709 -54.325  1.00  0.00     0.134 HD
ENDROOT
BRANCH   1   9
HETATM    9  C   UNL     1     -41.141  53.818 -52.893  1.00  0.00     0.067 A 
HETATM   10  C   UNL     1     -40.606  53.053 -53.925  1.00  0.00     0.030 A 
HETATM   11  C   UNL     1     -39.799  51.962 -53.603  1.00  0.00     0.003 A 
HETATM   12  C   UNL     1     -39.539  51.665 -52.271  1.00  0.00     0.019 A 
HETATM   13  C   UNL     1     -40.097  52.476 -51.301  1.00  0.00     0.117 A 
HETATM   14  N   UNL     1     -40.877  53.546 -51.577  1.00  0.00    -0.263 NA
ENDBRANCH   1   9
BRANCH   1  15
HETATM   15  C   UNL     1     -43.301  54.740 -53.905  1.00  0.00     0.028 C 
HETATM   16  C   UNL     1     -43.109  54.169 -55.321  1.00  0.00     0.035 C 
HETATM   17  C   UNL     1     -42.578  55.189 -56.316  1.00  0.00     0.235 C 
HETATM   18  N   UNL     1     -43.442  56.430 -56.354  1.00  0.00    -0.067 N 
HETATM   19  H   UNL     1     -44.297  56.182 -56.872  1.00  0.00     0.280 HD
HETATM   20  C   UNL     1     -43.880  56.985 -55.020  1.00  0.00     0.235 C 
HETATM   21  C   UNL     1     -44.304  55.901 -54.042  1.00  0.00     0.035 C 
BRANCH  18  22
HETATM   22  C   UNL     1     -42.774  57.554 -57.148  1.00  0.00     0.278 C 
BRANCH  22  23
HETATM   23  C   UNL     1     -43.588  58.124 -58.269  1.00  0.00     0.028 A 
HETATM   24  C   UNL     1     -43.724  57.507 -59.521  1.00  0.00     0.045 A 
HETATM   25 CL   UNL     1     -43.001  55.979 -59.868  1.00  0.00    -0.084 Cl
HETATM   26  C   UNL     1     -44.480  58.109 -60.532  1.00  0.00     0.024 A 
HETATM   27  C   UNL     1     -45.111  59.333 -60.305  1.00  0.00     0.005 A 
HETATM   28  C   UNL     1     -44.994  59.951 -59.064  1.00  0.00     0.043 A 
HETATM   29  C   UNL     1     -44.241  59.343 -58.065  1.00  0.00     0.126 A 
HETATM   30  F   UNL     1     -44.155  59.927 -56.862  1.00  0.00    -0.205 F 
ENDBRANCH  22  23
ENDBRANCH  18  22
ENDBRANCH   1  15
BRANCH   5  31
HETATM   31  C   UNL     1     -41.735  58.179 -50.977  1.00  0.00     0.168 C 
BRANCH  31  32
HETATM   32  C   UNL     1     -42.636  59.332 -51.426  1.00  0.00     0.140 C 
HETATM   33  O   UNL     1     -42.395  60.488 -50.601  1.00  0.00    -0.384 OA
HETATM   34  C   UNL     1     -43.649  60.931 -50.063  1.00  0.00     0.168 C 
HETATM   35  C   UNL     1     -44.723  60.326 -50.937  1.00  0.00     0.029 C 
HETATM   36  C   UNL     1     -44.115  58.991 -51.283  1.00  0.00     0.036 C 
ENDBRANCH  31  32
ENDBRANCH   5  31
TORSDOF 6
ENDMDL
MODEL 5
REMARK VINA RESULT:      -8.0      3.199      6.729
REMARK  6 active torsions:
REMARK  status: ('A' for Active; 'I' for Inactive)
REMARK    1  A    between atoms: C_3  and  C_4 
REMARK    2  A    between atoms: C_4  and  C_5 
REMARK    3  A    between atoms: N_8  and  C_10 
REMARK    4  A    between atoms: C_10  and  C_11 
REMARK    5  A    between atoms: N_24  and  C_25 
REMARK    6  A    between atoms: C_25  and  C_26 
ROOT
HETATM    1  C   UNL     1     -42.389  58.517 -51.687  1.00  0.00     0.149 C 
HETATM    2  N   UNL     1     -43.340  57.483 -52.079  1.00  0.00    -0.220 NA
HETATM    3  C   UNL     1     -43.179  56.336 -51.343  1.00  0.00     0.304 C 
HETATM    4  O   UNL     1     -43.926  55.378 -51.437  1.00  0.00    -0.253 OA
HETATM    5  N   UNL     1     -42.068  56.451 -50.578  1.00  0.00    -0.270 N 
HETATM    6  C   UNL     1     -41.562  57.720 -50.653  1.00  0.00     0.257 C 
HETATM    7  O   UNL     1     -40.563  58.139 -50.086  1.00  0.00    -0.270 OA
HETATM    8  H   UNL     1     -44.314  57.755 -52.204  1.00  0.00     0.134 HD
ENDROOT
BRANCH   1   9
HETATM    9  C   UNL     1     -43.163  59.691 -51.095  1.00  0.00     0.067 A 
HETATM   10  C   UNL     1     -42.543  60.828 -50.583  1.00  0.00     0.030 A 
HETATM   11  C   UNL     1     -43.339  61.880 -50.130  1.00  0.00     0.003 A 
HETATM   12  C   UNL     1     -44.723  61.781 -50.205  1.00  0.00     0.019 A 
HETATM   13  C   UNL     1     -45.266  60.626 -50.734  1.00  0.00     0.117 A 
HETATM   14  N   UNL     1     -44.525  59.590 -51.190  1.00  0.00    -0.263 NA
ENDBRANCH   1   9
BRANCH   1  15
HETATM   15  C   UNL     1     -41.477  58.980 -52.881  1.00  0.00     0.028 C 
HETATM   16  C   UNL     1     -42.135  59.968 -53.861  1.00  0.00     0.035 C 
HETATM   17  C   UNL     1     -43.231  59.340 -54.707  1.00  0.00     0.235 C 
HETATM   18  N   UNL     1     -42.733  58.114 -55.439  1.00  0.00    -0.067 N 
HETATM   19  H   UNL     1     -42.150  58.449 -56.219  1.00  0.00     0.280 HD
HETATM   20  C   UNL     1     -41.890  57.149 -54.641  1.00  0.00     0.235 C 
HETATM   21  C   UNL     1     -40.883  57.851 -53.745  1.00  0.00     0.035 C 
BRANCH  18  22
HETATM   22  C   UNL     1     -43.886  57.334 -56.076  1.00  0.00     0.278 C 
BRANCH  22  23
HETATM   23  C   UNL     1     -43.819  57.183 -57.565  1.00  0.00     0.028 A 
HETATM   24  C   UNL     1     -44.307  58.140 -58.465  1.00  0.00     0.045 A 
HETATM   25 CL   UNL     1     -44.989  59.632 -57.929  1.00  0.00    -0.084 Cl
HETATM   26  C   UNL     1     -44.235  57.921 -59.845  1.00  0.00     0.024 A 
HETATM   27  C   UNL     1     -43.671  56.746 -60.342  1.00  0.00     0.005 A 
HETATM   28  C   UNL     1     -43.171  55.792 -59.460  1.00  0.00     0.043 A 
HETATM   29  C   UNL     1     -43.248  56.020 -58.090  1.00  0.00     0.126 A 
HETATM   30  F   UNL     1     -42.739  55.112 -57.246  1.00  0.00    -0.205 F 
ENDBRANCH  22  23
ENDBRANCH  18  22
ENDBRANCH   1  15
BRANCH   5  31
HETATM   31  C   UNL     1     -41.558  55.374 -49.745  1.00  0.00     0.168 C 
BRANCH  31  32
HETATM   32  C   UNL     1     -40.434  54.587 -50.423  1.00  0.00     0.140 C 
HETATM   33  O   UNL     1     -40.641  54.572 -51.849  1.00  0.00    -0.384 OA
HETATM   34  C   UNL     1     -40.620  53.209 -52.297  1.00  0.00     0.168 C 
HETATM   35  C   UNL     1     -39.930  52.417 -51.210  1.00  0.00     0.029 C 
HETATM   36  C   UNL     1     -40.400  53.132 -49.970  1.00  0.00     0.036 C 
ENDBRANCH  31  32
ENDBRANCH   5  31
TORSDOF 6
ENDMDL
MODEL 6
REMARK VINA RESULT:      -7.9      3.363      6.498
REMARK  6 active torsions:
REMARK  status: ('A' for Active; 'I' for Inactive)
REMARK    1  A    between atoms: C_3  and  C_4 
REMARK    2  A    between atoms: C_4  and  C_5 
REMARK    3  A    between atoms: N_8  and  C_10 
REMARK    4  A    between atoms: C_10  and  C_11 
REMARK    5  A    between atoms: N_24  and  C_25 
REMARK    6  A    between atoms: C_25  and  C_26 
ROOT
HETATM    1  C   UNL     1     -42.199  56.055 -52.385  1.00  0.00     0.149 C 
HETATM    2  N   UNL     1     -41.199  56.753 -53.184  1.00  0.00    -0.220 NA
HETATM    3  C   UNL     1     -41.276  58.114 -53.024  1.00  0.00     0.304 C 
HETATM    4  O   UNL     1     -40.477  58.886 -53.523  1.00  0.00    -0.253 OA
HETATM    5  N   UNL     1     -42.374  58.413 -52.291  1.00  0.00    -0.270 N 
HETATM    6  C   UNL     1     -42.954  57.273 -51.807  1.00  0.00     0.257 C 
HETATM    7  O   UNL     1     -43.963  57.205 -51.118  1.00  0.00    -0.270 OA
HETATM    8  H   UNL     1     -40.245  56.393 -53.174  1.00  0.00     0.134 HD
ENDROOT
BRANCH   1   9
HETATM    9  C   UNL     1     -41.482  55.210 -51.336  1.00  0.00     0.067 A 
HETATM   10  C   UNL     1     -40.619  54.168 -51.662  1.00  0.00     0.030 A 
HETATM   11  C   UNL     1     -39.953  53.501 -50.634  1.00  0.00     0.003 A 
HETATM   12  C   UNL     1     -40.154  53.889 -49.315  1.00  0.00     0.019 A 
HETATM   13  C   UNL     1     -41.019  54.939 -49.070  1.00  0.00     0.117 A 
HETATM   14  N   UNL     1     -41.674  55.613 -50.042  1.00  0.00    -0.263 NA
ENDBRANCH   1   9
BRANCH   1  15
HETATM   15  C   UNL     1     -43.163  55.175 -53.262  1.00  0.00     0.028 C 
HETATM   16  C   UNL     1     -42.474  54.345 -54.360  1.00  0.00     0.035 C 
HETATM   17  C   UNL     1     -41.920  55.188 -55.496  1.00  0.00     0.235 C 
HETATM   18  N   UNL     1     -42.983  56.083 -56.093  1.00  0.00    -0.067 N 
HETATM   19  H   UNL     1     -43.590  55.482 -56.668  1.00  0.00     0.280 HD
HETATM   20  C   UNL     1     -43.877  56.809 -55.117  1.00  0.00     0.235 C 
HETATM   21  C   UNL     1     -44.313  55.932 -53.955  1.00  0.00     0.035 C 
BRANCH  18  22
HETATM   22  C   UNL     1     -42.377  57.113 -57.049  1.00  0.00     0.278 C 
BRANCH  22  23
HETATM   23  C   UNL     1     -43.258  57.538 -58.183  1.00  0.00     0.028 A 
HETATM   24  C   UNL     1     -43.953  58.755 -58.213  1.00  0.00     0.045 A 
HETATM   25 CL   UNL     1     -43.803  59.922 -56.949  1.00  0.00    -0.084 Cl
HETATM   26  C   UNL     1     -44.781  59.076 -59.293  1.00  0.00     0.024 A 
HETATM   27  C   UNL     1     -44.924  58.187 -60.359  1.00  0.00     0.005 A 
HETATM   28  C   UNL     1     -44.231  56.979 -60.349  1.00  0.00     0.043 A 
HETATM   29  C   UNL     1     -43.410  56.671 -59.269  1.00  0.00     0.126 A 
HETATM   30  F   UNL     1     -42.723  55.521 -59.277  1.00  0.00    -0.205 F 
ENDBRANCH  22  23
ENDBRANCH  18  22
ENDBRANCH   1  15
BRANCH   5  31
HETATM   31  C   UNL     1     -42.801  59.775 -52.014  1.00  0.00     0.168 C 
BRANCH  31  32
HETATM   32  C   UNL     1     -43.569  60.400 -53.181  1.00  0.00     0.140 C 
HETATM   33  O   UNL     1     -43.665  61.825 -52.993  1.00  0.00    -0.384 OA
HETATM   34  C   UNL     1     -45.047  62.202 -53.081  1.00  0.00     0.168 C 
HETATM   35  C   UNL     1     -45.751  61.069 -53.791  1.00  0.00     0.029 C 
HETATM   36  C   UNL     1     -44.996  59.872 -53.274  1.00  0.00     0.036 C 
ENDBRANCH  31  32
ENDBRANCH   5  31
TORSDOF 6
ENDMDL
MODEL 7
REMARK VINA RESULT:      -7.8      3.172      6.957
REMARK  6 active torsions:
REMARK  status: ('A' for Active; 'I' for Inactive)
REMARK    1  A    between atoms: C_3  and  C_4 
REMARK    2  A    between atoms: C_4  and  C_5 
REMARK    3  A    between atoms: N_8  and  C_10 
REMARK    4  A    between atoms: C_10  and  C_11 
REMARK    5  A    between atoms: N_24  and  C_25 
REMARK    6  A    between atoms: C_25  and  C_26 
ROOT
HETATM    1  C   UNL     1     -42.534  56.151 -53.002  1.00  0.00     0.149 C 
HETATM    2  N   UNL     1     -41.622  56.933 -53.828  1.00  0.00    -0.220 NA
HETATM    3  C   UNL     1     -41.375  58.170 -53.286  1.00  0.00     0.304 C 
HETATM    4  O   UNL     1     -40.571  58.952 -53.760  1.00  0.00    -0.253 OA
HETATM    5  N   UNL     1     -42.188  58.357 -52.220  1.00  0.00    -0.270 N 
HETATM    6  C   UNL     1     -42.866  57.206 -51.924  1.00  0.00     0.257 C 
HETATM    7  O   UNL     1     -43.680  57.052 -51.024  1.00  0.00    -0.270 OA
HETATM    8  H   UNL     1     -40.788  56.470 -54.187  1.00  0.00     0.134 HD
ENDROOT
BRANCH   1   9
HETATM    9  C   UNL     1     -41.786  54.931 -52.473  1.00  0.00     0.067 A 
HETATM   10  C   UNL     1     -40.734  54.330 -53.157  1.00  0.00     0.030 A 
HETATM   11  C   UNL     1     -40.065  53.263 -52.557  1.00  0.00     0.003 A 
HETATM   12  C   UNL     1     -40.451  52.828 -51.295  1.00  0.00     0.019 A 
HETATM   13  C   UNL     1     -41.498  53.480 -50.673  1.00  0.00     0.117 A 
HETATM   14  N   UNL     1     -42.163  54.522 -51.221  1.00  0.00    -0.263 NA
ENDBRANCH   1   9
BRANCH   1  15
HETATM   15  C   UNL     1     -43.836  55.728 -53.777  1.00  0.00     0.028 C 
HETATM   16  C   UNL     1     -43.644  54.608 -54.816  1.00  0.00     0.035 C 
HETATM   17  C   UNL     1     -42.846  55.045 -56.034  1.00  0.00     0.235 C 
HETATM   18  N   UNL     1     -43.446  56.275 -56.679  1.00  0.00    -0.067 N 
HETATM   19  H   UNL     1     -44.287  55.965 -57.185  1.00  0.00     0.280 HD
HETATM   20  C   UNL     1     -43.874  57.383 -55.747  1.00  0.00     0.235 C 
HETATM   21  C   UNL     1     -44.579  56.865 -54.504  1.00  0.00     0.035 C 
BRANCH  18  22
HETATM   22  C   UNL     1     -42.509  56.868 -57.734  1.00  0.00     0.278 C 
BRANCH  22  23
HETATM   23  C   UNL     1     -43.118  57.906 -58.627  1.00  0.00     0.028 A 
HETATM   24  C   UNL     1     -44.190  57.652 -59.493  1.00  0.00     0.045 A 
HETATM   25 CL   UNL     1     -44.958  56.108 -59.566  1.00  0.00    -0.084 Cl
HETATM   26  C   UNL     1     -44.693  58.663 -60.319  1.00  0.00     0.024 A 
HETATM   27  C   UNL     1     -44.132  59.941 -60.287  1.00  0.00     0.005 A 
HETATM   28  C   UNL     1     -43.074  60.210 -59.424  1.00  0.00     0.043 A 
HETATM   29  C   UNL     1     -42.584  59.197 -58.607  1.00  0.00     0.126 A 
HETATM   30  F   UNL     1     -41.585  59.469 -57.756  1.00  0.00    -0.205 F 
ENDBRANCH  22  23
ENDBRANCH  18  22
ENDBRANCH   1  15
BRANCH   5  31
HETATM   31  C   UNL     1     -42.247  59.602 -51.472  1.00  0.00     0.168 C 
BRANCH  31  32
HETATM   32  C   UNL     1     -43.435  60.478 -51.879  1.00  0.00     0.140 C 
HETATM   33  O   UNL     1     -44.593  60.119 -51.100  1.00  0.00    -0.384 OA
HETATM   34  C   UNL     1     -45.674  59.834 -52.000  1.00  0.00     0.168 C 
HETATM   35  C   UNL     1     -45.308  60.474 -53.319  1.00  0.00     0.029 C 
HETATM   36  C   UNL     1     -43.813  60.285 -53.342  1.00  0.00     0.036 C 
ENDBRANCH  31  32
ENDBRANCH   5  31
TORSDOF 6
ENDMDL
MODEL 8
REMARK VINA RESULT:      -7.8      3.204      7.311
REMARK  6 active torsions:
REMARK  status: ('A' for Active; 'I' for Inactive)
REMARK    1  A    between atoms: C_3  and  C_4 
REMARK    2  A    between atoms: C_4  and  C_5 
REMARK    3  A    between atoms: N_8  and  C_10 
REMARK    4  A    between atoms: C_10  and  C_11 
REMARK    5  A    between atoms: N_24  and  C_25 
REMARK    6  A    between atoms: C_25  and  C_26 
ROOT
HETATM    1  C   UNL     1     -43.104  56.343 -55.872  1.00  0.00     0.149 C 
HETATM    2  N   UNL     1     -42.009  56.979 -55.149  1.00  0.00    -0.220 NA
HETATM    3  C   UNL     1     -41.265  56.067 -54.442  1.00  0.00     0.304 C 
HETATM    4  O   UNL     1     -40.248  56.364 -53.842  1.00  0.00    -0.253 OA
HETATM    5  N   UNL     1     -41.875  54.859 -54.497  1.00  0.00    -0.270 N 
HETATM    6  C   UNL     1     -42.931  54.893 -55.367  1.00  0.00     0.257 C 
HETATM    7  O   UNL     1     -43.685  53.967 -55.631  1.00  0.00    -0.270 OA
HETATM    8  H   UNL     1     -41.446  57.667 -55.647  1.00  0.00     0.134 HD
ENDROOT
BRANCH   1   9
HETATM    9  C   UNL     1     -42.864  56.515 -57.369  1.00  0.00     0.067 A 
HETATM   10  C   UNL     1     -43.418  55.673 -58.328  1.00  0.00     0.030 A 
HETATM   11  C   UNL     1     -43.199  55.955 -59.676  1.00  0.00     0.003 A 
HETATM   12  C   UNL     1     -42.447  57.066 -60.036  1.00  0.00     0.019 A 
HETATM   13  C   UNL     1     -41.938  57.862 -59.028  1.00  0.00     0.117 A 
HETATM   14  N   UNL     1     -42.137  57.624 -57.712  1.00  0.00    -0.263 NA
ENDBRANCH   1   9
BRANCH   1  15
HETATM   15  C   UNL     1     -44.510  56.907 -55.452  1.00  0.00     0.028 C 
HETATM   16  C   UNL     1     -44.913  58.229 -56.130  1.00  0.00     0.035 C 
HETATM   17  C   UNL     1     -44.096  59.422 -55.662  1.00  0.00     0.235 C 
HETATM   18  N   UNL     1     -44.131  59.562 -54.156  1.00  0.00    -0.067 N 
HETATM   19  H   UNL     1     -45.058  59.942 -53.914  1.00  0.00     0.280 HD
HETATM   20  C   UNL     1     -43.953  58.293 -53.357  1.00  0.00     0.235 C 
HETATM   21  C   UNL     1     -44.721  57.119 -53.941  1.00  0.00     0.035 C 
BRANCH  18  22
HETATM   22  C   UNL     1     -43.109  60.589 -53.665  1.00  0.00     0.278 C 
BRANCH  22  23
HETATM   23  C   UNL     1     -42.312  60.182 -52.464  1.00  0.00     0.028 A 
HETATM   24  C   UNL     1     -42.727  60.406 -51.143  1.00  0.00     0.045 A 
HETATM   25 CL   UNL     1     -44.251  61.129 -50.777  1.00  0.00    -0.084 Cl
HETATM   26  C   UNL     1     -41.919  60.022 -50.068  1.00  0.00     0.024 A 
HETATM   27  C   UNL     1     -40.687  59.408 -50.298  1.00  0.00     0.005 A 
HETATM   28  C   UNL     1     -40.267  59.169 -51.603  1.00  0.00     0.043 A 
HETATM   29  C   UNL     1     -41.079  59.554 -52.664  1.00  0.00     0.126 A 
HETATM   30  F   UNL     1     -40.683  59.296 -53.918  1.00  0.00    -0.205 F 
ENDBRANCH  22  23
ENDBRANCH  18  22
ENDBRANCH   1  15
BRANCH   5  31
HETATM   31  C   UNL     1     -41.397  53.691 -53.775  1.00  0.00     0.168 C 
BRANCH  31  32
HETATM   32  C   UNL     1     -41.955  53.609 -52.353  1.00  0.00     0.140 C 
HETATM   33  O   UNL     1     -43.160  54.393 -52.257  1.00  0.00    -0.384 OA
HETATM   34  C   UNL     1     -43.018  55.312 -51.164  1.00  0.00     0.168 C 
HETATM   35  C   UNL     1     -41.908  54.768 -50.294  1.00  0.00     0.029 C 
HETATM   36  C   UNL     1     -40.982  54.172 -51.324  1.00  0.00     0.036 C 
ENDBRANCH  31  32
ENDBRANCH   5  31
TORSDOF 6
ENDMDL
MODEL 9
REMARK VINA RESULT:      -7.7      3.270      7.391
REMARK  6 active torsions:
REMARK  status: ('A' for Active; 'I' for Inactive)
REMARK    1  A    between atoms: C_3  and  C_4 
REMARK    2  A    between atoms: C_4  and  C_5 
REMARK    3  A    between atoms: N_8  and  C_10 
REMARK    4  A    between atoms: C_10  and  C_11 
REMARK    5  A    between atoms: N_24  and  C_25 
REMARK    6  A    between atoms: C_25  and  C_26 
ROOT
HETATM    1  C   UNL     1     -41.866  55.009 -53.250  1.00  0.00     0.149 C 
HETATM    2  N   UNL     1     -41.078  56.027 -53.935  1.00  0.00    -0.220 NA
HETATM    3  C   UNL     1     -40.917  57.152 -53.165  1.00  0.00     0.304 C 
HETATM    4  O   UNL     1     -40.216  58.091 -53.500  1.00  0.00    -0.253 OA
HETATM    5  N   UNL     1     -41.682  57.043 -52.053  1.00  0.00    -0.270 N 
HETATM    6  C   UNL     1     -42.232  55.793 -51.969  1.00  0.00     0.257 C 
HETATM    7  O   UNL     1     -42.976  55.383 -51.090  1.00  0.00    -0.270 OA
HETATM    8  H   UNL     1     -40.226  55.732 -54.410  1.00  0.00     0.134 HD
ENDROOT
BRANCH   1   9
HETATM    9  C   UNL     1     -40.979  53.792 -53.004  1.00  0.00     0.067 A 
HETATM   10  C   UNL     1     -40.596  53.376 -51.733  1.00  0.00     0.030 A 
HETATM   11  C   UNL     1     -39.844  52.208 -51.606  1.00  0.00     0.003 A 
HETATM   12  C   UNL     1     -39.499  51.483 -52.740  1.00  0.00     0.019 A 
HETATM   13  C   UNL     1     -39.923  51.952 -53.968  1.00  0.00     0.117 A 
HETATM   14  N   UNL     1     -40.660  53.075 -54.127  1.00  0.00    -0.263 NA
ENDBRANCH   1   9
BRANCH   1  15
HETATM   15  C   UNL     1     -43.164  54.616 -54.045  1.00  0.00     0.028 C 
HETATM   16  C   UNL     1     -42.954  54.338 -55.544  1.00  0.00     0.035 C 
HETATM   17  C   UNL     1     -42.623  55.584 -56.349  1.00  0.00     0.235 C 
HETATM   18  N   UNL     1     -43.660  56.667 -56.147  1.00  0.00    -0.067 N 
HETATM   19  H   UNL     1     -44.491  56.387 -56.686  1.00  0.00     0.280 HD
HETATM   20  C   UNL     1     -44.115  56.907 -54.728  1.00  0.00     0.235 C 
HETATM   21  C   UNL     1     -44.331  55.617 -53.954  1.00  0.00     0.035 C 
BRANCH  18  22
HETATM   22  C   UNL     1     -43.200  58.002 -56.738  1.00  0.00     0.278 C 
BRANCH  22  23
HETATM   23  C   UNL     1     -43.847  59.222 -56.158  1.00  0.00     0.028 A 
HETATM   24  C   UNL     1     -45.202  59.539 -56.333  1.00  0.00     0.045 A 
HETATM   25 CL   UNL     1     -46.277  58.502 -57.197  1.00  0.00    -0.084 Cl
HETATM   26  C   UNL     1     -45.734  60.710 -55.784  1.00  0.00     0.024 A 
HETATM   27  C   UNL     1     -44.922  61.577 -55.052  1.00  0.00     0.005 A 
HETATM   28  C   UNL     1     -43.579  61.269 -54.861  1.00  0.00     0.043 A 
HETATM   29  C   UNL     1     -43.060  60.102 -55.411  1.00  0.00     0.126 A 
HETATM   30  F   UNL     1     -41.772  59.795 -55.199  1.00  0.00    -0.205 F 
ENDBRANCH  22  23
ENDBRANCH  18  22
ENDBRANCH   1  15
BRANCH   5  31
HETATM   31  C   UNL     1     -41.814  58.104 -51.068  1.00  0.00     0.168 C 
BRANCH  31  32
HETATM   32  C   UNL     1     -42.604  59.303 -51.597  1.00  0.00     0.140 C 
HETATM   33  O   UNL     1     -42.484  60.408 -50.680  1.00  0.00    -0.384 OA
HETATM   34  C   UNL     1     -43.802  60.858 -50.336  1.00  0.00     0.168 C 
HETATM   35  C   UNL     1     -44.724  60.329 -51.411  1.00  0.00     0.029 C 
HETATM   36  C   UNL     1     -44.092  58.997 -51.723  1.00  0.00     0.036 C 
ENDBRANCH  31  32
ENDBRANCH   5  31
TORSDOF 6
ENDMDL
MODEL 10
REMARK VINA RESULT:      -7.6      3.126      7.124
REMARK  6 active torsions:
REMARK  status: ('A' for Active; 'I' for Inactive)
REMARK    1  A    between atoms: C_3  and  C_4 
REMARK    2  A    between atoms: C_4  and  C_5 
REMARK    3  A    between atoms: N_8  and  C_10 
REMARK    4  A    between atoms: C_10  and  C_11 
REMARK    5  A    between atoms: N_24  and  C_25 
REMARK    6  A    between atoms: C_25  and  C_26 
ROOT
HETATM    1  C   UNL     1     -42.349  57.189 -52.120  1.00  0.00     0.149 C 
HETATM    2  N   UNL     1     -43.161  56.080 -52.604  1.00  0.00    -0.220 NA
HETATM    3  C   UNL     1     -42.963  54.941 -51.864  1.00  0.00     0.304 C 
HETATM    4  O   UNL     1     -43.607  53.920 -52.033  1.00  0.00    -0.253 OA
HETATM    5  N   UNL     1     -41.941  55.145 -51.000  1.00  0.00    -0.270 N 
HETATM    6  C   UNL     1     -41.550  56.456 -51.020  1.00  0.00     0.257 C 
HETATM    7  O   UNL     1     -40.649  56.956 -50.361  1.00  0.00    -0.270 OA
HETATM    8  H   UNL     1     -44.141  56.264 -52.817  1.00  0.00     0.134 HD
ENDROOT
BRANCH   1   9
HETATM    9  C   UNL     1     -43.278  58.280 -51.594  1.00  0.00     0.067 A 
HETATM   10  C   UNL     1     -44.663  58.147 -51.564  1.00  0.00     0.030 A 
HETATM   11  C   UNL     1     -45.423  59.169 -50.997  1.00  0.00     0.003 A 
HETATM   12  C   UNL     1     -44.792  60.289 -50.471  1.00  0.00     0.019 A 
HETATM   13  C   UNL     1     -43.412  60.346 -50.528  1.00  0.00     0.117 A 
HETATM   14  N   UNL     1     -42.644  59.371 -51.062  1.00  0.00    -0.263 NA
ENDBRANCH   1   9
BRANCH   1  15
HETATM   15  C   UNL     1     -41.379  57.751 -53.223  1.00  0.00     0.028 C 
HETATM   16  C   UNL     1     -41.889  58.997 -53.969  1.00  0.00     0.035 C 
HETATM   17  C   UNL     1     -43.061  58.710 -54.893  1.00  0.00     0.235 C 
HETATM   18  N   UNL     1     -42.741  57.599 -55.867  1.00  0.00    -0.067 N 
HETATM   19  H   UNL     1     -42.115  57.999 -56.580  1.00  0.00     0.280 HD
HETATM   20  C   UNL     1     -42.045  56.385 -55.299  1.00  0.00     0.235 C 
HETATM   21  C   UNL     1     -40.950  56.747 -54.309  1.00  0.00     0.035 C 
BRANCH  18  22
HETATM   22  C   UNL     1     -43.992  57.130 -56.615  1.00  0.00     0.278 C 
BRANCH  22  23
HETATM   23  C   UNL     1     -44.216  57.759 -57.956  1.00  0.00     0.028 A 
HETATM   24  C   UNL     1     -43.668  57.263 -59.147  1.00  0.00     0.045 A 
HETATM   25 CL   UNL     1     -42.720  55.821 -59.184  1.00  0.00    -0.084 Cl
HETATM   26  C   UNL     1     -43.897  57.917 -60.362  1.00  0.00     0.024 A 
HETATM   27  C   UNL     1     -44.677  59.073 -60.403  1.00  0.00     0.005 A 
HETATM   28  C   UNL     1     -45.237  59.571 -59.230  1.00  0.00     0.043 A 
HETATM   29  C   UNL     1     -45.003  58.912 -58.027  1.00  0.00     0.126 A 
HETATM   30  F   UNL     1     -45.568  59.378 -56.905  1.00  0.00    -0.205 F 
ENDBRANCH  22  23
ENDBRANCH  18  22
ENDBRANCH   1  15
BRANCH   5  31
HETATM   31  C   UNL     1     -41.413  54.106 -50.131  1.00  0.00     0.168 C 
BRANCH  31  32
HETATM   32  C   UNL     1     -40.197  53.398 -50.732  1.00  0.00     0.140 C 
HETATM   33  O   UNL     1     -40.162  53.616 -52.156  1.00  0.00    -0.384 OA
HETATM   34  C   UNL     1     -40.077  52.341 -52.809  1.00  0.00     0.168 C 
HETATM   35  C   UNL     1     -39.586  51.363 -51.767  1.00  0.00     0.029 C 
HETATM   36  C   UNL     1     -40.252  51.889 -50.521  1.00  0.00     0.036 C 
ENDBRANCH  31  32
ENDBRANCH   5  31
TORSDOF 6
ENDMDL
