MODEL 1
REMARK VINA RESULT:      -8.9      0.000      0.000
REMARK  7 active torsions:
REMARK  status: ('A' for Active; 'I' for Inactive)
REMARK    1  A    between atoms: C_2  and  C_3 
REMARK    2  A    between atoms: C_3  and  N_4 
REMARK       I    between atoms: N_4  and  C_5 
REMARK    3  A    between atoms: C_5  and  C_6 
REMARK    4  A    between atoms: C_7  and  N_8 
REMARK    5  A    between atoms: N_9  and  N_10 
REMARK    6  A    between atoms: C_11  and  C_12 
REMARK    7  A    between atoms: C_13  and  O_14 
ROOT
HETATM    1  C   UNL     1     -42.240  55.765 -51.759  1.00  0.00     0.104 C 
HETATM    2  C   UNL     1     -43.287  56.065 -52.623  1.00  0.00     0.123 C 
HETATM    3  N   UNL     1     -43.044  55.383 -53.813  1.00  0.00    -0.202 N 
HETATM    4  C   UNL     1     -42.238  54.307 -53.512  1.00  0.00     0.183 A 
HETATM    5  C   UNL     1     -41.665  54.565 -52.267  1.00  0.00     0.124 A 
HETATM    6  N   UNL     1     -40.704  53.752 -51.762  1.00  0.00    -0.242 NA
HETATM    7  C   UNL     1     -40.412  52.682 -52.520  1.00  0.00     0.086 A 
HETATM    8  C   UNL     1     -41.031  52.431 -53.774  1.00  0.00     0.088 A 
HETATM    9  N   UNL     1     -41.941  53.258 -54.314  1.00  0.00    -0.225 NA
HETATM   10  C   UNL     1     -39.464  51.781 -52.050  1.00  0.00     0.034 A 
HETATM   11  C   UNL     1     -39.121  50.634 -52.768  1.00  0.00     0.002 A 
HETATM   12  C   UNL     1     -39.738  50.383 -53.986  1.00  0.00     0.002 A 
HETATM   13  C   UNL     1     -40.683  51.285 -54.477  1.00  0.00     0.034 A 
ENDROOT
BRANCH   3  14
HETATM   14  N   UNL     1     -43.461  55.742 -55.083  1.00  0.00    -0.176 NA
HETATM   15  C   UNL     1     -42.581  56.469 -55.706  1.00  0.00     0.153 C 
BRANCH  15  16
HETATM   16  C   UNL     1     -42.769  56.951 -57.082  1.00  0.00     0.017 A 
HETATM   17  C   UNL     1     -43.283  56.141 -58.096  1.00  0.00     0.077 A 
HETATM   18  C   UNL     1     -43.374  56.632 -59.397  1.00  0.00     0.039 A 
HETATM   19  C   UNL     1     -42.961  57.936 -59.683  1.00  0.00     0.022 A 
HETATM   20  C   UNL     1     -42.462  58.745 -58.662  1.00  0.00     0.012 A 
HETATM   21 BR   UNL     1     -41.910  60.513 -59.045  1.00  0.00    -0.051 Br
HETATM   22  C   UNL     1     -42.359  58.261 -57.362  1.00  0.00     0.034 A 
BRANCH  17  23
HETATM   23  O   UNL     1     -43.691  54.855 -57.885  1.00  0.00    -0.360 OA
HETATM   24  H   UNL     1     -43.765  54.408 -58.760  1.00  0.00     0.217 HD
ENDBRANCH  17  23
ENDBRANCH  15  16
ENDBRANCH   3  14
BRANCH   2  25
HETATM   25  N   UNL     1     -44.333  56.941 -52.493  1.00  0.00    -0.286 NA
HETATM   26  H   UNL     1     -44.473  57.594 -53.270  1.00  0.00     0.125 HD
HETATM   27  H   UNL     1     -45.238  56.535 -52.233  1.00  0.00     0.125 HD
ENDBRANCH   2  25
BRANCH   1  28
HETATM   28  C   UNL     1     -41.833  56.558 -50.605  1.00  0.00     0.257 C 
HETATM   29  N   UNL     1     -41.918  57.919 -50.841  1.00  0.00    -0.356 N 
HETATM   30  H   UNL     1     -42.143  58.171 -51.797  1.00  0.00     0.162 HD
HETATM   31  O   UNL     1     -41.375  56.086 -49.572  1.00  0.00    -0.267 OA
BRANCH  29  32
HETATM   32  C   UNL     1     -41.190  58.893 -50.061  1.00  0.00     0.126 C 
BRANCH  32  33
HETATM   33  C   UNL     1     -40.120  59.634 -50.883  1.00  0.00    -0.005 C 
HETATM   34  C   UNL     1     -39.998  59.053 -52.292  1.00  0.00     0.011 C 
HETATM   35  C   UNL     1     -38.750  59.651 -50.196  1.00  0.00     0.011 C 
ENDBRANCH  32  33
ENDBRANCH  29  32
ENDBRANCH   1  28
TORSDOF 7
ENDMDL
MODEL 2
REMARK VINA RESULT:      -8.6      3.310      8.175
REMARK  7 active torsions:
REMARK  status: ('A' for Active; 'I' for Inactive)
REMARK    1  A    between atoms: C_2  and  C_3 
REMARK    2  A    between atoms: C_3  and  N_4 
REMARK       I    between atoms: N_4  and  C_5 
REMARK    3  A    between atoms: C_5  and  C_6 
REMARK    4  A    between atoms: C_7  and  N_8 
REMARK    5  A    between atoms: N_9  and  N_10 
REMARK    6  A    between atoms: C_11  and  C_12 
REMARK    7  A    between atoms: C_13  and  O_14 
ROOT
HETATM    1  C   UNL     1     -44.113  57.470 -56.082  1.00  0.00     0.104 C 
HETATM    2  C   UNL     1     -43.493  56.258 -55.800  1.00  0.00     0.123 C 
HETATM    3  N   UNL     1     -43.050  56.323 -54.480  1.00  0.00    -0.202 N 
HETATM    4  C   UNL     1     -43.833  57.252 -53.830  1.00  0.00     0.183 A 
HETATM    5  C   UNL     1     -44.443  58.028 -54.814  1.00  0.00     0.124 A 
HETATM    6  N   UNL     1     -45.166  59.128 -54.484  1.00  0.00    -0.242 NA
HETATM    7  C   UNL     1     -45.283  59.353 -53.164  1.00  0.00     0.086 A 
HETATM    8  C   UNL     1     -44.672  58.528 -52.182  1.00  0.00     0.088 A 
HETATM    9  N   UNL     1     -43.905  57.472 -52.496  1.00  0.00    -0.225 NA
HETATM   10  C   UNL     1     -46.043  60.439 -52.747  1.00  0.00     0.034 A 
HETATM   11  C   UNL     1     -46.231  60.727 -51.394  1.00  0.00     0.002 A 
HETATM   12  C   UNL     1     -45.644  59.912 -50.436  1.00  0.00     0.002 A 
HETATM   13  C   UNL     1     -44.869  58.824 -50.840  1.00  0.00     0.034 A 
ENDROOT
BRANCH   3  14
HETATM   14  N   UNL     1     -41.980  55.647 -53.923  1.00  0.00    -0.176 NA
HETATM   15  C   UNL     1     -42.275  54.418 -53.618  1.00  0.00     0.153 C 
BRANCH  15  16
HETATM   16  C   UNL     1     -41.302  53.477 -53.044  1.00  0.00     0.017 A 
HETATM   17  C   UNL     1     -40.692  53.693 -51.807  1.00  0.00     0.077 A 
HETATM   18  C   UNL     1     -39.727  52.802 -51.345  1.00  0.00     0.039 A 
HETATM   19  C   UNL     1     -39.377  51.688 -52.114  1.00  0.00     0.022 A 
HETATM   20  C   UNL     1     -40.001  51.470 -53.343  1.00  0.00     0.012 A 
HETATM   21 BR   UNL     1     -39.535  49.961 -54.383  1.00  0.00    -0.051 Br
HETATM   22  C   UNL     1     -40.960  52.360 -53.817  1.00  0.00     0.034 A 
BRANCH  17  23
HETATM   23  O   UNL     1     -40.980  54.767 -51.014  1.00  0.00    -0.360 OA
HETATM   24  H   UNL     1     -40.944  55.579 -51.571  1.00  0.00     0.217 HD
ENDBRANCH  17  23
ENDBRANCH  15  16
ENDBRANCH   3  14
BRANCH   2  25
HETATM   25  N   UNL     1     -43.200  55.191 -56.609  1.00  0.00    -0.286 NA
HETATM   26  H   UNL     1     -42.988  54.310 -56.131  1.00  0.00     0.125 HD
HETATM   27  H   UNL     1     -43.857  55.005 -57.373  1.00  0.00     0.125 HD
ENDBRANCH   2  25
BRANCH   1  28
HETATM   28  C   UNL     1     -44.331  58.026 -57.413  1.00  0.00     0.257 C 
HETATM   29  N   UNL     1     -44.948  57.128 -58.267  1.00  0.00    -0.356 N 
HETATM   30  H   UNL     1     -45.063  56.194 -57.890  1.00  0.00     0.162 HD
HETATM   31  O   UNL     1     -43.932  59.126 -57.774  1.00  0.00    -0.267 OA
BRANCH  29  32
HETATM   32  C   UNL     1     -44.887  57.253 -59.705  1.00  0.00     0.126 C 
BRANCH  32  33
HETATM   33  C   UNL     1     -43.995  56.181 -60.357  1.00  0.00    -0.005 C 
HETATM   34  C   UNL     1     -44.484  54.771 -60.026  1.00  0.00     0.011 C 
HETATM   35  C   UNL     1     -42.517  56.332 -59.983  1.00  0.00     0.011 C 
ENDBRANCH  32  33
ENDBRANCH  29  32
ENDBRANCH   1  28
TORSDOF 7
ENDMDL
MODEL 3
REMARK VINA RESULT:      -8.6      1.408      1.653
REMARK  7 active torsions:
REMARK  status: ('A' for Active; 'I' for Inactive)
REMARK    1  A    between atoms: C_2  and  C_3 
REMARK    2  A    between atoms: C_3  and  N_4 
REMARK       I    between atoms: N_4  and  C_5 
REMARK    3  A    between atoms: C_5  and  C_6 
REMARK    4  A    between atoms: C_7  and  N_8 
REMARK    5  A    between atoms: N_9  and  N_10 
REMARK    6  A    between atoms: C_11  and  C_12 
REMARK    7  A    between atoms: C_13  and  O_14 
ROOT
HETATM    1  C   UNL     1     -42.275  55.752 -51.831  1.00  0.00     0.104 C 
HETATM    2  C   UNL     1     -43.329  56.018 -52.697  1.00  0.00     0.123 C 
HETATM    3  N   UNL     1     -43.082  55.312 -53.872  1.00  0.00    -0.202 N 
HETATM    4  C   UNL     1     -42.260  54.254 -53.550  1.00  0.00     0.183 A 
HETATM    5  C   UNL     1     -41.686  54.549 -52.314  1.00  0.00     0.124 A 
HETATM    6  N   UNL     1     -40.711  53.761 -51.795  1.00  0.00    -0.242 NA
HETATM    7  C   UNL     1     -40.407  52.677 -52.530  1.00  0.00     0.086 A 
HETATM    8  C   UNL     1     -41.028  52.389 -53.774  1.00  0.00     0.088 A 
HETATM    9  N   UNL     1     -41.952  53.191 -54.329  1.00  0.00    -0.225 NA
HETATM   10  C   UNL     1     -39.445  51.801 -52.042  1.00  0.00     0.034 A 
HETATM   11  C   UNL     1     -39.089  50.643 -52.736  1.00  0.00     0.002 A 
HETATM   12  C   UNL     1     -39.708  50.355 -53.945  1.00  0.00     0.002 A 
HETATM   13  C   UNL     1     -40.668  51.232 -54.452  1.00  0.00     0.034 A 
ENDROOT
BRANCH   3  14
HETATM   14  N   UNL     1     -43.509  55.635 -55.147  1.00  0.00    -0.176 NA
HETATM   15  C   UNL     1     -42.650  56.373 -55.786  1.00  0.00     0.153 C 
BRANCH  15  16
HETATM   16  C   UNL     1     -42.851  56.824 -57.171  1.00  0.00     0.017 A 
HETATM   17  C   UNL     1     -42.496  58.104 -57.601  1.00  0.00     0.077 A 
HETATM   18  C   UNL     1     -42.775  58.498 -58.908  1.00  0.00     0.039 A 
HETATM   19  C   UNL     1     -43.398  57.610 -59.789  1.00  0.00     0.022 A 
HETATM   20  C   UNL     1     -43.737  56.327 -59.356  1.00  0.00     0.012 A 
HETATM   21 BR   UNL     1     -44.575  55.121 -60.548  1.00  0.00    -0.051 Br
HETATM   22  C   UNL     1     -43.472  55.928 -58.050  1.00  0.00     0.034 A 
BRANCH  17  23
HETATM   23  O   UNL     1     -41.897  59.022 -56.787  1.00  0.00    -0.360 OA
HETATM   24  H   UNL     1     -40.963  58.744 -56.645  1.00  0.00     0.217 HD
ENDBRANCH  17  23
ENDBRANCH  15  16
ENDBRANCH   3  14
BRANCH   2  25
HETATM   25  N   UNL     1     -44.387  56.882 -52.582  1.00  0.00    -0.286 NA
HETATM   26  H   UNL     1     -45.215  56.657 -53.143  1.00  0.00     0.125 HD
HETATM   27  H   UNL     1     -44.685  57.114 -51.629  1.00  0.00     0.125 HD
ENDBRANCH   2  25
BRANCH   1  28
HETATM   28  C   UNL     1     -41.874  56.577 -50.697  1.00  0.00     0.257 C 
HETATM   29  N   UNL     1     -42.019  57.930 -50.950  1.00  0.00    -0.356 N 
HETATM   30  H   UNL     1     -42.276  58.159 -51.903  1.00  0.00     0.162 HD
HETATM   31  O   UNL     1     -41.374  56.139 -49.669  1.00  0.00    -0.267 OA
BRANCH  29  32
HETATM   32  C   UNL     1     -41.313  58.944 -50.199  1.00  0.00     0.126 C 
BRANCH  32  33
HETATM   33  C   UNL     1     -40.204  59.626 -51.020  1.00  0.00    -0.005 C 
HETATM   34  C   UNL     1     -40.062  58.991 -52.403  1.00  0.00     0.011 C 
HETATM   35  C   UNL     1     -38.852  59.636 -50.299  1.00  0.00     0.011 C 
ENDBRANCH  32  33
ENDBRANCH  29  32
ENDBRANCH   1  28
TORSDOF 7
ENDMDL
MODEL 4
REMARK VINA RESULT:      -8.5      1.222      1.533
REMARK  7 active torsions:
REMARK  status: ('A' for Active; 'I' for Inactive)
REMARK    1  A    between atoms: C_2  and  C_3 
REMARK    2  A    between atoms: C_3  and  N_4 
REMARK       I    between atoms: N_4  and  C_5 
REMARK    3  A    between atoms: C_5  and  C_6 
REMARK    4  A    between atoms: C_7  and  N_8 
REMARK    5  A    between atoms: N_9  and  N_10 
REMARK    6  A    between atoms: C_11  and  C_12 
REMARK    7  A    between atoms: C_13  and  O_14 
ROOT
HETATM    1  C   UNL     1     -42.519  56.197 -52.219  1.00  0.00     0.104 C 
HETATM    2  C   UNL     1     -43.526  56.350 -53.165  1.00  0.00     0.123 C 
HETATM    3  N   UNL     1     -43.190  55.549 -54.254  1.00  0.00    -0.202 N 
HETATM    4  C   UNL     1     -42.361  54.551 -53.789  1.00  0.00     0.183 A 
HETATM    5  C   UNL     1     -41.871  54.974 -52.554  1.00  0.00     0.124 A 
HETATM    6  N   UNL     1     -40.909  54.268 -51.909  1.00  0.00    -0.242 NA
HETATM    7  C   UNL     1     -40.533  53.133 -52.522  1.00  0.00     0.086 A 
HETATM    8  C   UNL     1     -41.070  52.713 -53.769  1.00  0.00     0.088 A 
HETATM    9  N   UNL     1     -41.979  53.432 -54.448  1.00  0.00    -0.225 NA
HETATM   10  C   UNL     1     -39.580  52.335 -51.902  1.00  0.00     0.034 A 
HETATM   11  C   UNL     1     -39.152  51.131 -52.464  1.00  0.00     0.002 A 
HETATM   12  C   UNL     1     -39.688  50.716 -53.675  1.00  0.00     0.002 A 
HETATM   13  C   UNL     1     -40.639  51.512 -54.315  1.00  0.00     0.034 A 
ENDROOT
BRANCH   3  14
HETATM   14  N   UNL     1     -43.547  55.742 -55.577  1.00  0.00    -0.176 NA
HETATM   15  C   UNL     1     -42.759  56.577 -56.186  1.00  0.00     0.153 C 
BRANCH  15  16
HETATM   16  C   UNL     1     -42.904  56.927 -57.607  1.00  0.00     0.017 A 
HETATM   17  C   UNL     1     -43.404  56.029 -58.552  1.00  0.00     0.077 A 
HETATM   18  C   UNL     1     -43.454  56.394 -59.896  1.00  0.00     0.039 A 
HETATM   19  C   UNL     1     -43.015  57.660 -60.295  1.00  0.00     0.022 A 
HETATM   20  C   UNL     1     -42.531  58.557 -59.343  1.00  0.00     0.012 A 
HETATM   21 BR   UNL     1     -41.943  60.274 -59.878  1.00  0.00    -0.051 Br
HETATM   22  C   UNL     1     -42.468  58.199 -58.000  1.00  0.00     0.034 A 
BRANCH  17  23
HETATM   23  O   UNL     1     -43.836  54.775 -58.230  1.00  0.00    -0.360 OA
HETATM   24  H   UNL     1     -44.476  54.483 -58.919  1.00  0.00     0.217 HD
ENDBRANCH  17  23
ENDBRANCH  15  16
ENDBRANCH   3  14
BRANCH   2  25
HETATM   25  N   UNL     1     -44.612  57.187 -53.192  1.00  0.00    -0.286 NA
HETATM   26  H   UNL     1     -44.469  58.122 -52.796  1.00  0.00     0.125 HD
HETATM   27  H   UNL     1     -45.095  57.277 -54.091  1.00  0.00     0.125 HD
ENDBRANCH   2  25
BRANCH   1  28
HETATM   28  C   UNL     1     -42.210  57.134 -51.145  1.00  0.00     0.257 C 
HETATM   29  N   UNL     1     -42.576  58.432 -51.453  1.00  0.00    -0.356 N 
HETATM   30  H   UNL     1     -42.903  58.568 -52.403  1.00  0.00     0.162 HD
HETATM   31  O   UNL     1     -41.607  56.834 -50.122  1.00  0.00    -0.267 OA
BRANCH  29  32
HETATM   32  C   UNL     1     -42.010  59.582 -50.784  1.00  0.00     0.126 C 
BRANCH  32  33
HETATM   33  C   UNL     1     -42.664  60.905 -51.223  1.00  0.00    -0.005 C 
HETATM   34  C   UNL     1     -43.348  61.606 -50.049  1.00  0.00     0.011 C 
HETATM   35  C   UNL     1     -43.651  60.724 -52.381  1.00  0.00     0.011 C 
ENDBRANCH  32  33
ENDBRANCH  29  32
ENDBRANCH   1  28
TORSDOF 7
ENDMDL
MODEL 5
REMARK VINA RESULT:      -8.2      3.150      6.773
REMARK  7 active torsions:
REMARK  status: ('A' for Active; 'I' for Inactive)
REMARK    1  A    between atoms: C_2  and  C_3 
REMARK    2  A    between atoms: C_3  and  N_4 
REMARK       I    between atoms: N_4  and  C_5 
REMARK    3  A    between atoms: C_5  and  C_6 
REMARK    4  A    between atoms: C_7  and  N_8 
REMARK    5  A    between atoms: N_9  and  N_10 
REMARK    6  A    between atoms: C_11  and  C_12 
REMARK    7  A    between atoms: C_13  and  O_14 
ROOT
HETATM    1  C   UNL     1     -42.962  58.415 -54.758  1.00  0.00     0.104 C 
HETATM    2  C   UNL     1     -41.748  57.833 -54.409  1.00  0.00     0.123 C 
HETATM    3  N   UNL     1     -41.656  56.631 -55.107  1.00  0.00    -0.202 N 
HETATM    4  C   UNL     1     -42.460  56.739 -56.220  1.00  0.00     0.183 A 
HETATM    5  C   UNL     1     -43.335  57.799 -55.986  1.00  0.00     0.124 A 
HETATM    6  N   UNL     1     -44.353  58.062 -56.844  1.00  0.00    -0.242 NA
HETATM    7  C   UNL     1     -44.397  57.272 -57.930  1.00  0.00     0.086 A 
HETATM    8  C   UNL     1     -43.475  56.216 -58.155  1.00  0.00     0.088 A 
HETATM    9  N   UNL     1     -42.499  55.906 -57.286  1.00  0.00    -0.225 NA
HETATM   10  C   UNL     1     -45.389  57.508 -58.874  1.00  0.00     0.034 A 
HETATM   11  C   UNL     1     -45.489  56.745 -60.039  1.00  0.00     0.002 A 
HETATM   12  C   UNL     1     -44.578  55.722 -60.264  1.00  0.00     0.002 A 
HETATM   13  C   UNL     1     -43.583  55.467 -59.319  1.00  0.00     0.034 A 
ENDROOT
BRANCH   3  14
HETATM   14  N   UNL     1     -40.954  55.499 -54.733  1.00  0.00    -0.176 NA
HETATM   15  C   UNL     1     -41.357  55.019 -53.594  1.00  0.00     0.153 C 
BRANCH  15  16
HETATM   16  C   UNL     1     -40.795  53.801 -52.992  1.00  0.00     0.017 A 
HETATM   17  C   UNL     1     -40.440  53.727 -51.644  1.00  0.00     0.077 A 
HETATM   18  C   UNL     1     -39.848  52.569 -51.146  1.00  0.00     0.039 A 
HETATM   19  C   UNL     1     -39.620  51.479 -51.992  1.00  0.00     0.022 A 
HETATM   20  C   UNL     1     -39.990  51.555 -53.334  1.00  0.00     0.012 A 
HETATM   21 BR   UNL     1     -39.690  50.080 -54.480  1.00  0.00    -0.051 Br
HETATM   22  C   UNL     1     -40.574  52.711 -53.844  1.00  0.00     0.034 A 
BRANCH  17  23
HETATM   23  O   UNL     1     -40.624  54.759 -50.769  1.00  0.00    -0.360 OA
HETATM   24  H   UNL     1     -41.473  54.610 -50.292  1.00  0.00     0.217 HD
ENDBRANCH  17  23
ENDBRANCH  15  16
ENDBRANCH   3  14
BRANCH   2  25
HETATM   25  N   UNL     1     -40.809  58.205 -53.483  1.00  0.00    -0.286 NA
HETATM   26  H   UNL     1     -39.852  57.883 -53.658  1.00  0.00     0.125 HD
HETATM   27  H   UNL     1     -40.785  59.198 -53.232  1.00  0.00     0.125 HD
ENDBRANCH   2  25
BRANCH   1  28
HETATM   28  C   UNL     1     -43.679  59.419 -53.981  1.00  0.00     0.257 C 
HETATM   29  N   UNL     1     -42.830  60.344 -53.399  1.00  0.00    -0.356 N 
HETATM   30  H   UNL     1     -41.843  60.137 -53.501  1.00  0.00     0.162 HD
HETATM   31  O   UNL     1     -44.887  59.401 -53.781  1.00  0.00    -0.267 OA
BRANCH  29  32
HETATM   32  C   UNL     1     -43.217  61.152 -52.265  1.00  0.00     0.126 C 
BRANCH  32  33
HETATM   33  C   UNL     1     -43.067  60.407 -50.926  1.00  0.00    -0.005 C 
HETATM   34  C   UNL     1     -43.783  61.144 -49.794  1.00  0.00     0.011 C 
HETATM   35  C   UNL     1     -41.603  60.152 -50.550  1.00  0.00     0.011 C 
ENDBRANCH  32  33
ENDBRANCH  29  32
ENDBRANCH   1  28
TORSDOF 7
ENDMDL
MODEL 6
REMARK VINA RESULT:      -8.1      2.183      2.698
REMARK  7 active torsions:
REMARK  status: ('A' for Active; 'I' for Inactive)
REMARK    1  A    between atoms: C_2  and  C_3 
REMARK    2  A    between atoms: C_3  and  N_4 
REMARK       I    between atoms: N_4  and  C_5 
REMARK    3  A    between atoms: C_5  and  C_6 
REMARK    4  A    between atoms: C_7  and  N_8 
REMARK    5  A    between atoms: N_9  and  N_10 
REMARK    6  A    between atoms: C_11  and  C_12 
REMARK    7  A    between atoms: C_13  and  O_14 
ROOT
HETATM    1  C   UNL     1     -42.546  56.852 -52.308  1.00  0.00     0.104 C 
HETATM    2  C   UNL     1     -43.552  56.971 -53.259  1.00  0.00     0.123 C 
HETATM    3  N   UNL     1     -43.248  56.083 -54.289  1.00  0.00    -0.202 N 
HETATM    4  C   UNL     1     -42.451  55.094 -53.757  1.00  0.00     0.183 A 
HETATM    5  C   UNL     1     -41.940  55.587 -52.556  1.00  0.00     0.124 A 
HETATM    6  N   UNL     1     -40.999  54.896 -51.866  1.00  0.00    -0.242 NA
HETATM    7  C   UNL     1     -40.664  53.708 -52.397  1.00  0.00     0.086 A 
HETATM    8  C   UNL     1     -41.222  53.219 -53.609  1.00  0.00     0.088 A 
HETATM    9  N   UNL     1     -42.110  53.918 -54.334  1.00  0.00    -0.225 NA
HETATM   10  C   UNL     1     -39.735  52.925 -51.724  1.00  0.00     0.034 A 
HETATM   11  C   UNL     1     -39.351  51.670 -52.200  1.00  0.00     0.002 A 
HETATM   12  C   UNL     1     -39.907  51.188 -53.377  1.00  0.00     0.002 A 
HETATM   13  C   UNL     1     -40.834  51.968 -54.069  1.00  0.00     0.034 A 
ENDROOT
BRANCH   3  14
HETATM   14  N   UNL     1     -43.607  56.193 -55.621  1.00  0.00    -0.176 NA
HETATM   15  C   UNL     1     -42.736  56.866 -56.314  1.00  0.00     0.153 C 
BRANCH  15  16
HETATM   16  C   UNL     1     -42.867  57.096 -57.761  1.00  0.00     0.017 A 
HETATM   17  C   UNL     1     -42.322  58.214 -58.393  1.00  0.00     0.077 A 
HETATM   18  C   UNL     1     -42.537  58.414 -59.755  1.00  0.00     0.039 A 
HETATM   19  C   UNL     1     -43.288  57.490 -60.488  1.00  0.00     0.022 A 
HETATM   20  C   UNL     1     -43.818  56.367 -59.852  1.00  0.00     0.012 A 
HETATM   21 BR   UNL     1     -44.828  55.111 -60.842  1.00  0.00    -0.051 Br
HETATM   22  C   UNL     1     -43.616  56.164 -58.490  1.00  0.00     0.034 A 
BRANCH  17  23
HETATM   23  O   UNL     1     -41.590  59.160 -57.733  1.00  0.00    -0.360 OA
HETATM   24  H   UNL     1     -41.241  58.755 -56.905  1.00  0.00     0.217 HD
ENDBRANCH  17  23
ENDBRANCH  15  16
ENDBRANCH   3  14
BRANCH   2  25
HETATM   25  N   UNL     1     -44.609  57.840 -53.342  1.00  0.00    -0.286 NA
HETATM   26  H   UNL     1     -44.678  58.536 -52.594  1.00  0.00     0.125 HD
HETATM   27  H   UNL     1     -44.745  58.306 -54.244  1.00  0.00     0.125 HD
ENDBRANCH   2  25
BRANCH   1  28
HETATM   28  C   UNL     1     -42.199  57.851 -51.304  1.00  0.00     0.257 C 
HETATM   29  N   UNL     1     -43.238  58.731 -51.052  1.00  0.00    -0.356 N 
HETATM   30  H   UNL     1     -44.040  58.627 -51.664  1.00  0.00     0.162 HD
HETATM   31  O   UNL     1     -41.087  57.969 -50.804  1.00  0.00    -0.267 OA
BRANCH  29  32
HETATM   32  C   UNL     1     -43.031  60.031 -50.456  1.00  0.00     0.126 C 
BRANCH  32  33
HETATM   33  C   UNL     1     -44.348  60.797 -50.232  1.00  0.00    -0.005 C 
HETATM   34  C   UNL     1     -44.403  61.417 -48.836  1.00  0.00     0.011 C 
HETATM   35  C   UNL     1     -45.588  59.931 -50.478  1.00  0.00     0.011 C 
ENDBRANCH  32  33
ENDBRANCH  29  32
ENDBRANCH   1  28
TORSDOF 7
ENDMDL
MODEL 7
REMARK VINA RESULT:      -8.0      2.608      3.594
REMARK  7 active torsions:
REMARK  status: ('A' for Active; 'I' for Inactive)
REMARK    1  A    between atoms: C_2  and  C_3 
REMARK    2  A    between atoms: C_3  and  N_4 
REMARK       I    between atoms: N_4  and  C_5 
REMARK    3  A    between atoms: C_5  and  C_6 
REMARK    4  A    between atoms: C_7  and  N_8 
REMARK    5  A    between atoms: N_9  and  N_10 
REMARK    6  A    between atoms: C_11  and  C_12 
REMARK    7  A    between atoms: C_13  and  O_14 
ROOT
HETATM    1  C   UNL     1     -43.595  58.812 -52.293  1.00  0.00     0.104 C 
HETATM    2  C   UNL     1     -44.413  58.498 -53.372  1.00  0.00     0.123 C 
HETATM    3  N   UNL     1     -43.866  57.375 -53.988  1.00  0.00    -0.202 N 
HETATM    4  C   UNL     1     -43.118  56.711 -53.041  1.00  0.00     0.183 A 
HETATM    5  C   UNL     1     -42.872  57.618 -52.010  1.00  0.00     0.124 A 
HETATM    6  N   UNL     1     -42.031  57.303 -50.993  1.00  0.00    -0.242 NA
HETATM    7  C   UNL     1     -41.526  56.059 -51.040  1.00  0.00     0.086 A 
HETATM    8  C   UNL     1     -41.815  55.147 -52.090  1.00  0.00     0.088 A 
HETATM    9  N   UNL     1     -42.598  55.465 -53.134  1.00  0.00    -0.225 NA
HETATM   10  C   UNL     1     -40.687  55.650 -50.011  1.00  0.00     0.034 A 
HETATM   11  C   UNL     1     -40.140  54.367 -49.976  1.00  0.00     0.002 A 
HETATM   12  C   UNL     1     -40.435  53.472 -50.996  1.00  0.00     0.002 A 
HETATM   13  C   UNL     1     -41.267  53.872 -52.042  1.00  0.00     0.034 A 
ENDROOT
BRANCH   3  14
HETATM   14  N   UNL     1     -43.978  57.013 -55.319  1.00  0.00    -0.176 NA
HETATM   15  C   UNL     1     -43.062  57.562 -56.060  1.00  0.00     0.153 C 
BRANCH  15  16
HETATM   16  C   UNL     1     -42.942  57.312 -57.504  1.00  0.00     0.017 A 
HETATM   17  C   UNL     1     -43.076  56.037 -58.057  1.00  0.00     0.077 A 
HETATM   18  C   UNL     1     -42.883  55.851 -59.424  1.00  0.00     0.039 A 
HETATM   19  C   UNL     1     -42.567  56.939 -60.242  1.00  0.00     0.022 A 
HETATM   20  C   UNL     1     -42.448  58.213 -59.685  1.00  0.00     0.012 A 
HETATM   21 BR   UNL     1     -42.028  59.690 -60.789  1.00  0.00    -0.051 Br
HETATM   22  C   UNL     1     -42.630  58.408 -58.319  1.00  0.00     0.034 A 
BRANCH  17  23
HETATM   23  O   UNL     1     -43.370  54.931 -57.312  1.00  0.00    -0.360 OA
HETATM   24  H   UNL     1     -43.447  54.161 -57.921  1.00  0.00     0.217 HD
ENDBRANCH  17  23
ENDBRANCH  15  16
ENDBRANCH   3  14
BRANCH   2  25
HETATM   25  N   UNL     1     -45.492  59.159 -53.902  1.00  0.00    -0.286 NA
HETATM   26  H   UNL     1     -46.375  58.639 -53.916  1.00  0.00     0.125 HD
HETATM   27  H   UNL     1     -45.668  60.103 -53.544  1.00  0.00     0.125 HD
ENDBRANCH   2  25
BRANCH   1  28
HETATM   28  C   UNL     1     -43.508  60.113 -51.640  1.00  0.00     0.257 C 
HETATM   29  N   UNL     1     -43.483  60.011 -50.260  1.00  0.00    -0.356 N 
HETATM   30  H   UNL     1     -43.635  59.075 -49.900  1.00  0.00     0.162 HD
HETATM   31  O   UNL     1     -43.548  61.185 -52.230  1.00  0.00    -0.267 OA
BRANCH  29  32
HETATM   32  C   UNL     1     -43.831  61.112 -49.390  1.00  0.00     0.126 C 
BRANCH  32  33
HETATM   33  C   UNL     1     -45.271  61.015 -48.856  1.00  0.00    -0.005 C 
HETATM   34  C   UNL     1     -46.175  62.072 -49.490  1.00  0.00     0.011 C 
HETATM   35  C   UNL     1     -45.344  61.103 -47.327  1.00  0.00     0.011 C 
ENDBRANCH  32  33
ENDBRANCH  29  32
ENDBRANCH   1  28
TORSDOF 7
ENDMDL
MODEL 8
REMARK VINA RESULT:      -7.9      2.892      6.767
REMARK  7 active torsions:
REMARK  status: ('A' for Active; 'I' for Inactive)
REMARK    1  A    between atoms: C_2  and  C_3 
REMARK    2  A    between atoms: C_3  and  N_4 
REMARK       I    between atoms: N_4  and  C_5 
REMARK    3  A    between atoms: C_5  and  C_6 
REMARK    4  A    between atoms: C_7  and  N_8 
REMARK    5  A    between atoms: N_9  and  N_10 
REMARK    6  A    between atoms: C_11  and  C_12 
REMARK    7  A    between atoms: C_13  and  O_14 
ROOT
HETATM    1  C   UNL     1     -43.425  55.791 -52.530  1.00  0.00     0.104 C 
HETATM    2  C   UNL     1     -44.216  56.687 -51.821  1.00  0.00     0.123 C 
HETATM    3  N   UNL     1     -44.349  57.828 -52.610  1.00  0.00    -0.202 N 
HETATM    4  C   UNL     1     -44.150  57.447 -53.919  1.00  0.00     0.183 A 
HETATM    5  C   UNL     1     -43.502  56.213 -53.888  1.00  0.00     0.124 A 
HETATM    6  N   UNL     1     -43.037  55.643 -55.028  1.00  0.00    -0.242 NA
HETATM    7  C   UNL     1     -43.305  56.327 -56.153  1.00  0.00     0.086 A 
HETATM    8  C   UNL     1     -43.990  57.571 -56.156  1.00  0.00     0.088 A 
HETATM    9  N   UNL     1     -44.404  58.176 -55.031  1.00  0.00    -0.225 NA
HETATM   10  C   UNL     1     -42.894  55.786 -57.366  1.00  0.00     0.034 A 
HETATM   11  C   UNL     1     -43.153  56.425 -58.579  1.00  0.00     0.002 A 
HETATM   12  C   UNL     1     -43.836  57.634 -58.582  1.00  0.00     0.002 A 
HETATM   13  C   UNL     1     -44.244  58.195 -57.371  1.00  0.00     0.034 A 
ENDROOT
BRANCH   3  14
HETATM   14  N   UNL     1     -44.566  59.123 -52.176  1.00  0.00    -0.176 NA
HETATM   15  C   UNL     1     -43.457  59.755 -51.926  1.00  0.00     0.153 C 
BRANCH  15  16
HETATM   16  C   UNL     1     -43.414  61.156 -51.484  1.00  0.00     0.017 A 
HETATM   17  C   UNL     1     -43.681  61.535 -50.168  1.00  0.00     0.077 A 
HETATM   18  C   UNL     1     -43.692  62.885 -49.823  1.00  0.00     0.039 A 
HETATM   19  C   UNL     1     -43.426  63.857 -50.792  1.00  0.00     0.022 A 
HETATM   20  C   UNL     1     -43.145  63.471 -52.103  1.00  0.00     0.012 A 
HETATM   21 BR   UNL     1     -42.776  64.782 -53.414  1.00  0.00    -0.051 Br
HETATM   22  C   UNL     1     -43.140  62.125 -52.458  1.00  0.00     0.034 A 
BRANCH  17  23
HETATM   23  O   UNL     1     -43.962  60.637 -49.178  1.00  0.00    -0.360 OA
HETATM   24  H   UNL     1     -43.470  59.805 -49.369  1.00  0.00     0.217 HD
ENDBRANCH  17  23
ENDBRANCH  15  16
ENDBRANCH   3  14
BRANCH   2  25
HETATM   25  N   UNL     1     -44.715  56.628 -50.546  1.00  0.00    -0.286 NA
HETATM   26  H   UNL     1     -44.039  56.783 -49.791  1.00  0.00     0.125 HD
HETATM   27  H   UNL     1     -45.555  57.185 -50.359  1.00  0.00     0.125 HD
ENDBRANCH   2  25
BRANCH   1  28
HETATM   28  C   UNL     1     -42.669  54.683 -51.957  1.00  0.00     0.257 C 
HETATM   29  N   UNL     1     -41.488  54.440 -52.637  1.00  0.00    -0.356 N 
HETATM   30  H   UNL     1     -41.367  54.983 -53.485  1.00  0.00     0.162 HD
HETATM   31  O   UNL     1     -43.068  53.979 -51.039  1.00  0.00    -0.267 OA
BRANCH  29  32
HETATM   32  C   UNL     1     -40.790  53.177 -52.562  1.00  0.00     0.126 C 
BRANCH  32  33
HETATM   33  C   UNL     1     -40.622  52.509 -53.939  1.00  0.00    -0.005 C 
HETATM   34  C   UNL     1     -39.646  51.334 -53.874  1.00  0.00     0.011 C 
HETATM   35  C   UNL     1     -40.191  53.496 -55.029  1.00  0.00     0.011 C 
ENDBRANCH  32  33
ENDBRANCH  29  32
ENDBRANCH   1  28
TORSDOF 7
ENDMDL
MODEL 9
REMARK VINA RESULT:      -7.8      3.649      7.192
REMARK  7 active torsions:
REMARK  status: ('A' for Active; 'I' for Inactive)
REMARK    1  A    between atoms: C_2  and  C_3 
REMARK    2  A    between atoms: C_3  and  N_4 
REMARK       I    between atoms: N_4  and  C_5 
REMARK    3  A    between atoms: C_5  and  C_6 
REMARK    4  A    between atoms: C_7  and  N_8 
REMARK    5  A    between atoms: N_9  and  N_10 
REMARK    6  A    between atoms: C_11  and  C_12 
REMARK    7  A    between atoms: C_13  and  O_14 
ROOT
HETATM    1  C   UNL     1     -42.454  58.866 -54.757  1.00  0.00     0.104 C 
HETATM    2  C   UNL     1     -41.694  57.984 -53.997  1.00  0.00     0.123 C 
HETATM    3  N   UNL     1     -41.995  56.698 -54.441  1.00  0.00    -0.202 N 
HETATM    4  C   UNL     1     -42.451  56.807 -55.736  1.00  0.00     0.183 A 
HETATM    5  C   UNL     1     -42.817  58.139 -55.926  1.00  0.00     0.124 A 
HETATM    6  N   UNL     1     -43.444  58.533 -57.063  1.00  0.00    -0.242 NA
HETATM    7  C   UNL     1     -43.618  57.564 -57.978  1.00  0.00     0.086 A 
HETATM    8  C   UNL     1     -43.211  56.220 -57.767  1.00  0.00     0.088 A 
HETATM    9  N   UNL     1     -42.642  55.803 -56.624  1.00  0.00    -0.225 NA
HETATM   10  C   UNL     1     -44.218  57.900 -59.186  1.00  0.00     0.034 A 
HETATM   11  C   UNL     1     -44.414  56.957 -60.195  1.00  0.00     0.002 A 
HETATM   12  C   UNL     1     -44.003  55.646 -59.993  1.00  0.00     0.002 A 
HETATM   13  C   UNL     1     -43.408  55.292 -58.781  1.00  0.00     0.034 A 
ENDROOT
BRANCH   3  14
HETATM   14  N   UNL     1     -41.926  55.524 -53.712  1.00  0.00    -0.176 NA
HETATM   15  C   UNL     1     -40.797  54.901 -53.880  1.00  0.00     0.153 C 
BRANCH  15  16
HETATM   16  C   UNL     1     -40.462  53.647 -53.191  1.00  0.00     0.017 A 
HETATM   17  C   UNL     1     -40.327  53.568 -51.804  1.00  0.00     0.077 A 
HETATM   18  C   UNL     1     -39.940  52.367 -51.212  1.00  0.00     0.039 A 
HETATM   19  C   UNL     1     -39.699  51.242 -52.005  1.00  0.00     0.022 A 
HETATM   20  C   UNL     1     -39.850  51.324 -53.390  1.00  0.00     0.012 A 
HETATM   21 BR   UNL     1     -39.531  49.802 -54.466  1.00  0.00    -0.051 Br
HETATM   22  C   UNL     1     -40.227  52.521 -53.991  1.00  0.00     0.034 A 
BRANCH  17  23
HETATM   23  O   UNL     1     -40.536  54.633 -50.975  1.00  0.00    -0.360 OA
HETATM   24  H   UNL     1     -40.622  55.442 -51.529  1.00  0.00     0.217 HD
ENDBRANCH  17  23
ENDBRANCH  15  16
ENDBRANCH   3  14
BRANCH   2  25
HETATM   25  N   UNL     1     -40.877  58.203 -52.918  1.00  0.00    -0.286 NA
HETATM   26  H   UNL     1     -41.347  58.454 -52.043  1.00  0.00     0.125 HD
HETATM   27  H   UNL     1     -40.175  57.483 -52.724  1.00  0.00     0.125 HD
ENDBRANCH   2  25
BRANCH   1  28
HETATM   28  C   UNL     1     -42.805  60.231 -54.380  1.00  0.00     0.257 C 
HETATM   29  N   UNL     1     -43.944  60.681 -55.025  1.00  0.00    -0.356 N 
HETATM   30  H   UNL     1     -44.306  60.054 -55.734  1.00  0.00     0.162 HD
HETATM   31  O   UNL     1     -42.124  60.941 -53.651  1.00  0.00    -0.267 OA
BRANCH  29  32
HETATM   32  C   UNL     1     -44.254  62.085 -55.170  1.00  0.00     0.126 C 
BRANCH  32  33
HETATM   33  C   UNL     1     -45.689  62.425 -54.728  1.00  0.00    -0.005 C 
HETATM   34  C   UNL     1     -46.063  61.697 -53.437  1.00  0.00     0.011 C 
HETATM   35  C   UNL     1     -46.728  62.140 -55.818  1.00  0.00     0.011 C 
ENDBRANCH  32  33
ENDBRANCH  29  32
ENDBRANCH   1  28
TORSDOF 7
ENDMDL
MODEL 10
REMARK VINA RESULT:      -7.8      3.223      8.004
REMARK  7 active torsions:
REMARK  status: ('A' for Active; 'I' for Inactive)
REMARK    1  A    between atoms: C_2  and  C_3 
REMARK    2  A    between atoms: C_3  and  N_4 
REMARK       I    between atoms: N_4  and  C_5 
REMARK    3  A    between atoms: C_5  and  C_6 
REMARK    4  A    between atoms: C_7  and  N_8 
REMARK    5  A    between atoms: N_9  and  N_10 
REMARK    6  A    between atoms: C_11  and  C_12 
REMARK    7  A    between atoms: C_13  and  O_14 
ROOT
HETATM    1  C   UNL     1     -42.762  57.385 -57.078  1.00  0.00     0.104 C 
HETATM    2  C   UNL     1     -43.100  56.096 -56.686  1.00  0.00     0.123 C 
HETATM    3  N   UNL     1     -42.960  56.039 -55.301  1.00  0.00    -0.202 N 
HETATM    4  C   UNL     1     -43.089  57.324 -54.823  1.00  0.00     0.183 A 
HETATM    5  C   UNL     1     -42.890  58.181 -55.904  1.00  0.00     0.124 A 
HETATM    6  N   UNL     1     -42.810  59.523 -55.722  1.00  0.00    -0.242 NA
HETATM    7  C   UNL     1     -42.995  59.935 -54.457  1.00  0.00     0.086 A 
HETATM    8  C   UNL     1     -43.223  59.040 -53.378  1.00  0.00     0.088 A 
HETATM    9  N   UNL     1     -43.246  57.706 -53.533  1.00  0.00    -0.225 NA
HETATM   10  C   UNL     1     -42.967  61.300 -54.198  1.00  0.00     0.034 A 
HETATM   11  C   UNL     1     -43.171  61.809 -52.915  1.00  0.00     0.002 A 
HETATM   12  C   UNL     1     -43.408  60.932 -51.864  1.00  0.00     0.002 A 
HETATM   13  C   UNL     1     -43.429  59.558 -52.107  1.00  0.00     0.034 A 
ENDROOT
BRANCH   3  14
HETATM   14  N   UNL     1     -42.671  54.924 -54.535  1.00  0.00    -0.176 NA
HETATM   15  C   UNL     1     -41.395  54.780 -54.331  1.00  0.00     0.153 C 
BRANCH  15  16
HETATM   16  C   UNL     1     -40.830  53.693 -53.519  1.00  0.00     0.017 A 
HETATM   17  C   UNL     1     -40.556  53.839 -52.158  1.00  0.00     0.077 A 
HETATM   18  C   UNL     1     -39.957  52.795 -51.456  1.00  0.00     0.039 A 
HETATM   19  C   UNL     1     -39.639  51.602 -52.110  1.00  0.00     0.022 A 
HETATM   20  C   UNL     1     -39.928  51.458 -53.468  1.00  0.00     0.012 A 
HETATM   21 BR   UNL     1     -39.506  49.842 -54.355  1.00  0.00    -0.051 Br
HETATM   22  C   UNL     1     -40.518  52.497 -54.180  1.00  0.00     0.034 A 
BRANCH  17  23
HETATM   23  O   UNL     1     -40.830  54.982 -51.463  1.00  0.00    -0.360 OA
HETATM   24  H   UNL     1     -40.084  55.610 -51.598  1.00  0.00     0.217 HD
ENDBRANCH  17  23
ENDBRANCH  15  16
ENDBRANCH   3  14
BRANCH   2  25
HETATM   25  N   UNL     1     -43.401  54.983 -57.428  1.00  0.00    -0.286 NA
HETATM   26  H   UNL     1     -43.207  55.046 -58.432  1.00  0.00     0.125 HD
HETATM   27  H   UNL     1     -43.042  54.090 -57.076  1.00  0.00     0.125 HD
ENDBRANCH   2  25
BRANCH   1  28
HETATM   28  C   UNL     1     -42.340  57.787 -58.416  1.00  0.00     0.257 C 
HETATM   29  N   UNL     1     -42.019  59.131 -58.487  1.00  0.00    -0.356 N 
HETATM   30  H   UNL     1     -42.218  59.662 -57.647  1.00  0.00     0.162 HD
HETATM   31  O   UNL     1     -42.358  57.050 -59.393  1.00  0.00    -0.267 OA
BRANCH  29  32
HETATM   32  C   UNL     1     -41.996  59.862 -59.734  1.00  0.00     0.126 C 
BRANCH  32  33
HETATM   33  C   UNL     1     -43.316  60.603 -60.012  1.00  0.00    -0.005 C 
HETATM   34  C   UNL     1     -43.950  61.118 -58.720  1.00  0.00     0.011 C 
HETATM   35  C   UNL     1     -44.322  59.751 -60.794  1.00  0.00     0.011 C 
ENDBRANCH  32  33
ENDBRANCH  29  32
ENDBRANCH   1  28
TORSDOF 7
ENDMDL
