MODEL 1
REMARK VINA RESULT:      -7.8      0.000      0.000
REMARK  3 active torsions:
REMARK  status: ('A' for Active; 'I' for Inactive)
REMARK    1  A    between atoms: C_2  and  C_3 
REMARK    2  A    between atoms: C_9  and  C_10 
REMARK    3  A    between atoms: C_23  and  N_24 
ROOT
HETATM    1  C   UNL     1     -43.535  57.122 -56.892  1.00  0.00     0.066 A 
HETATM    2  N   UNL     1     -44.516  57.771 -57.542  1.00  0.00    -0.177 NA
HETATM    3  N   UNL     1     -44.570  58.980 -56.948  1.00  0.00    -0.256 N 
HETATM    4  H   UNL     1     -45.243  59.660 -57.283  1.00  0.00     0.191 HD
HETATM    5  C   UNL     1     -43.659  59.116 -55.953  1.00  0.00     0.175 A 
HETATM    6  C   UNL     1     -42.970  57.933 -55.875  1.00  0.00     0.035 A 
HETATM    7  C   UNL     1     -41.866  57.780 -54.883  1.00  0.00     0.106 A 
HETATM    8  C   UNL     1     -41.670  59.079 -54.095  1.00  0.00     0.081 A 
HETATM    9  C   UNL     1     -40.587  59.107 -53.169  1.00  0.00     0.100 C 
HETATM   10  N   UNL     1     -39.706  59.139 -52.414  1.00  0.00    -0.191 NA
HETATM   11  C   UNL     1     -42.444  60.184 -54.284  1.00  0.00     0.140 A 
HETATM   12  O   UNL     1     -43.491  60.211 -55.223  1.00  0.00    -0.279 OA
ENDROOT
BRANCH   7  13
HETATM   13  C   UNL     1     -42.233  56.589 -53.995  1.00  0.00    -0.033 A 
HETATM   14  C   UNL     1     -41.578  55.320 -54.114  1.00  0.00    -0.019 A 
HETATM   15  C   UNL     1     -41.987  54.262 -53.258  1.00  0.00    -0.025 A 
HETATM   16  C   UNL     1     -40.534  55.030 -55.029  1.00  0.00     0.013 A 
HETATM   17  C   UNL     1     -41.382  52.997 -53.347  1.00  0.00     0.012 A 
HETATM   18  C   UNL     1     -42.997  54.468 -52.309  1.00  0.00     0.012 A 
HETATM   19  C   UNL     1     -40.364  52.749 -54.264  1.00  0.00     0.001 A 
HETATM   20  C   UNL     1     -39.938  53.767 -55.103  1.00  0.00     0.001 A 
HETATM   21  C   UNL     1     -43.610  55.707 -52.176  1.00  0.00     0.001 A 
HETATM   22  C   UNL     1     -43.229  56.755 -53.003  1.00  0.00     0.009 A 
ENDBRANCH   7  13
BRANCH  11  23
HETATM   23  N   UNL     1     -42.307  61.378 -53.612  1.00  0.00    -0.282 NA
HETATM   24  H   UNL     1     -42.749  61.420 -52.697  1.00  0.00     0.126 HD
HETATM   25  H   UNL     1     -42.530  62.177 -54.200  1.00  0.00     0.126 HD
ENDBRANCH  11  23
BRANCH   1  26
HETATM   26  C   UNL     1     -43.178  55.727 -57.286  1.00  0.00     0.057 C 
HETATM   27  C   UNL     1     -43.449  55.452 -58.756  1.00  0.00     0.011 C 
ENDBRANCH   1  26
TORSDOF 3
ENDMDL
MODEL 2
REMARK VINA RESULT:      -7.8      1.911      2.195
REMARK  3 active torsions:
REMARK  status: ('A' for Active; 'I' for Inactive)
REMARK    1  A    between atoms: C_2  and  C_3 
REMARK    2  A    between atoms: C_9  and  C_10 
REMARK    3  A    between atoms: C_23  and  N_24 
ROOT
HETATM    1  C   UNL     1     -44.022  57.447 -54.457  1.00  0.00     0.066 A 
HETATM    2  N   UNL     1     -45.213  58.059 -54.583  1.00  0.00    -0.177 NA
HETATM    3  N   UNL     1     -45.180  59.048 -53.668  1.00  0.00    -0.256 N 
HETATM    4  H   UNL     1     -45.981  59.663 -53.583  1.00  0.00     0.191 HD
HETATM    5  C   UNL     1     -44.015  59.082 -52.975  1.00  0.00     0.175 A 
HETATM    6  C   UNL     1     -43.237  58.057 -53.448  1.00  0.00     0.035 A 
HETATM    7  C   UNL     1     -41.864  57.851 -52.898  1.00  0.00     0.106 A 
HETATM    8  C   UNL     1     -41.542  58.920 -51.848  1.00  0.00     0.081 A 
HETATM    9  C   UNL     1     -40.227  58.900 -51.299  1.00  0.00     0.100 C 
HETATM   10  N   UNL     1     -39.158  58.892 -50.847  1.00  0.00    -0.191 NA
HETATM   11  C   UNL     1     -42.430  59.885 -51.476  1.00  0.00     0.140 A 
HETATM   12  O   UNL     1     -43.720  59.967 -52.031  1.00  0.00    -0.279 OA
ENDROOT
BRANCH   7  13
HETATM   13  C   UNL     1     -41.824  56.428 -52.336  1.00  0.00    -0.033 A 
HETATM   14  C   UNL     1     -41.231  55.343 -53.059  1.00  0.00    -0.019 A 
HETATM   15  C   UNL     1     -41.244  54.048 -52.470  1.00  0.00    -0.025 A 
HETATM   16  C   UNL     1     -40.617  55.455 -54.332  1.00  0.00     0.013 A 
HETATM   17  C   UNL     1     -40.686  52.951 -53.147  1.00  0.00     0.012 A 
HETATM   18  C   UNL     1     -41.811  53.851 -51.205  1.00  0.00     0.012 A 
HETATM   19  C   UNL     1     -40.098  53.101 -54.400  1.00  0.00     0.001 A 
HETATM   20  C   UNL     1     -40.060  54.354 -54.990  1.00  0.00     0.001 A 
HETATM   21  C   UNL     1     -42.360  54.911 -50.495  1.00  0.00     0.001 A 
HETATM   22  C   UNL     1     -42.361  56.184 -51.049  1.00  0.00     0.009 A 
ENDBRANCH   7  13
BRANCH  11  23
HETATM   23  N   UNL     1     -42.191  60.873 -50.547  1.00  0.00    -0.282 NA
HETATM   24  H   UNL     1     -41.428  60.692 -49.900  1.00  0.00     0.126 HD
HETATM   25  H   UNL     1     -43.043  61.178 -50.084  1.00  0.00     0.126 HD
ENDBRANCH  11  23
BRANCH   1  26
HETATM   26  C   UNL     1     -43.689  56.283 -55.330  1.00  0.00     0.057 C 
HETATM   27  C   UNL     1     -43.152  56.709 -56.687  1.00  0.00     0.011 C 
ENDBRANCH   1  26
TORSDOF 3
ENDMDL
MODEL 3
REMARK VINA RESULT:      -7.7      1.995      2.896
REMARK  3 active torsions:
REMARK  status: ('A' for Active; 'I' for Inactive)
REMARK    1  A    between atoms: C_2  and  C_3 
REMARK    2  A    between atoms: C_9  and  C_10 
REMARK    3  A    between atoms: C_23  and  N_24 
ROOT
HETATM    1  C   UNL     1     -42.248  54.769 -55.323  1.00  0.00     0.066 A 
HETATM    2  N   UNL     1     -42.879  54.819 -56.509  1.00  0.00    -0.177 NA
HETATM    3  N   UNL     1     -42.976  56.134 -56.783  1.00  0.00    -0.256 N 
HETATM    4  H   UNL     1     -43.416  56.423 -57.649  1.00  0.00     0.191 HD
HETATM    5  C   UNL     1     -42.427  56.913 -55.817  1.00  0.00     0.175 A 
HETATM    6  C   UNL     1     -41.950  56.070 -54.847  1.00  0.00     0.035 A 
HETATM    7  C   UNL     1     -41.253  56.631 -53.652  1.00  0.00     0.106 A 
HETATM    8  C   UNL     1     -41.167  58.158 -53.750  1.00  0.00     0.081 A 
HETATM    9  C   UNL     1     -40.448  58.825 -52.717  1.00  0.00     0.100 C 
HETATM   10  N   UNL     1     -39.862  59.377 -51.880  1.00  0.00    -0.191 NA
HETATM   11  C   UNL     1     -41.698  58.864 -54.787  1.00  0.00     0.140 A 
HETATM   12  O   UNL     1     -42.373  58.238 -55.850  1.00  0.00    -0.279 OA
ENDROOT
BRANCH   7  13
HETATM   13  C   UNL     1     -42.030  56.152 -52.423  1.00  0.00    -0.033 A 
HETATM   14  C   UNL     1     -41.483  55.202 -51.501  1.00  0.00    -0.019 A 
HETATM   15  C   UNL     1     -42.276  54.801 -50.390  1.00  0.00    -0.025 A 
HETATM   16  C   UNL     1     -40.194  54.622 -51.604  1.00  0.00     0.013 A 
HETATM   17  C   UNL     1     -41.787  53.862 -49.467  1.00  0.00     0.012 A 
HETATM   18  C   UNL     1     -43.554  55.341 -50.200  1.00  0.00     0.012 A 
HETATM   19  C   UNL     1     -40.517  53.309 -49.607  1.00  0.00     0.001 A 
HETATM   20  C   UNL     1     -39.719  53.692 -50.673  1.00  0.00     0.001 A 
HETATM   21  C   UNL     1     -44.069  56.284 -51.080  1.00  0.00     0.001 A 
HETATM   22  C   UNL     1     -43.316  56.689 -52.173  1.00  0.00     0.009 A 
ENDBRANCH   7  13
BRANCH  11  23
HETATM   23  N   UNL     1     -41.643  60.233 -54.931  1.00  0.00    -0.282 NA
HETATM   24  H   UNL     1     -41.519  60.570 -55.882  1.00  0.00     0.126 HD
HETATM   25  H   UNL     1     -41.004  60.663 -54.268  1.00  0.00     0.126 HD
ENDBRANCH  11  23
BRANCH   1  26
HETATM   26  C   UNL     1     -41.955  53.448 -54.691  1.00  0.00     0.057 C 
HETATM   27  C   UNL     1     -40.473  53.108 -54.716  1.00  0.00     0.011 C 
ENDBRANCH   1  26
TORSDOF 3
ENDMDL
MODEL 4
REMARK VINA RESULT:      -7.5      3.410      5.821
REMARK  3 active torsions:
REMARK  status: ('A' for Active; 'I' for Inactive)
REMARK    1  A    between atoms: C_2  and  C_3 
REMARK    2  A    between atoms: C_9  and  C_10 
REMARK    3  A    between atoms: C_23  and  N_24 
ROOT
HETATM    1  C   UNL     1     -43.454  55.372 -54.384  1.00  0.00     0.066 A 
HETATM    2  N   UNL     1     -43.140  54.667 -55.485  1.00  0.00    -0.177 NA
HETATM    3  N   UNL     1     -42.150  53.844 -55.087  1.00  0.00    -0.256 N 
HETATM    4  H   UNL     1     -41.752  53.198 -55.758  1.00  0.00     0.191 HD
HETATM    5  C   UNL     1     -41.832  54.003 -53.778  1.00  0.00     0.175 A 
HETATM    6  C   UNL     1     -42.647  54.989 -53.284  1.00  0.00     0.035 A 
HETATM    7  C   UNL     1     -42.557  55.376 -51.845  1.00  0.00     0.106 A 
HETATM    8  C   UNL     1     -41.514  54.516 -51.124  1.00  0.00     0.081 A 
HETATM    9  C   UNL     1     -41.383  54.716 -49.719  1.00  0.00     0.100 C 
HETATM   10  N   UNL     1     -41.270  54.871 -48.574  1.00  0.00    -0.191 NA
HETATM   11  C   UNL     1     -40.771  53.566 -51.757  1.00  0.00     0.140 A 
HETATM   12  O   UNL     1     -40.906  53.305 -53.133  1.00  0.00    -0.279 OA
ENDROOT
BRANCH   7  13
HETATM   13  C   UNL     1     -42.230  56.870 -51.810  1.00  0.00    -0.033 A 
HETATM   14  C   UNL     1     -43.206  57.854 -51.444  1.00  0.00    -0.019 A 
HETATM   15  C   UNL     1     -42.823  59.223 -51.447  1.00  0.00    -0.025 A 
HETATM   16  C   UNL     1     -44.543  57.569 -51.069  1.00  0.00     0.013 A 
HETATM   17  C   UNL     1     -43.749  60.223 -51.108  1.00  0.00     0.012 A 
HETATM   18  C   UNL     1     -41.515  59.593 -51.785  1.00  0.00     0.012 A 
HETATM   19  C   UNL     1     -45.056  59.903 -50.752  1.00  0.00     0.001 A 
HETATM   20  C   UNL     1     -45.452  58.575 -50.728  1.00  0.00     0.001 A 
HETATM   21  C   UNL     1     -40.564  58.635 -52.112  1.00  0.00     0.001 A 
HETATM   22  C   UNL     1     -40.914  57.292 -52.117  1.00  0.00     0.009 A 
ENDBRANCH   7  13
BRANCH  11  23
HETATM   23  N   UNL     1     -39.828  52.760 -51.158  1.00  0.00    -0.282 NA
HETATM   24  H   UNL     1     -40.185  52.106 -50.466  1.00  0.00     0.126 HD
HETATM   25  H   UNL     1     -39.023  53.289 -50.831  1.00  0.00     0.126 HD
ENDBRANCH  11  23
BRANCH   1  26
HETATM   26  C   UNL     1     -44.535  56.400 -54.442  1.00  0.00     0.057 C 
HETATM   27  C   UNL     1     -44.040  57.733 -54.979  1.00  0.00     0.011 C 
ENDBRANCH   1  26
TORSDOF 3
ENDMDL
MODEL 5
REMARK VINA RESULT:      -7.5     16.303     18.495
REMARK  3 active torsions:
REMARK  status: ('A' for Active; 'I' for Inactive)
REMARK    1  A    between atoms: C_2  and  C_3 
REMARK    2  A    between atoms: C_9  and  C_10 
REMARK    3  A    between atoms: C_23  and  N_24 
ROOT
HETATM    1  C   UNL     1     -33.980  39.431 -56.583  1.00  0.00     0.066 A 
HETATM    2  N   UNL     1     -32.779  39.782 -56.090  1.00  0.00    -0.177 NA
HETATM    3  N   UNL     1     -33.061  40.682 -55.127  1.00  0.00    -0.256 N 
HETATM    4  H   UNL     1     -32.298  41.088 -54.598  1.00  0.00     0.191 HD
HETATM    5  C   UNL     1     -34.392  40.907 -54.994  1.00  0.00     0.175 A 
HETATM    6  C   UNL     1     -35.026  40.123 -55.923  1.00  0.00     0.035 A 
HETATM    7  C   UNL     1     -36.517  40.126 -56.004  1.00  0.00     0.106 A 
HETATM    8  C   UNL     1     -37.109  41.051 -54.936  1.00  0.00     0.081 A 
HETATM    9  C   UNL     1     -38.531  41.085 -54.839  1.00  0.00     0.100 C 
HETATM   10  N   UNL     1     -39.688  41.118 -54.751  1.00  0.00    -0.191 NA
HETATM   11  C   UNL     1     -36.341  41.776 -54.075  1.00  0.00     0.140 A 
HETATM   12  O   UNL     1     -34.936  41.731 -54.108  1.00  0.00    -0.279 OA
ENDROOT
BRANCH   7  13
HETATM   13  C   UNL     1     -36.879  40.548 -57.430  1.00  0.00    -0.033 A 
HETATM   14  C   UNL     1     -37.493  39.645 -58.357  1.00  0.00    -0.019 A 
HETATM   15  C   UNL     1     -37.788  40.113 -59.667  1.00  0.00    -0.025 A 
HETATM   16  C   UNL     1     -37.840  38.300 -58.070  1.00  0.00     0.013 A 
HETATM   17  C   UNL     1     -38.378  39.259 -60.614  1.00  0.00     0.012 A 
HETATM   18  C   UNL     1     -37.497  41.435 -60.030  1.00  0.00     0.012 A 
HETATM   19  C   UNL     1     -38.698  37.942 -60.296  1.00  0.00     0.001 A 
HETATM   20  C   UNL     1     -38.432  37.465 -59.022  1.00  0.00     0.001 A 
HETATM   21  C   UNL     1     -36.928  42.316 -59.119  1.00  0.00     0.001 A 
HETATM   22  C   UNL     1     -36.630  41.881 -57.835  1.00  0.00     0.009 A 
ENDBRANCH   7  13
BRANCH  11  23
HETATM   23  N   UNL     1     -36.820  42.614 -53.092  1.00  0.00    -0.282 NA
HETATM   24  H   UNL     1     -36.810  43.606 -53.318  1.00  0.00     0.126 HD
HETATM   25  H   UNL     1     -36.417  42.407 -52.182  1.00  0.00     0.126 HD
ENDBRANCH  11  23
BRANCH   1  26
HETATM   26  C   UNL     1     -34.067  38.429 -57.686  1.00  0.00     0.057 C 
HETATM   27  C   UNL     1     -34.544  37.070 -57.198  1.00  0.00     0.011 C 
ENDBRANCH   1  26
TORSDOF 3
ENDMDL
MODEL 6
REMARK VINA RESULT:      -7.2      2.943      5.296
REMARK  3 active torsions:
REMARK  status: ('A' for Active; 'I' for Inactive)
REMARK    1  A    between atoms: C_2  and  C_3 
REMARK    2  A    between atoms: C_9  and  C_10 
REMARK    3  A    between atoms: C_23  and  N_24 
ROOT
HETATM    1  C   UNL     1     -43.612  56.880 -56.011  1.00  0.00     0.066 A 
HETATM    2  N   UNL     1     -43.275  56.544 -57.269  1.00  0.00    -0.177 NA
HETATM    3  N   UNL     1     -42.484  55.462 -57.127  1.00  0.00    -0.256 N 
HETATM    4  H   UNL     1     -42.109  55.018 -57.957  1.00  0.00     0.191 HD
HETATM    5  C   UNL     1     -42.312  55.105 -55.830  1.00  0.00     0.175 A 
HETATM    6  C   UNL     1     -43.019  56.001 -55.070  1.00  0.00     0.035 A 
HETATM    7  C   UNL     1     -43.051  55.853 -53.585  1.00  0.00     0.106 A 
HETATM    8  C   UNL     1     -42.254  54.618 -53.153  1.00  0.00     0.081 A 
HETATM    9  C   UNL     1     -42.271  54.302 -51.763  1.00  0.00     0.100 C 
HETATM   10  N   UNL     1     -42.281  54.035 -50.633  1.00  0.00    -0.191 NA
HETATM   11  C   UNL     1     -41.595  53.816 -54.034  1.00  0.00     0.140 A 
HETATM   12  O   UNL     1     -41.595  54.068 -55.418  1.00  0.00    -0.279 OA
ENDROOT
BRANCH   7  13
HETATM   13  C   UNL     1     -42.503  57.157 -53.001  1.00  0.00    -0.033 A 
HETATM   14  C   UNL     1     -43.306  58.025 -52.192  1.00  0.00    -0.019 A 
HETATM   15  C   UNL     1     -42.722  59.222 -51.696  1.00  0.00    -0.025 A 
HETATM   16  C   UNL     1     -44.657  57.781 -51.836  1.00  0.00     0.013 A 
HETATM   17  C   UNL     1     -43.475  60.110 -50.910  1.00  0.00     0.012 A 
HETATM   18  C   UNL     1     -41.386  59.531 -51.982  1.00  0.00     0.012 A 
HETATM   19  C   UNL     1     -44.802  59.839 -50.587  1.00  0.00     0.001 A 
HETATM   20  C   UNL     1     -45.391  58.672 -51.047  1.00  0.00     0.001 A 
HETATM   21  C   UNL     1     -40.602  58.674 -52.742  1.00  0.00     0.001 A 
HETATM   22  C   UNL     1     -41.150  57.499 -53.239  1.00  0.00     0.009 A 
ENDBRANCH   7  13
BRANCH  11  23
HETATM   23  N   UNL     1     -40.872  52.691 -53.703  1.00  0.00    -0.282 NA
HETATM   24  H   UNL     1     -40.325  52.283 -54.456  1.00  0.00     0.126 HD
HETATM   25  H   UNL     1     -41.433  52.009 -53.200  1.00  0.00     0.126 HD
ENDBRANCH  11  23
BRANCH   1  26
HETATM   26  C   UNL     1     -44.503  58.052 -55.768  1.00  0.00     0.057 C 
HETATM   27  C   UNL     1     -43.728  59.354 -55.634  1.00  0.00     0.011 C 
ENDBRANCH   1  26
TORSDOF 3
ENDMDL
MODEL 7
REMARK VINA RESULT:      -7.1      2.598      4.953
REMARK  3 active torsions:
REMARK  status: ('A' for Active; 'I' for Inactive)
REMARK    1  A    between atoms: C_2  and  C_3 
REMARK    2  A    between atoms: C_9  and  C_10 
REMARK    3  A    between atoms: C_23  and  N_24 
ROOT
HETATM    1  C   UNL     1     -41.687  54.726 -53.535  1.00  0.00     0.066 A 
HETATM    2  N   UNL     1     -42.107  53.517 -53.946  1.00  0.00    -0.177 NA
HETATM    3  N   UNL     1     -42.680  53.749 -55.143  1.00  0.00    -0.256 N 
HETATM    4  H   UNL     1     -43.069  52.969 -55.660  1.00  0.00     0.191 HD
HETATM    5  C   UNL     1     -42.635  55.057 -55.501  1.00  0.00     0.175 A 
HETATM    6  C   UNL     1     -42.006  55.729 -54.484  1.00  0.00     0.035 A 
HETATM    7  C   UNL     1     -41.773  57.199 -54.598  1.00  0.00     0.106 A 
HETATM    8  C   UNL     1     -42.292  57.721 -55.942  1.00  0.00     0.081 A 
HETATM    9  C   UNL     1     -42.058  59.098 -56.226  1.00  0.00     0.100 C 
HETATM   10  N   UNL     1     -41.869  60.218 -56.466  1.00  0.00    -0.191 NA
HETATM   11  C   UNL     1     -42.905  56.922 -56.860  1.00  0.00     0.140 A 
HETATM   12  O   UNL     1     -43.111  55.549 -56.637  1.00  0.00    -0.279 OA
ENDROOT
BRANCH   7  13
HETATM   13  C   UNL     1     -42.463  57.848 -53.396  1.00  0.00    -0.033 A 
HETATM   14  C   UNL     1     -41.724  58.490 -52.350  1.00  0.00    -0.019 A 
HETATM   15  C   UNL     1     -42.441  59.059 -51.263  1.00  0.00    -0.025 A 
HETATM   16  C   UNL     1     -40.311  58.610 -52.312  1.00  0.00     0.013 A 
HETATM   17  C   UNL     1     -41.758  59.688 -50.208  1.00  0.00     0.012 A 
HETATM   18  C   UNL     1     -43.840  59.005 -51.230  1.00  0.00     0.012 A 
HETATM   19  C   UNL     1     -40.369  59.779 -50.204  1.00  0.00     0.001 A 
HETATM   20  C   UNL     1     -39.646  59.244 -51.258  1.00  0.00     0.001 A 
HETATM   21  C   UNL     1     -44.555  58.407 -52.260  1.00  0.00     0.001 A 
HETATM   22  C   UNL     1     -43.877  57.843 -53.331  1.00  0.00     0.009 A 
ENDBRANCH   7  13
BRANCH  11  23
HETATM   23  N   UNL     1     -43.382  57.336 -58.085  1.00  0.00    -0.282 NA
HETATM   24  H   UNL     1     -43.797  58.264 -58.104  1.00  0.00     0.126 HD
HETATM   25  H   UNL     1     -43.962  56.629 -58.528  1.00  0.00     0.126 HD
ENDBRANCH  11  23
BRANCH   1  26
HETATM   26  C   UNL     1     -40.985  54.864 -52.225  1.00  0.00     0.057 C 
HETATM   27  C   UNL     1     -41.951  55.053 -51.066  1.00  0.00     0.011 C 
ENDBRANCH   1  26
TORSDOF 3
ENDMDL
MODEL 8
REMARK VINA RESULT:      -7.0      2.877      5.294
REMARK  3 active torsions:
REMARK  status: ('A' for Active; 'I' for Inactive)
REMARK    1  A    between atoms: C_2  and  C_3 
REMARK    2  A    between atoms: C_9  and  C_10 
REMARK    3  A    between atoms: C_23  and  N_24 
ROOT
HETATM    1  C   UNL     1     -42.017  60.033 -59.080  1.00  0.00     0.066 A 
HETATM    2  N   UNL     1     -41.492  61.262 -58.929  1.00  0.00    -0.177 NA
HETATM    3  N   UNL     1     -41.357  61.410 -57.597  1.00  0.00    -0.256 N 
HETATM    4  H   UNL     1     -40.964  62.271 -57.237  1.00  0.00     0.191 HD
HETATM    5  C   UNL     1     -41.775  60.320 -56.905  1.00  0.00     0.175 A 
HETATM    6  C   UNL     1     -42.218  59.406 -57.825  1.00  0.00     0.035 A 
HETATM    7  C   UNL     1     -42.718  58.075 -57.369  1.00  0.00     0.106 A 
HETATM    8  C   UNL     1     -42.608  57.955 -55.846  1.00  0.00     0.081 A 
HETATM    9  C   UNL     1     -42.969  56.700 -55.276  1.00  0.00     0.100 C 
HETATM   10  N   UNL     1     -43.260  55.680 -54.804  1.00  0.00    -0.191 NA
HETATM   11  C   UNL     1     -42.145  58.963 -55.055  1.00  0.00     0.140 A 
HETATM   12  O   UNL     1     -41.733  60.200 -55.584  1.00  0.00    -0.279 OA
ENDROOT
BRANCH   7  13
HETATM   13  C   UNL     1     -44.155  57.947 -57.879  1.00  0.00    -0.033 A 
HETATM   14  C   UNL     1     -44.535  56.952 -58.838  1.00  0.00    -0.019 A 
HETATM   15  C   UNL     1     -45.889  56.906 -59.268  1.00  0.00    -0.025 A 
HETATM   16  C   UNL     1     -43.658  55.989 -59.399  1.00  0.00     0.013 A 
HETATM   17  C   UNL     1     -46.306  55.957 -60.215  1.00  0.00     0.012 A 
HETATM   18  C   UNL     1     -46.829  57.806 -58.748  1.00  0.00     0.012 A 
HETATM   19  C   UNL     1     -45.412  55.032 -60.749  1.00  0.00     0.001 A 
HETATM   20  C   UNL     1     -44.089  55.047 -60.338  1.00  0.00     0.001 A 
HETATM   21  C   UNL     1     -46.463  58.751 -57.798  1.00  0.00     0.001 A 
HETATM   22  C   UNL     1     -45.146  58.816 -57.364  1.00  0.00     0.009 A 
ENDBRANCH   7  13
BRANCH  11  23
HETATM   23  N   UNL     1     -42.017  58.907 -53.684  1.00  0.00    -0.282 NA
HETATM   24  H   UNL     1     -41.199  59.373 -53.300  1.00  0.00     0.126 HD
HETATM   25  H   UNL     1     -42.146  57.965 -53.325  1.00  0.00     0.126 HD
ENDBRANCH  11  23
BRANCH   1  26
HETATM   26  C   UNL     1     -42.306  59.511 -60.448  1.00  0.00     0.057 C 
HETATM   27  C   UNL     1     -43.689  59.906 -60.940  1.00  0.00     0.011 C 
ENDBRANCH   1  26
TORSDOF 3
ENDMDL
MODEL 9
REMARK VINA RESULT:      -6.9     16.282     18.306
REMARK  3 active torsions:
REMARK  status: ('A' for Active; 'I' for Inactive)
REMARK    1  A    between atoms: C_2  and  C_3 
REMARK    2  A    between atoms: C_9  and  C_10 
REMARK    3  A    between atoms: C_23  and  N_24 
ROOT
HETATM    1  C   UNL     1     -38.179  40.989 -53.645  1.00  0.00     0.066 A 
HETATM    2  N   UNL     1     -38.600  40.743 -52.392  1.00  0.00    -0.177 NA
HETATM    3  N   UNL     1     -37.498  40.315 -51.745  1.00  0.00    -0.256 N 
HETATM    4  H   UNL     1     -37.569  40.074 -50.764  1.00  0.00     0.191 HD
HETATM    5  C   UNL     1     -36.401  40.284 -52.543  1.00  0.00     0.175 A 
HETATM    6  C   UNL     1     -36.798  40.705 -53.786  1.00  0.00     0.035 A 
HETATM    7  C   UNL     1     -35.797  40.811 -54.889  1.00  0.00     0.106 A 
HETATM    8  C   UNL     1     -34.402  40.429 -54.385  1.00  0.00     0.081 A 
HETATM    9  C   UNL     1     -33.328  40.569 -55.311  1.00  0.00     0.100 C 
HETATM   10  N   UNL     1     -32.446  40.681 -56.058  1.00  0.00    -0.191 NA
HETATM   11  C   UNL     1     -34.162  40.022 -53.107  1.00  0.00     0.140 A 
HETATM   12  O   UNL     1     -35.188  39.919 -52.150  1.00  0.00    -0.279 OA
ENDROOT
BRANCH   7  13
HETATM   13  C   UNL     1     -36.293  39.910 -56.022  1.00  0.00    -0.033 A 
HETATM   14  C   UNL     1     -36.674  40.434 -57.300  1.00  0.00    -0.019 A 
HETATM   15  C   UNL     1     -37.134  39.529 -58.294  1.00  0.00    -0.025 A 
HETATM   16  C   UNL     1     -36.624  41.804 -57.661  1.00  0.00     0.013 A 
HETATM   17  C   UNL     1     -37.531  39.998 -59.558  1.00  0.00     0.012 A 
HETATM   18  C   UNL     1     -37.195  38.154 -58.029  1.00  0.00     0.012 A 
HETATM   19  C   UNL     1     -37.474  41.353 -59.873  1.00  0.00     0.001 A 
HETATM   20  C   UNL     1     -37.017  42.255 -58.925  1.00  0.00     0.001 A 
HETATM   21  C   UNL     1     -36.798  37.647 -56.799  1.00  0.00     0.001 A 
HETATM   22  C   UNL     1     -36.347  38.511 -55.811  1.00  0.00     0.009 A 
ENDBRANCH   7  13
BRANCH  11  23
HETATM   23  N   UNL     1     -32.929  39.676 -52.598  1.00  0.00    -0.282 NA
HETATM   24  H   UNL     1     -32.128  40.096 -53.063  1.00  0.00     0.126 HD
HETATM   25  H   UNL     1     -32.836  38.671 -52.470  1.00  0.00     0.126 HD
ENDBRANCH  11  23
BRANCH   1  26
HETATM   26  C   UNL     1     -39.143  41.494 -54.667  1.00  0.00     0.057 C 
HETATM   27  C   UNL     1     -40.575  41.506 -54.158  1.00  0.00     0.011 C 
ENDBRANCH   1  26
TORSDOF 3
ENDMDL
MODEL 10
REMARK VINA RESULT:      -6.9      2.651      4.712
REMARK  3 active torsions:
REMARK  status: ('A' for Active; 'I' for Inactive)
REMARK    1  A    between atoms: C_2  and  C_3 
REMARK    2  A    between atoms: C_9  and  C_10 
REMARK    3  A    between atoms: C_23  and  N_24 
ROOT
HETATM    1  C   UNL     1     -45.426  59.567 -52.665  1.00  0.00     0.066 A 
HETATM    2  N   UNL     1     -45.970  60.635 -53.275  1.00  0.00    -0.177 NA
HETATM    3  N   UNL     1     -45.784  60.402 -54.589  1.00  0.00    -0.256 N 
HETATM    4  H   UNL     1     -46.127  61.079 -55.260  1.00  0.00     0.191 HD
HETATM    5  C   UNL     1     -45.146  59.228 -54.828  1.00  0.00     0.175 A 
HETATM    6  C   UNL     1     -44.888  58.657 -53.608  1.00  0.00     0.035 A 
HETATM    7  C   UNL     1     -44.214  57.327 -53.539  1.00  0.00     0.106 A 
HETATM    8  C   UNL     1     -43.941  56.791 -54.948  1.00  0.00     0.081 A 
HETATM    9  C   UNL     1     -43.379  55.484 -55.036  1.00  0.00     0.100 C 
HETATM   10  N   UNL     1     -42.922  54.420 -55.117  1.00  0.00    -0.191 NA
HETATM   11  C   UNL     1     -44.256  57.483 -56.078  1.00  0.00     0.140 A 
HETATM   12  O   UNL     1     -44.857  58.754 -56.033  1.00  0.00    -0.279 OA
ENDROOT
BRANCH   7  13
HETATM   13  C   UNL     1     -42.940  57.521 -52.714  1.00  0.00    -0.033 A 
HETATM   14  C   UNL     1     -42.565  56.615 -51.669  1.00  0.00    -0.019 A 
HETATM   15  C   UNL     1     -41.371  56.873 -50.943  1.00  0.00    -0.025 A 
HETATM   16  C   UNL     1     -43.297  55.459 -51.297  1.00  0.00     0.013 A 
HETATM   17  C   UNL     1     -40.970  56.019 -49.902  1.00  0.00     0.012 A 
HETATM   18  C   UNL     1     -40.575  57.982 -51.259  1.00  0.00     0.012 A 
HETATM   19  C   UNL     1     -41.720  54.897 -49.562  1.00  0.00     0.001 A 
HETATM   20  C   UNL     1     -42.882  54.615 -50.262  1.00  0.00     0.001 A 
HETATM   21  C   UNL     1     -40.926  58.842 -52.291  1.00  0.00     0.001 A 
HETATM   22  C   UNL     1     -42.089  58.612 -53.013  1.00  0.00     0.009 A 
ENDBRANCH   7  13
BRANCH  11  23
HETATM   23  N   UNL     1     -44.042  57.047 -57.367  1.00  0.00    -0.282 NA
HETATM   24  H   UNL     1     -43.182  57.371 -57.803  1.00  0.00     0.126 HD
HETATM   25  H   UNL     1     -44.861  57.172 -57.956  1.00  0.00     0.126 HD
ENDBRANCH  11  23
BRANCH   1  26
HETATM   26  C   UNL     1     -45.449  59.471 -51.175  1.00  0.00     0.057 C 
HETATM   27  C   UNL     1     -44.322  60.258 -50.525  1.00  0.00     0.011 C 
ENDBRANCH   1  26
TORSDOF 3
ENDMDL
