MODEL 1
REMARK VINA RESULT:      -8.0      0.000      0.000
REMARK  5 active torsions:
REMARK  status: ('A' for Active; 'I' for Inactive)
REMARK    1  A    between atoms: C_2  and  C_3 
REMARK    2  A    between atoms: C_3  and  N_4 
REMARK       I    between atoms: N_4  and  C_5 
REMARK    3  A    between atoms: C_5  and  C_6 
REMARK    4  A    between atoms: C_19  and  O_20 
REMARK    5  A    between atoms: O_20  and  C_21 
ROOT
HETATM    1  N   UNL     1     -42.635  54.969 -53.926  1.00  0.00    -0.353 N 
HETATM    2  C   UNL     1     -41.646  54.226 -54.529  1.00  0.00     0.254 C 
HETATM    3  O   UNL     1     -41.370  54.330 -55.720  1.00  0.00    -0.268 OA
HETATM    4  H   UNL     1     -42.865  54.786 -52.950  1.00  0.00     0.163 HD
ENDROOT
BRANCH   1   5
HETATM    5  C   UNL     1     -43.463  55.845 -54.712  1.00  0.00     0.161 C 
BRANCH   5   6
HETATM    6  C   UNL     1     -42.816  57.175 -54.969  1.00  0.00    -0.035 A 
HETATM    7  C   UNL     1     -43.073  57.885 -56.145  1.00  0.00     0.028 A 
HETATM    8  C   UNL     1     -42.503  59.140 -56.304  1.00  0.00     0.120 A 
HETATM    9  N   UNL     1     -41.711  59.730 -55.385  1.00  0.00    -0.237 NA
HETATM   10  C   UNL     1     -41.461  59.018 -54.268  1.00  0.00     0.164 A 
HETATM   11  C   UNL     1     -41.963  57.750 -54.023  1.00  0.00     0.066 A 
BRANCH  10  12
HETATM   12  O   UNL     1     -40.663  59.571 -53.284  1.00  0.00    -0.329 OA
BRANCH  12  13
HETATM   13  C   UNL     1     -40.894  59.075 -51.949  1.00  0.00     0.130 C 
HETATM   14  C   UNL     1     -39.695  59.259 -50.980  1.00  0.00     0.032 C 
HETATM   15  C   UNL     1     -40.722  59.528 -49.866  1.00  0.00     0.005 C 
HETATM   16  C   UNL     1     -41.697  59.974 -50.972  1.00  0.00     0.032 C 
ENDBRANCH  12  13
ENDBRANCH  10  12
ENDBRANCH   5   6
ENDBRANCH   1   5
BRANCH   2  17
HETATM   17  C   UNL     1     -40.908  53.258 -53.685  1.00  0.00     0.066 A 
HETATM   18  C   UNL     1     -40.690  53.468 -52.308  1.00  0.00     0.100 A 
HETATM   19  C   UNL     1     -39.989  52.507 -51.579  1.00  0.00     0.066 A 
HETATM   20  N   UNL     1     -41.063  54.512 -51.484  1.00  0.00    -0.241 NA
HETATM   21  N   UNL     1     -39.951  53.002 -50.300  1.00  0.00    -0.349 N 
HETATM   22  C   UNL     1     -39.487  51.332 -52.142  1.00  0.00     0.074 A 
HETATM   23  H   UNL     1     -39.517  52.560 -49.502  1.00  0.00     0.167 HD
HETATM   24  C   UNL     1     -40.605  54.203 -50.292  1.00  0.00     0.208 A 
HETATM   25  C   UNL     1     -39.719  51.148 -53.505  1.00  0.00     0.119 A 
HETATM   26  F   UNL     1     -39.258  50.035 -54.093  1.00  0.00    -0.206 F 
HETATM   27  C   UNL     1     -40.409  52.081 -54.271  1.00  0.00     0.061 A 
ENDBRANCH   2  17
TORSDOF 5
ENDMDL
MODEL 2
REMARK VINA RESULT:      -7.7      1.441      1.587
REMARK  5 active torsions:
REMARK  status: ('A' for Active; 'I' for Inactive)
REMARK    1  A    between atoms: C_2  and  C_3 
REMARK    2  A    between atoms: C_3  and  N_4 
REMARK       I    between atoms: N_4  and  C_5 
REMARK    3  A    between atoms: C_5  and  C_6 
REMARK    4  A    between atoms: C_19  and  O_20 
REMARK    5  A    between atoms: O_20  and  C_21 
ROOT
HETATM    1  N   UNL     1     -43.054  54.570 -53.796  1.00  0.00    -0.353 N 
HETATM    2  C   UNL     1     -41.895  54.123 -54.388  1.00  0.00     0.254 C 
HETATM    3  O   UNL     1     -41.547  54.469 -55.513  1.00  0.00    -0.268 OA
HETATM    4  H   UNL     1     -43.323  54.190 -52.888  1.00  0.00     0.163 HD
ENDROOT
BRANCH   1   5
HETATM    5  C   UNL     1     -43.968  55.403 -54.531  1.00  0.00     0.161 C 
BRANCH   5   6
HETATM    6  C   UNL     1     -44.005  56.813 -54.017  1.00  0.00    -0.035 A 
HETATM    7  C   UNL     1     -44.712  57.809 -54.698  1.00  0.00     0.028 A 
HETATM    8  C   UNL     1     -44.771  59.079 -54.144  1.00  0.00     0.120 A 
HETATM    9  N   UNL     1     -44.189  59.421 -52.976  1.00  0.00    -0.237 NA
HETATM   10  C   UNL     1     -43.496  58.450 -52.348  1.00  0.00     0.164 A 
HETATM   11  C   UNL     1     -43.358  57.157 -52.826  1.00  0.00     0.066 A 
BRANCH  10  12
HETATM   12  O   UNL     1     -42.884  58.735 -51.143  1.00  0.00    -0.329 OA
BRANCH  12  13
HETATM   13  C   UNL     1     -41.647  59.473 -51.237  1.00  0.00     0.130 C 
HETATM   14  C   UNL     1     -40.810  59.490 -49.929  1.00  0.00     0.032 C 
HETATM   15  C   UNL     1     -39.551  59.425 -50.812  1.00  0.00     0.005 C 
HETATM   16  C   UNL     1     -40.431  58.766 -51.891  1.00  0.00     0.032 C 
ENDBRANCH  12  13
ENDBRANCH  10  12
ENDBRANCH   5   6
ENDBRANCH   1   5
BRANCH   2  17
HETATM   17  C   UNL     1     -41.056  53.175 -53.619  1.00  0.00     0.066 A 
HETATM   18  C   UNL     1     -40.883  53.279 -52.224  1.00  0.00     0.100 A 
HETATM   19  C   UNL     1     -40.081  52.343 -51.569  1.00  0.00     0.066 A 
HETATM   20  N   UNL     1     -41.392  54.187 -51.316  1.00  0.00    -0.241 NA
HETATM   21  N   UNL     1     -40.120  52.717 -50.249  1.00  0.00    -0.349 N 
HETATM   22  C   UNL     1     -39.432  51.295 -52.225  1.00  0.00     0.074 A 
HETATM   23  H   UNL     1     -39.646  52.257 -49.484  1.00  0.00     0.167 HD
HETATM   24  C   UNL     1     -40.915  53.824 -50.147  1.00  0.00     0.208 A 
HETATM   25  C   UNL     1     -39.622  51.215 -53.605  1.00  0.00     0.119 A 
HETATM   26  F   UNL     1     -39.022  50.226 -54.282  1.00  0.00    -0.206 F 
HETATM   27  C   UNL     1     -40.410  52.126 -54.298  1.00  0.00     0.061 A 
ENDBRANCH   2  17
TORSDOF 5
ENDMDL
MODEL 3
REMARK VINA RESULT:      -7.6      2.645      5.031
REMARK  5 active torsions:
REMARK  status: ('A' for Active; 'I' for Inactive)
REMARK    1  A    between atoms: C_2  and  C_3 
REMARK    2  A    between atoms: C_3  and  N_4 
REMARK       I    between atoms: N_4  and  C_5 
REMARK    3  A    between atoms: C_5  and  C_6 
REMARK    4  A    between atoms: C_19  and  O_20 
REMARK    5  A    between atoms: O_20  and  C_21 
ROOT
HETATM    1  N   UNL     1     -42.108  55.984 -54.302  1.00  0.00    -0.353 N 
HETATM    2  C   UNL     1     -42.508  54.675 -54.159  1.00  0.00     0.254 C 
HETATM    3  O   UNL     1     -43.628  54.284 -54.474  1.00  0.00    -0.268 OA
HETATM    4  H   UNL     1     -41.189  56.261 -53.955  1.00  0.00     0.163 HD
ENDROOT
BRANCH   1   5
HETATM    5  C   UNL     1     -43.045  56.983 -54.745  1.00  0.00     0.161 C 
BRANCH   5   6
HETATM    6  C   UNL     1     -42.837  57.372 -56.180  1.00  0.00    -0.035 A 
HETATM    7  C   UNL     1     -42.323  58.627 -56.518  1.00  0.00     0.028 A 
HETATM    8  C   UNL     1     -42.087  58.912 -57.855  1.00  0.00     0.120 A 
HETATM    9  N   UNL     1     -42.319  58.046 -58.863  1.00  0.00    -0.237 NA
HETATM   10  C   UNL     1     -42.833  56.850 -58.514  1.00  0.00     0.164 A 
HETATM   11  C   UNL     1     -43.125  56.475 -57.213  1.00  0.00     0.066 A 
BRANCH  10  12
HETATM   12  O   UNL     1     -43.085  55.915 -59.501  1.00  0.00    -0.329 OA
BRANCH  12  13
HETATM   13  C   UNL     1     -44.182  56.229 -60.385  1.00  0.00     0.130 C 
HETATM   14  C   UNL     1     -44.952  54.990 -60.917  1.00  0.00     0.032 C 
HETATM   15  C   UNL     1     -46.237  55.831 -60.824  1.00  0.00     0.005 C 
HETATM   16  C   UNL     1     -45.526  56.667 -59.744  1.00  0.00     0.032 C 
ENDBRANCH  12  13
ENDBRANCH  10  12
ENDBRANCH   5   6
ENDBRANCH   1   5
BRANCH   2  17
HETATM   17  C   UNL     1     -41.530  53.720 -53.588  1.00  0.00     0.066 A 
HETATM   18  C   UNL     1     -41.000  53.867 -52.290  1.00  0.00     0.100 A 
HETATM   19  C   UNL     1     -40.087  52.921 -51.821  1.00  0.00     0.066 A 
HETATM   20  N   UNL     1     -41.227  54.829 -51.325  1.00  0.00    -0.241 NA
HETATM   21  N   UNL     1     -39.772  53.344 -50.553  1.00  0.00    -0.349 N 
HETATM   22  C   UNL     1     -39.664  51.823 -52.573  1.00  0.00     0.074 A 
HETATM   23  H   UNL     1     -39.132  52.891 -49.916  1.00  0.00     0.167 HD
HETATM   24  C   UNL     1     -40.477  54.488 -50.302  1.00  0.00     0.208 A 
HETATM   25  C   UNL     1     -40.205  51.702 -53.852  1.00  0.00     0.119 A 
HETATM   26  F   UNL     1     -39.833  50.664 -54.614  1.00  0.00    -0.206 F 
HETATM   27  C   UNL     1     -41.116  52.620 -54.362  1.00  0.00     0.061 A 
ENDBRANCH   2  17
TORSDOF 5
ENDMDL
MODEL 4
REMARK VINA RESULT:      -7.5      1.834      2.373
REMARK  5 active torsions:
REMARK  status: ('A' for Active; 'I' for Inactive)
REMARK    1  A    between atoms: C_2  and  C_3 
REMARK    2  A    between atoms: C_3  and  N_4 
REMARK       I    between atoms: N_4  and  C_5 
REMARK    3  A    between atoms: C_5  and  C_6 
REMARK    4  A    between atoms: C_19  and  O_20 
REMARK    5  A    between atoms: O_20  and  C_21 
ROOT
HETATM    1  N   UNL     1     -42.047  54.676 -54.332  1.00  0.00    -0.353 N 
HETATM    2  C   UNL     1     -40.844  54.014 -54.413  1.00  0.00     0.254 C 
HETATM    3  O   UNL     1     -40.099  54.105 -55.384  1.00  0.00    -0.268 OA
HETATM    4  H   UNL     1     -42.654  54.503 -53.531  1.00  0.00     0.163 HD
ENDROOT
BRANCH   1   5
HETATM    5  C   UNL     1     -42.530  55.441 -55.452  1.00  0.00     0.161 C 
BRANCH   5   6
HETATM    6  C   UNL     1     -42.361  56.919 -55.258  1.00  0.00    -0.035 A 
HETATM    7  C   UNL     1     -43.197  57.831 -55.909  1.00  0.00     0.028 A 
HETATM    8  C   UNL     1     -43.043  59.183 -55.643  1.00  0.00     0.120 A 
HETATM    9  N   UNL     1     -42.132  59.684 -54.782  1.00  0.00    -0.237 NA
HETATM   10  C   UNL     1     -41.324  58.787 -54.181  1.00  0.00     0.164 A 
HETATM   11  C   UNL     1     -41.382  57.420 -54.395  1.00  0.00     0.066 A 
BRANCH  10  12
HETATM   12  O   UNL     1     -40.376  59.236 -53.282  1.00  0.00    -0.329 OA
BRANCH  12  13
HETATM   13  C   UNL     1     -40.594  58.850 -51.909  1.00  0.00     0.130 C 
HETATM   14  C   UNL     1     -39.469  59.290 -50.933  1.00  0.00     0.032 C 
HETATM   15  C   UNL     1     -40.567  59.529 -49.881  1.00  0.00     0.005 C 
HETATM   16  C   UNL     1     -41.546  59.727 -51.053  1.00  0.00     0.032 C 
ENDBRANCH  12  13
ENDBRANCH  10  12
ENDBRANCH   5   6
ENDBRANCH   1   5
BRANCH   2  17
HETATM   17  C   UNL     1     -40.461  53.152 -53.271  1.00  0.00     0.066 A 
HETATM   18  C   UNL     1     -40.150  51.786 -53.427  1.00  0.00     0.100 A 
HETATM   19  C   UNL     1     -39.793  51.040 -52.302  1.00  0.00     0.066 A 
HETATM   20  N   UNL     1     -40.127  50.987 -54.554  1.00  0.00    -0.241 NA
HETATM   21  N   UNL     1     -39.558  49.777 -52.785  1.00  0.00    -0.349 N 
HETATM   22  C   UNL     1     -39.721  51.578 -51.016  1.00  0.00     0.074 A 
HETATM   23  H   UNL     1     -39.276  48.973 -52.241  1.00  0.00     0.167 HD
HETATM   24  C   UNL     1     -39.771  49.794 -54.135  1.00  0.00     0.208 A 
HETATM   25  C   UNL     1     -40.032  52.931 -50.891  1.00  0.00     0.119 A 
HETATM   26  F   UNL     1     -39.977  53.496 -49.676  1.00  0.00    -0.206 F 
HETATM   27  C   UNL     1     -40.396  53.712 -51.982  1.00  0.00     0.061 A 
ENDBRANCH   2  17
TORSDOF 5
ENDMDL
MODEL 5
REMARK VINA RESULT:      -7.2     15.195     18.196
REMARK  5 active torsions:
REMARK  status: ('A' for Active; 'I' for Inactive)
REMARK    1  A    between atoms: C_2  and  C_3 
REMARK    2  A    between atoms: C_3  and  N_4 
REMARK       I    between atoms: N_4  and  C_5 
REMARK    3  A    between atoms: C_5  and  C_6 
REMARK    4  A    between atoms: C_19  and  O_20 
REMARK    5  A    between atoms: O_20  and  C_21 
ROOT
HETATM    1  N   UNL     1     -34.283  41.496 -52.430  1.00  0.00    -0.353 N 
HETATM    2  C   UNL     1     -35.401  41.852 -53.147  1.00  0.00     0.254 C 
HETATM    3  O   UNL     1     -36.430  42.258 -52.615  1.00  0.00    -0.268 OA
HETATM    4  H   UNL     1     -33.484  41.097 -52.925  1.00  0.00     0.163 HD
ENDROOT
BRANCH   1   5
HETATM    5  C   UNL     1     -34.314  41.496 -50.991  1.00  0.00     0.161 C 
BRANCH   5   6
HETATM    6  C   UNL     1     -33.595  40.319 -50.398  1.00  0.00    -0.035 A 
HETATM    7  C   UNL     1     -34.016  39.012 -50.660  1.00  0.00     0.028 A 
HETATM    8  C   UNL     1     -33.276  37.959 -50.142  1.00  0.00     0.120 A 
HETATM    9  N   UNL     1     -32.162  38.114 -49.398  1.00  0.00    -0.237 NA
HETATM   10  C   UNL     1     -31.787  39.383 -49.142  1.00  0.00     0.164 A 
HETATM   11  C   UNL     1     -32.467  40.502 -49.592  1.00  0.00     0.066 A 
BRANCH  10  12
HETATM   12  O   UNL     1     -30.649  39.608 -48.392  1.00  0.00    -0.329 OA
BRANCH  12  13
HETATM   13  C   UNL     1     -30.872  39.855 -46.987  1.00  0.00     0.130 C 
HETATM   14  C   UNL     1     -30.346  38.737 -46.047  1.00  0.00     0.032 C 
HETATM   15  C   UNL     1     -29.967  39.845 -45.049  1.00  0.00     0.005 C 
HETATM   16  C   UNL     1     -29.885  40.801 -46.253  1.00  0.00     0.032 C 
ENDBRANCH  12  13
ENDBRANCH  10  12
ENDBRANCH   5   6
ENDBRANCH   1   5
BRANCH   2  17
HETATM   17  C   UNL     1     -35.340  41.719 -54.621  1.00  0.00     0.066 A 
HETATM   18  C   UNL     1     -34.239  41.138 -55.282  1.00  0.00     0.100 A 
HETATM   19  C   UNL     1     -34.257  41.043 -56.674  1.00  0.00     0.066 A 
HETATM   20  N   UNL     1     -33.065  40.605 -54.785  1.00  0.00    -0.241 NA
HETATM   21  N   UNL     1     -33.065  40.443 -56.996  1.00  0.00    -0.349 N 
HETATM   22  C   UNL     1     -35.320  41.494 -57.460  1.00  0.00     0.074 A 
HETATM   23  H   UNL     1     -32.743  40.218 -57.927  1.00  0.00     0.167 HD
HETATM   24  C   UNL     1     -32.387  40.201 -55.835  1.00  0.00     0.208 A 
HETATM   25  C   UNL     1     -36.396  42.063 -56.780  1.00  0.00     0.119 A 
HETATM   26  F   UNL     1     -37.443  42.510 -57.489  1.00  0.00    -0.206 F 
HETATM   27  C   UNL     1     -36.420  42.180 -55.395  1.00  0.00     0.061 A 
ENDBRANCH   2  17
TORSDOF 5
ENDMDL
MODEL 6
REMARK VINA RESULT:      -7.2      1.819      3.605
REMARK  5 active torsions:
REMARK  status: ('A' for Active; 'I' for Inactive)
REMARK    1  A    between atoms: C_2  and  C_3 
REMARK    2  A    between atoms: C_3  and  N_4 
REMARK       I    between atoms: N_4  and  C_5 
REMARK    3  A    between atoms: C_5  and  C_6 
REMARK    4  A    between atoms: C_19  and  O_20 
REMARK    5  A    between atoms: O_20  and  C_21 
ROOT
HETATM    1  N   UNL     1     -42.088  54.559 -54.596  1.00  0.00    -0.353 N 
HETATM    2  C   UNL     1     -40.894  53.895 -54.760  1.00  0.00     0.254 C 
HETATM    3  O   UNL     1     -40.203  54.009 -55.768  1.00  0.00    -0.268 OA
HETATM    4  H   UNL     1     -42.650  54.367 -53.767  1.00  0.00     0.163 HD
ENDROOT
BRANCH   1   5
HETATM    5  C   UNL     1     -42.627  55.355 -55.668  1.00  0.00     0.161 C 
BRANCH   5   6
HETATM    6  C   UNL     1     -42.358  56.821 -55.490  1.00  0.00    -0.035 A 
HETATM    7  C   UNL     1     -41.730  57.302 -54.338  1.00  0.00     0.028 A 
HETATM    8  C   UNL     1     -41.443  58.657 -54.254  1.00  0.00     0.120 A 
HETATM    9  N   UNL     1     -41.730  59.551 -55.223  1.00  0.00    -0.237 NA
HETATM   10  C   UNL     1     -42.353  59.066 -56.315  1.00  0.00     0.164 A 
HETATM   11  C   UNL     1     -42.702  57.737 -56.488  1.00  0.00     0.066 A 
BRANCH  10  12
HETATM   12  O   UNL     1     -42.666  59.930 -57.347  1.00  0.00    -0.329 OA
BRANCH  12  13
HETATM   13  C   UNL     1     -41.541  60.420 -58.107  1.00  0.00     0.130 C 
HETATM   14  C   UNL     1     -41.846  60.689 -59.605  1.00  0.00     0.032 C 
HETATM   15  C   UNL     1     -40.896  61.896 -59.513  1.00  0.00     0.005 C 
HETATM   16  C   UNL     1     -41.202  61.931 -58.005  1.00  0.00     0.032 C 
ENDBRANCH  12  13
ENDBRANCH  10  12
ENDBRANCH   5   6
ENDBRANCH   1   5
BRANCH   2  17
HETATM   17  C   UNL     1     -40.453  53.001 -53.664  1.00  0.00     0.066 A 
HETATM   18  C   UNL     1     -40.432  53.412 -52.316  1.00  0.00     0.100 A 
HETATM   19  C   UNL     1     -40.008  52.509 -51.340  1.00  0.00     0.066 A 
HETATM   20  N   UNL     1     -40.775  54.617 -51.734  1.00  0.00    -0.241 NA
HETATM   21  N   UNL     1     -40.104  53.205 -50.160  1.00  0.00    -0.349 N 
HETATM   22  C   UNL     1     -39.601  51.205 -51.625  1.00  0.00     0.074 A 
HETATM   23  H   UNL     1     -39.875  52.855 -49.241  1.00  0.00     0.167 HD
HETATM   24  C   UNL     1     -40.566  54.459 -50.446  1.00  0.00     0.208 A 
HETATM   25  C   UNL     1     -39.633  50.824 -52.967  1.00  0.00     0.119 A 
HETATM   26  F   UNL     1     -39.254  49.581 -53.293  1.00  0.00    -0.206 F 
HETATM   27  C   UNL     1     -40.046  51.690 -53.973  1.00  0.00     0.061 A 
ENDBRANCH   2  17
TORSDOF 5
ENDMDL
MODEL 7
REMARK VINA RESULT:      -7.2     15.299     18.257
REMARK  5 active torsions:
REMARK  status: ('A' for Active; 'I' for Inactive)
REMARK    1  A    between atoms: C_2  and  C_3 
REMARK    2  A    between atoms: C_3  and  N_4 
REMARK       I    between atoms: N_4  and  C_5 
REMARK    3  A    between atoms: C_5  and  C_6 
REMARK    4  A    between atoms: C_19  and  O_20 
REMARK    5  A    between atoms: O_20  and  C_21 
ROOT
HETATM    1  N   UNL     1     -33.292  40.520 -53.773  1.00  0.00    -0.353 N 
HETATM    2  C   UNL     1     -33.431  40.816 -55.109  1.00  0.00     0.254 C 
HETATM    3  O   UNL     1     -32.495  40.767 -55.902  1.00  0.00    -0.268 OA
HETATM    4  H   UNL     1     -34.091  40.649 -53.152  1.00  0.00     0.163 HD
ENDROOT
BRANCH   1   5
HETATM    5  C   UNL     1     -31.992  40.230 -53.227  1.00  0.00     0.161 C 
BRANCH   5   6
HETATM    6  C   UNL     1     -32.066  39.509 -51.912  1.00  0.00    -0.035 A 
HETATM    7  C   UNL     1     -32.293  38.131 -51.859  1.00  0.00     0.028 A 
HETATM    8  C   UNL     1     -32.285  37.503 -50.622  1.00  0.00     0.120 A 
HETATM    9  N   UNL     1     -32.066  38.140 -49.453  1.00  0.00    -0.237 NA
HETATM   10  C   UNL     1     -31.869  39.472 -49.528  1.00  0.00     0.164 A 
HETATM   11  C   UNL     1     -31.879  40.196 -50.709  1.00  0.00     0.066 A 
BRANCH  10  12
HETATM   12  O   UNL     1     -31.631  40.181 -48.367  1.00  0.00    -0.329 OA
BRANCH  12  13
HETATM   13  C   UNL     1     -30.795  39.515 -47.396  1.00  0.00     0.130 C 
HETATM   14  C   UNL     1     -30.101  40.468 -46.386  1.00  0.00     0.032 C 
HETATM   15  C   UNL     1     -30.304  39.379 -45.319  1.00  0.00     0.005 C 
HETATM   16  C   UNL     1     -31.487  38.872 -46.165  1.00  0.00     0.032 C 
ENDBRANCH  12  13
ENDBRANCH  10  12
ENDBRANCH   5   6
ENDBRANCH   1   5
BRANCH   2  17
HETATM   17  C   UNL     1     -34.775  41.220 -55.583  1.00  0.00     0.066 A 
HETATM   18  C   UNL     1     -35.890  41.290 -54.724  1.00  0.00     0.100 A 
HETATM   19  C   UNL     1     -37.123  41.685 -55.246  1.00  0.00     0.066 A 
HETATM   20  N   UNL     1     -36.007  41.029 -53.373  1.00  0.00    -0.241 NA
HETATM   21  N   UNL     1     -37.979  41.650 -54.173  1.00  0.00    -0.349 N 
HETATM   22  C   UNL     1     -37.317  42.021 -56.587  1.00  0.00     0.074 A 
HETATM   23  H   UNL     1     -38.964  41.879 -54.188  1.00  0.00     0.167 HD
HETATM   24  C   UNL     1     -37.267  41.252 -53.077  1.00  0.00     0.208 A 
HETATM   25  C   UNL     1     -36.197  41.945 -57.414  1.00  0.00     0.119 A 
HETATM   26  F   UNL     1     -36.330  42.259 -58.710  1.00  0.00    -0.206 F 
HETATM   27  C   UNL     1     -34.950  41.554 -56.939  1.00  0.00     0.061 A 
ENDBRANCH   2  17
TORSDOF 5
ENDMDL
MODEL 8
REMARK VINA RESULT:      -7.0      2.504      3.527
REMARK  5 active torsions:
REMARK  status: ('A' for Active; 'I' for Inactive)
REMARK    1  A    between atoms: C_2  and  C_3 
REMARK    2  A    between atoms: C_3  and  N_4 
REMARK       I    between atoms: N_4  and  C_5 
REMARK    3  A    between atoms: C_5  and  C_6 
REMARK    4  A    between atoms: C_19  and  O_20 
REMARK    5  A    between atoms: O_20  and  C_21 
ROOT
HETATM    1  N   UNL     1     -42.101  53.964 -55.031  1.00  0.00    -0.353 N 
HETATM    2  C   UNL     1     -40.784  53.946 -54.633  1.00  0.00     0.254 C 
HETATM    3  O   UNL     1     -39.946  54.725 -55.077  1.00  0.00    -0.268 OA
HETATM    4  H   UNL     1     -42.733  53.245 -54.678  1.00  0.00     0.163 HD
ENDROOT
BRANCH   1   5
HETATM    5  C   UNL     1     -42.530  54.853 -56.078  1.00  0.00     0.161 C 
BRANCH   5   6
HETATM    6  C   UNL     1     -43.220  56.077 -55.549  1.00  0.00    -0.035 A 
HETATM    7  C   UNL     1     -43.946  56.034 -54.356  1.00  0.00     0.028 A 
HETATM    8  C   UNL     1     -44.507  57.209 -53.876  1.00  0.00     0.120 A 
HETATM    9  N   UNL     1     -44.394  58.405 -54.490  1.00  0.00    -0.237 NA
HETATM   10  C   UNL     1     -43.706  58.417 -55.649  1.00  0.00     0.164 A 
HETATM   11  C   UNL     1     -43.126  57.298 -56.224  1.00  0.00     0.066 A 
BRANCH  10  12
HETATM   12  O   UNL     1     -43.546  59.613 -56.322  1.00  0.00    -0.329 OA
BRANCH  12  13
HETATM   13  C   UNL     1     -42.509  59.626 -57.325  1.00  0.00     0.130 C 
HETATM   14  C   UNL     1     -43.024  59.801 -58.779  1.00  0.00     0.032 C 
HETATM   15  C   UNL     1     -41.766  60.643 -59.054  1.00  0.00     0.005 C 
HETATM   16  C   UNL     1     -41.731  60.950 -57.545  1.00  0.00     0.032 C 
ENDBRANCH  12  13
ENDBRANCH  10  12
ENDBRANCH   5   6
ENDBRANCH   1   5
BRANCH   2  17
HETATM   17  C   UNL     1     -40.385  52.928 -53.634  1.00  0.00     0.066 A 
HETATM   18  C   UNL     1     -40.401  53.182 -52.248  1.00  0.00     0.100 A 
HETATM   19  C   UNL     1     -40.015  52.168 -51.369  1.00  0.00     0.066 A 
HETATM   20  N   UNL     1     -40.750  54.316 -51.541  1.00  0.00    -0.241 NA
HETATM   21  N   UNL     1     -40.140  52.726 -50.121  1.00  0.00    -0.349 N 
HETATM   22  C   UNL     1     -39.612  50.900 -51.790  1.00  0.00     0.074 A 
HETATM   23  H   UNL     1     -39.942  52.270 -49.242  1.00  0.00     0.167 HD
HETATM   24  C   UNL     1     -40.581  54.011 -50.275  1.00  0.00     0.208 A 
HETATM   25  C   UNL     1     -39.608  50.675 -53.167  1.00  0.00     0.119 A 
HETATM   26  F   UNL     1     -39.231  49.472 -53.623  1.00  0.00    -0.206 F 
HETATM   27  C   UNL     1     -39.982  51.655 -54.079  1.00  0.00     0.061 A 
ENDBRANCH   2  17
TORSDOF 5
ENDMDL
MODEL 9
REMARK VINA RESULT:      -7.0      1.580      2.000
REMARK  5 active torsions:
REMARK  status: ('A' for Active; 'I' for Inactive)
REMARK    1  A    between atoms: C_2  and  C_3 
REMARK    2  A    between atoms: C_3  and  N_4 
REMARK       I    between atoms: N_4  and  C_5 
REMARK    3  A    between atoms: C_5  and  C_6 
REMARK    4  A    between atoms: C_19  and  O_20 
REMARK    5  A    between atoms: O_20  and  C_21 
ROOT
HETATM    1  N   UNL     1     -42.440  55.207 -53.568  1.00  0.00    -0.353 N 
HETATM    2  C   UNL     1     -41.447  54.516 -54.221  1.00  0.00     0.254 C 
HETATM    3  O   UNL     1     -41.093  54.784 -55.366  1.00  0.00    -0.268 OA
HETATM    4  H   UNL     1     -42.738  54.890 -52.645  1.00  0.00     0.163 HD
ENDROOT
BRANCH   1   5
HETATM    5  C   UNL     1     -43.183  56.230 -54.255  1.00  0.00     0.161 C 
BRANCH   5   6
HETATM    6  C   UNL     1     -42.668  57.610 -53.965  1.00  0.00    -0.035 A 
HETATM    7  C   UNL     1     -42.134  58.407 -54.981  1.00  0.00     0.028 A 
HETATM    8  C   UNL     1     -41.735  59.699 -54.673  1.00  0.00     0.120 A 
HETATM    9  N   UNL     1     -41.833  60.247 -53.444  1.00  0.00    -0.237 NA
HETATM   10  C   UNL     1     -42.333  59.453 -52.476  1.00  0.00     0.164 A 
HETATM   11  C   UNL     1     -42.740  58.143 -52.675  1.00  0.00     0.066 A 
BRANCH  10  12
HETATM   12  O   UNL     1     -42.468  59.958 -51.197  1.00  0.00    -0.329 OA
BRANCH  12  13
HETATM   13  C   UNL     1     -43.826  60.138 -50.743  1.00  0.00     0.130 C 
HETATM   14  C   UNL     1     -43.983  61.145 -49.572  1.00  0.00     0.032 C 
HETATM   15  C   UNL     1     -45.311  61.583 -50.213  1.00  0.00     0.005 C 
HETATM   16  C   UNL     1     -44.741  61.091 -51.557  1.00  0.00     0.032 C 
ENDBRANCH  12  13
ENDBRANCH  10  12
ENDBRANCH   5   6
ENDBRANCH   1   5
BRANCH   2  17
HETATM   17  C   UNL     1     -40.801  53.397 -53.495  1.00  0.00     0.066 A 
HETATM   18  C   UNL     1     -40.733  53.348 -52.089  1.00  0.00     0.100 A 
HETATM   19  C   UNL     1     -40.112  52.258 -51.478  1.00  0.00     0.066 A 
HETATM   20  N   UNL     1     -41.195  54.230 -51.131  1.00  0.00    -0.241 NA
HETATM   21  N   UNL     1     -40.213  52.511 -50.133  1.00  0.00    -0.349 N 
HETATM   22  C   UNL     1     -39.550  51.197 -52.191  1.00  0.00     0.074 A 
HETATM   23  H   UNL     1     -39.866  51.923 -49.388  1.00  0.00     0.167 HD
HETATM   24  C   UNL     1     -40.866  53.701 -49.975  1.00  0.00     0.208 A 
HETATM   25  C   UNL     1     -39.633  51.269 -53.581  1.00  0.00     0.119 A 
HETATM   26  F   UNL     1     -39.110  50.275 -54.311  1.00  0.00    -0.206 F 
HETATM   27  C   UNL     1     -40.240  52.338 -54.232  1.00  0.00     0.061 A 
ENDBRANCH   2  17
TORSDOF 5
ENDMDL
MODEL 10
REMARK VINA RESULT:      -7.0      2.809      4.089
REMARK  5 active torsions:
REMARK  status: ('A' for Active; 'I' for Inactive)
REMARK    1  A    between atoms: C_2  and  C_3 
REMARK    2  A    between atoms: C_3  and  N_4 
REMARK       I    between atoms: N_4  and  C_5 
REMARK    3  A    between atoms: C_5  and  C_6 
REMARK    4  A    between atoms: C_19  and  O_20 
REMARK    5  A    between atoms: O_20  and  C_21 
ROOT
HETATM    1  N   UNL     1     -42.306  54.148 -54.602  1.00  0.00    -0.353 N 
HETATM    2  C   UNL     1     -40.956  53.952 -54.428  1.00  0.00     0.254 C 
HETATM    3  O   UNL     1     -40.113  54.437 -55.177  1.00  0.00    -0.268 OA
HETATM    4  H   UNL     1     -42.959  53.659 -53.989  1.00  0.00     0.163 HD
ENDROOT
BRANCH   1   5
HETATM    5  C   UNL     1     -42.792  54.866 -55.750  1.00  0.00     0.161 C 
BRANCH   5   6
HETATM    6  C   UNL     1     -43.111  56.300 -55.441  1.00  0.00    -0.035 A 
HETATM    7  C   UNL     1     -44.165  56.634 -54.586  1.00  0.00     0.028 A 
HETATM    8  C   UNL     1     -44.375  57.971 -54.280  1.00  0.00     0.120 A 
HETATM    9  N   UNL     1     -43.618  58.982 -54.756  1.00  0.00    -0.237 NA
HETATM   10  C   UNL     1     -42.621  58.636 -55.594  1.00  0.00     0.164 A 
HETATM   11  C   UNL     1     -42.342  57.335 -55.979  1.00  0.00     0.066 A 
BRANCH  10  12
HETATM   12  O   UNL     1     -41.805  59.625 -56.109  1.00  0.00    -0.329 OA
BRANCH  12  13
HETATM   13  C   UNL     1     -41.823  59.757 -57.546  1.00  0.00     0.130 C 
HETATM   14  C   UNL     1     -43.198  60.172 -58.135  1.00  0.00     0.032 C 
HETATM   15  C   UNL     1     -42.427  61.003 -59.175  1.00  0.00     0.005 C 
HETATM   16  C   UNL     1     -41.273  61.073 -58.159  1.00  0.00     0.032 C 
ENDBRANCH  12  13
ENDBRANCH  10  12
ENDBRANCH   5   6
ENDBRANCH   1   5
BRANCH   2  17
HETATM   17  C   UNL     1     -40.528  53.105 -53.290  1.00  0.00     0.066 A 
HETATM   18  C   UNL     1     -40.171  51.751 -53.448  1.00  0.00     0.100 A 
HETATM   19  C   UNL     1     -39.773  51.020 -52.327  1.00  0.00     0.066 A 
HETATM   20  N   UNL     1     -40.132  50.952 -54.575  1.00  0.00    -0.241 NA
HETATM   21  N   UNL     1     -39.499  49.765 -52.812  1.00  0.00    -0.349 N 
HETATM   22  C   UNL     1     -39.706  51.562 -51.042  1.00  0.00     0.074 A 
HETATM   23  H   UNL     1     -39.182  48.973 -52.271  1.00  0.00     0.167 HD
HETATM   24  C   UNL     1     -39.729  49.773 -54.159  1.00  0.00     0.208 A 
HETATM   25  C   UNL     1     -40.063  52.904 -50.915  1.00  0.00     0.119 A 
HETATM   26  F   UNL     1     -40.014  53.472 -49.702  1.00  0.00    -0.206 F 
HETATM   27  C   UNL     1     -40.468  53.669 -52.003  1.00  0.00     0.061 A 
ENDBRANCH   2  17
TORSDOF 5
ENDMDL
