MODEL 1
REMARK VINA RESULT:      -9.4      0.000      0.000
REMARK  8 active torsions:
REMARK  status: ('A' for Active; 'I' for Inactive)
REMARK    1  A    between atoms: C_8  and  C_9 
REMARK    2  A    between atoms: C_9  and  C_10 
REMARK       I    between atoms: C_10  and  N_11 
REMARK    3  A    between atoms: N_11  and  C_12 
REMARK    4  A    between atoms: N_11  and  C_27 
REMARK    5  A    between atoms: C_12  and  C_13 
REMARK    6  A    between atoms: C_12  and  C_22 
REMARK       I    between atoms: C_13  and  N_14 
REMARK    7  A    between atoms: N_14  and  C_15 
REMARK    8  A    between atoms: C_27  and  C_28 
ROOT
HETATM    1  C   UNL     1     -42.918  55.088 -54.712  1.00  0.00     0.225 C 
HETATM    2  N   UNL     1     -42.928  56.471 -54.931  1.00  0.00    -0.330 N 
HETATM    3  O   UNL     1     -43.894  54.497 -54.238  1.00  0.00    -0.273 OA
ENDROOT
BRANCH   2   4
HETATM    4  C   UNL     1     -44.158  57.207 -54.557  1.00  0.00     0.219 C 
BRANCH   4   5
HETATM    5  C   UNL     1     -44.142  57.632 -53.062  1.00  0.00     0.246 C 
HETATM    6  N   UNL     1     -42.903  57.771 -52.466  1.00  0.00    -0.354 N 
HETATM    7  H   UNL     1     -42.189  57.193 -52.903  1.00  0.00     0.162 HD
HETATM    8  O   UNL     1     -45.197  57.741 -52.431  1.00  0.00    -0.271 OA
BRANCH   6   9
HETATM    9  C   UNL     1     -42.740  58.005 -51.033  1.00  0.00     0.084 C 
HETATM   10  C   UNL     1     -41.420  57.382 -50.544  1.00  0.00     0.025 C 
HETATM   11  C   UNL     1     -40.190  58.152 -51.027  1.00  0.00     0.002 C 
HETATM   12  C   UNL     1     -40.266  59.628 -50.650  1.00  0.00     0.000 C 
HETATM   13  C   UNL     1     -41.560  60.267 -51.141  1.00  0.00     0.002 C 
HETATM   14  C   UNL     1     -42.784  59.496 -50.652  1.00  0.00     0.025 C 
ENDBRANCH   6   9
ENDBRANCH   4   5
BRANCH   4  15
HETATM   15  C   UNL     1     -44.526  58.310 -55.541  1.00  0.00     0.014 A 
HETATM   16  S   UNL     1     -43.731  59.839 -55.406  1.00  0.00    -0.104 SA
HETATM   17  C   UNL     1     -44.602  60.496 -56.720  1.00  0.00     0.050 A 
HETATM   18  C   UNL     1     -45.500  59.598 -57.244  1.00  0.00     0.008 A 
HETATM   19  C   UNL     1     -45.468  58.349 -56.558  1.00  0.00     0.017 A 
ENDBRANCH   4  15
ENDBRANCH   2   4
BRANCH   2  20
HETATM   20  C   UNL     1     -42.120  57.055 -56.006  1.00  0.00     0.165 C 
BRANCH  20  21
HETATM   21  C   UNL     1     -42.615  56.765 -57.403  1.00  0.00    -0.037 A 
HETATM   22  C   UNL     1     -43.309  55.575 -57.674  1.00  0.00     0.048 A 
HETATM   23  C   UNL     1     -43.792  55.384 -58.952  1.00  0.00     0.105 A 
HETATM   24  C   UNL     1     -43.601  56.312 -59.947  1.00  0.00     0.105 A 
HETATM   25  O   UNL     1     -44.508  54.308 -59.377  1.00  0.00    -0.323 OA
HETATM   26  O   UNL     1     -44.167  55.937 -61.125  1.00  0.00    -0.323 OA
HETATM   27  C   UNL     1     -42.911  57.485 -59.725  1.00  0.00     0.040 A 
HETATM   28  C   UNL     1     -44.762  54.678 -60.748  1.00  0.00     0.352 A 
HETATM   29  C   UNL     1     -42.419  57.711 -58.437  1.00  0.00     0.012 A 
ENDBRANCH  20  21
ENDBRANCH   2  20
BRANCH   1  30
HETATM   30  C   UNL     1     -41.623  54.323 -54.941  1.00  0.00     0.144 C 
BRANCH  30  31
HETATM   31  C   UNL     1     -41.009  53.631 -53.762  1.00  0.00    -0.021 A 
HETATM   32  C   UNL     1     -40.565  52.273 -53.608  1.00  0.00    -0.001 A 
HETATM   33  C   UNL     1     -40.549  51.128 -54.433  1.00  0.00     0.014 A 
HETATM   34  C   UNL     1     -40.013  52.159 -52.328  1.00  0.00     0.042 A 
HETATM   35  C   UNL     1     -39.964  49.942 -53.970  1.00  0.00     0.001 A 
HETATM   36  C   UNL     1     -39.414  49.871 -52.695  1.00  0.00     0.002 A 
HETATM   37  C   UNL     1     -39.435  50.979 -51.845  1.00  0.00     0.030 A 
HETATM   38  N   UNL     1     -40.158  53.376 -51.710  1.00  0.00    -0.365 N 
HETATM   39  H   UNL     1     -39.858  53.578 -50.766  1.00  0.00     0.165 HD
HETATM   40  C   UNL     1     -40.750  54.267 -52.558  1.00  0.00     0.097 A 
ENDBRANCH  30  31
ENDBRANCH   1  30
TORSDOF 8
ENDMDL
MODEL 2
REMARK VINA RESULT:      -9.0      2.625      8.068
REMARK  8 active torsions:
REMARK  status: ('A' for Active; 'I' for Inactive)
REMARK    1  A    between atoms: C_8  and  C_9 
REMARK    2  A    between atoms: C_9  and  C_10 
REMARK       I    between atoms: C_10  and  N_11 
REMARK    3  A    between atoms: N_11  and  C_12 
REMARK    4  A    between atoms: N_11  and  C_27 
REMARK    5  A    between atoms: C_12  and  C_13 
REMARK    6  A    between atoms: C_12  and  C_22 
REMARK       I    between atoms: C_13  and  N_14 
REMARK    7  A    between atoms: N_14  and  C_15 
REMARK    8  A    between atoms: C_27  and  C_28 
ROOT
HETATM    1  C   UNL     1     -42.849  55.678 -55.976  1.00  0.00     0.225 C 
HETATM    2  N   UNL     1     -42.583  55.737 -54.603  1.00  0.00    -0.330 N 
HETATM    3  O   UNL     1     -42.930  54.603 -56.578  1.00  0.00    -0.273 OA
ENDROOT
BRANCH   2   4
HETATM    4  C   UNL     1     -42.388  54.450 -53.895  1.00  0.00     0.219 C 
BRANCH   4   5
HETATM    5  C   UNL     1     -40.986  53.843 -54.183  1.00  0.00     0.246 C 
HETATM    6  N   UNL     1     -40.803  52.512 -53.856  1.00  0.00    -0.354 N 
HETATM    7  H   UNL     1     -41.416  52.205 -53.104  1.00  0.00     0.162 HD
HETATM    8  O   UNL     1     -40.067  54.556 -54.595  1.00  0.00    -0.271 OA
BRANCH   6   9
HETATM    9  C   UNL     1     -39.499  51.858 -53.918  1.00  0.00     0.084 C 
HETATM   10  C   UNL     1     -38.857  51.827 -52.520  1.00  0.00     0.025 C 
HETATM   11  C   UNL     1     -39.546  50.839 -51.577  1.00  0.00     0.002 C 
HETATM   12  C   UNL     1     -39.609  49.438 -52.176  1.00  0.00     0.000 C 
HETATM   13  C   UNL     1     -40.258  49.447 -53.556  1.00  0.00     0.002 C 
HETATM   14  C   UNL     1     -39.563  50.432 -54.494  1.00  0.00     0.025 C 
ENDBRANCH   6   9
ENDBRANCH   4   5
BRANCH   4  15
HETATM   15  C   UNL     1     -42.783  54.502 -52.424  1.00  0.00     0.014 A 
HETATM   16  S   UNL     1     -41.535  54.624 -51.236  1.00  0.00    -0.104 SA
HETATM   17  C   UNL     1     -42.653  54.617 -49.946  1.00  0.00     0.050 A 
HETATM   18  C   UNL     1     -43.949  54.498 -50.388  1.00  0.00     0.008 A 
HETATM   19  C   UNL     1     -44.022  54.416 -51.809  1.00  0.00     0.017 A 
ENDBRANCH   4  15
ENDBRANCH   2   4
BRANCH   2  20
HETATM   20  C   UNL     1     -43.090  56.853 -53.798  1.00  0.00     0.165 C 
BRANCH  20  21
HETATM   21  C   UNL     1     -42.026  57.669 -53.102  1.00  0.00    -0.037 A 
HETATM   22  C   UNL     1     -42.242  58.151 -51.801  1.00  0.00     0.048 A 
HETATM   23  C   UNL     1     -41.216  58.839 -51.188  1.00  0.00     0.105 A 
HETATM   24  C   UNL     1     -40.016  59.069 -51.818  1.00  0.00     0.105 A 
HETATM   25  O   UNL     1     -41.245  59.347 -49.926  1.00  0.00    -0.323 OA
HETATM   26  O   UNL     1     -39.140  59.752 -51.035  1.00  0.00    -0.323 OA
HETATM   27  C   UNL     1     -39.772  58.627 -53.100  1.00  0.00     0.040 A 
HETATM   28  C   UNL     1     -39.917  59.902 -49.828  1.00  0.00     0.352 A 
HETATM   29  C   UNL     1     -40.789  57.916 -53.744  1.00  0.00     0.012 A 
ENDBRANCH  20  21
ENDBRANCH   2  20
BRANCH   1  30
HETATM   30  C   UNL     1     -42.904  56.979 -56.764  1.00  0.00     0.144 C 
BRANCH  30  31
HETATM   31  C   UNL     1     -44.135  57.245 -57.578  1.00  0.00    -0.021 A 
HETATM   32  C   UNL     1     -44.595  56.633 -58.794  1.00  0.00    -0.001 A 
HETATM   33  C   UNL     1     -44.103  55.629 -59.656  1.00  0.00     0.014 A 
HETATM   34  C   UNL     1     -45.832  57.206 -59.105  1.00  0.00     0.042 A 
HETATM   35  C   UNL     1     -44.865  55.220 -60.758  1.00  0.00     0.001 A 
HETATM   36  C   UNL     1     -46.097  55.805 -61.027  1.00  0.00     0.002 A 
HETATM   37  C   UNL     1     -46.601  56.817 -60.208  1.00  0.00     0.030 A 
HETATM   38  N   UNL     1     -46.093  58.159 -58.152  1.00  0.00    -0.365 N 
HETATM   39  H   UNL     1     -46.918  58.743 -58.136  1.00  0.00     0.165 HD
HETATM   40  C   UNL     1     -45.086  58.190 -57.230  1.00  0.00     0.097 A 
ENDBRANCH  30  31
ENDBRANCH   1  30
TORSDOF 8
ENDMDL
MODEL 3
REMARK VINA RESULT:      -9.0      2.692      4.689
REMARK  8 active torsions:
REMARK  status: ('A' for Active; 'I' for Inactive)
REMARK    1  A    between atoms: C_8  and  C_9 
REMARK    2  A    between atoms: C_9  and  C_10 
REMARK       I    between atoms: C_10  and  N_11 
REMARK    3  A    between atoms: N_11  and  C_12 
REMARK    4  A    between atoms: N_11  and  C_27 
REMARK    5  A    between atoms: C_12  and  C_13 
REMARK    6  A    between atoms: C_12  and  C_22 
REMARK       I    between atoms: C_13  and  N_14 
REMARK    7  A    between atoms: N_14  and  C_15 
REMARK    8  A    between atoms: C_27  and  C_28 
ROOT
HETATM    1  C   UNL     1     -41.499  58.818 -53.704  1.00  0.00     0.225 C 
HETATM    2  N   UNL     1     -42.779  59.252 -54.068  1.00  0.00    -0.330 N 
HETATM    3  O   UNL     1     -40.732  59.532 -53.050  1.00  0.00    -0.273 OA
ENDROOT
BRANCH   2   4
HETATM    4  C   UNL     1     -43.178  60.615 -53.648  1.00  0.00     0.219 C 
BRANCH   4   5
HETATM    5  C   UNL     1     -43.084  61.630 -54.822  1.00  0.00     0.246 C 
HETATM    6  N   UNL     1     -42.675  61.133 -56.046  1.00  0.00    -0.354 N 
HETATM    7  H   UNL     1     -42.090  60.304 -55.958  1.00  0.00     0.162 HD
HETATM    8  O   UNL     1     -43.277  62.832 -54.627  1.00  0.00    -0.271 OA
BRANCH   6   9
HETATM    9  C   UNL     1     -42.387  61.995 -57.189  1.00  0.00     0.084 C 
HETATM   10  C   UNL     1     -41.331  61.335 -58.094  1.00  0.00     0.025 C 
HETATM   11  C   UNL     1     -41.883  60.134 -58.865  1.00  0.00     0.002 C 
HETATM   12  C   UNL     1     -43.129  60.503 -59.664  1.00  0.00     0.000 C 
HETATM   13  C   UNL     1     -44.193  61.144 -58.780  1.00  0.00     0.002 C 
HETATM   14  C   UNL     1     -43.637  62.343 -58.017  1.00  0.00     0.025 C 
ENDBRANCH   6   9
ENDBRANCH   4   5
BRANCH   4  15
HETATM   15  C   UNL     1     -44.484  60.649 -52.863  1.00  0.00     0.014 A 
HETATM   16  S   UNL     1     -44.450  60.246 -51.183  1.00  0.00    -0.104 SA
HETATM   17  C   UNL     1     -46.133  60.477 -51.014  1.00  0.00     0.050 A 
HETATM   18  C   UNL     1     -46.728  60.826 -52.202  1.00  0.00     0.008 A 
HETATM   19  C   UNL     1     -45.784  60.910 -53.266  1.00  0.00     0.017 A 
ENDBRANCH   4  15
ENDBRANCH   2   4
BRANCH   2  20
HETATM   20  C   UNL     1     -43.864  58.282 -54.251  1.00  0.00     0.165 C 
BRANCH  20  21
HETATM   21  C   UNL     1     -44.331  58.114 -55.678  1.00  0.00    -0.037 A 
HETATM   22  C   UNL     1     -43.496  57.506 -56.628  1.00  0.00     0.048 A 
HETATM   23  C   UNL     1     -43.992  57.322 -57.902  1.00  0.00     0.105 A 
HETATM   24  C   UNL     1     -45.258  57.727 -58.255  1.00  0.00     0.105 A 
HETATM   25  O   UNL     1     -43.332  56.727 -58.932  1.00  0.00    -0.323 OA
HETATM   26  O   UNL     1     -45.553  57.441 -59.550  1.00  0.00    -0.323 OA
HETATM   27  C   UNL     1     -46.101  58.342 -57.355  1.00  0.00     0.040 A 
HETATM   28  C   UNL     1     -44.338  56.784 -59.966  1.00  0.00     0.352 A 
HETATM   29  C   UNL     1     -45.631  58.532 -56.053  1.00  0.00     0.012 A 
ENDBRANCH  20  21
ENDBRANCH   2  20
BRANCH   1  30
HETATM   30  C   UNL     1     -40.998  57.488 -54.246  1.00  0.00     0.144 C 
BRANCH  30  31
HETATM   31  C   UNL     1     -41.038  56.305 -53.326  1.00  0.00    -0.021 A 
HETATM   32  C   UNL     1     -40.745  54.921 -53.577  1.00  0.00    -0.001 A 
HETATM   33  C   UNL     1     -40.354  54.172 -54.708  1.00  0.00     0.014 A 
HETATM   34  C   UNL     1     -40.878  54.241 -52.362  1.00  0.00     0.042 A 
HETATM   35  C   UNL     1     -40.083  52.803 -54.579  1.00  0.00     0.001 A 
HETATM   36  C   UNL     1     -40.214  52.165 -53.351  1.00  0.00     0.002 A 
HETATM   37  C   UNL     1     -40.623  52.872 -52.219  1.00  0.00     0.030 A 
HETATM   38  N   UNL     1     -41.283  55.156 -51.423  1.00  0.00    -0.365 N 
HETATM   39  H   UNL     1     -41.470  54.938 -50.454  1.00  0.00     0.165 HD
HETATM   40  C   UNL     1     -41.379  56.396 -51.986  1.00  0.00     0.097 A 
ENDBRANCH  30  31
ENDBRANCH   1  30
TORSDOF 8
ENDMDL
MODEL 4
REMARK VINA RESULT:      -8.9      2.102      6.774
REMARK  8 active torsions:
REMARK  status: ('A' for Active; 'I' for Inactive)
REMARK    1  A    between atoms: C_8  and  C_9 
REMARK    2  A    between atoms: C_9  and  C_10 
REMARK       I    between atoms: C_10  and  N_11 
REMARK    3  A    between atoms: N_11  and  C_12 
REMARK    4  A    between atoms: N_11  and  C_27 
REMARK    5  A    between atoms: C_12  and  C_13 
REMARK    6  A    between atoms: C_12  and  C_22 
REMARK       I    between atoms: C_13  and  N_14 
REMARK    7  A    between atoms: N_14  and  C_15 
REMARK    8  A    between atoms: C_27  and  C_28 
ROOT
HETATM    1  C   UNL     1     -44.634  59.834 -54.638  1.00  0.00     0.225 C 
HETATM    2  N   UNL     1     -43.546  58.952 -54.632  1.00  0.00    -0.330 N 
HETATM    3  O   UNL     1     -45.331  60.013 -53.634  1.00  0.00    -0.273 OA
ENDROOT
BRANCH   2   4
HETATM    4  C   UNL     1     -43.269  58.227 -53.371  1.00  0.00     0.219 C 
BRANCH   4   5
HETATM    5  C   UNL     1     -43.628  56.719 -53.483  1.00  0.00     0.246 C 
HETATM    6  N   UNL     1     -42.625  55.815 -53.191  1.00  0.00    -0.354 N 
HETATM    7  H   UNL     1     -41.694  56.194 -53.352  1.00  0.00     0.162 HD
HETATM    8  O   UNL     1     -44.733  56.369 -53.907  1.00  0.00    -0.271 OA
BRANCH   6   9
HETATM    9  C   UNL     1     -42.771  54.378 -53.410  1.00  0.00     0.084 C 
HETATM   10  C   UNL     1     -42.499  54.040 -54.887  1.00  0.00     0.025 C 
HETATM   11  C   UNL     1     -41.020  54.163 -55.257  1.00  0.00     0.002 C 
HETATM   12  C   UNL     1     -40.137  53.326 -54.338  1.00  0.00     0.000 C 
HETATM   13  C   UNL     1     -40.381  53.659 -52.870  1.00  0.00     0.002 C 
HETATM   14  C   UNL     1     -41.859  53.530 -52.506  1.00  0.00     0.025 C 
ENDBRANCH   6   9
ENDBRANCH   4   5
BRANCH   4  15
HETATM   15  C   UNL     1     -41.890  58.525 -52.792  1.00  0.00     0.014 A 
HETATM   16  S   UNL     1     -41.783  59.101 -51.166  1.00  0.00    -0.104 SA
HETATM   17  C   UNL     1     -40.080  59.207 -51.233  1.00  0.00     0.050 A 
HETATM   18  C   UNL     1     -39.589  58.844 -52.464  1.00  0.00     0.008 A 
HETATM   19  C   UNL     1     -40.629  58.467 -53.363  1.00  0.00     0.017 A 
ENDBRANCH   4  15
ENDBRANCH   2   4
BRANCH   2  20
HETATM   20  C   UNL     1     -42.399  59.188 -55.515  1.00  0.00     0.165 C 
BRANCH  20  21
HETATM   21  C   UNL     1     -42.479  58.497 -56.857  1.00  0.00    -0.037 A 
HETATM   22  C   UNL     1     -42.978  57.188 -56.949  1.00  0.00     0.048 A 
HETATM   23  C   UNL     1     -43.086  56.624 -58.203  1.00  0.00     0.105 A 
HETATM   24  C   UNL     1     -42.709  57.300 -59.339  1.00  0.00     0.105 A 
HETATM   25  O   UNL     1     -43.574  55.383 -58.476  1.00  0.00    -0.323 OA
HETATM   26  O   UNL     1     -42.909  56.571 -60.469  1.00  0.00    -0.323 OA
HETATM   27  C   UNL     1     -42.200  58.579 -59.288  1.00  0.00     0.040 A 
HETATM   28  C   UNL     1     -43.481  55.367 -59.916  1.00  0.00     0.352 A 
HETATM   29  C   UNL     1     -42.089  59.182 -58.032  1.00  0.00     0.012 A 
ENDBRANCH  20  21
ENDBRANCH   2  20
BRANCH   1  30
HETATM   30  C   UNL     1     -45.042  60.480 -55.954  1.00  0.00     0.144 C 
BRANCH  30  31
HETATM   31  C   UNL     1     -45.671  59.600 -56.992  1.00  0.00    -0.021 A 
HETATM   32  C   UNL     1     -45.752  59.757 -58.418  1.00  0.00    -0.001 A 
HETATM   33  C   UNL     1     -45.324  60.736 -59.342  1.00  0.00     0.014 A 
HETATM   34  C   UNL     1     -46.392  58.622 -58.925  1.00  0.00     0.042 A 
HETATM   35  C   UNL     1     -45.519  60.533 -60.714  1.00  0.00     0.001 A 
HETATM   36  C   UNL     1     -46.148  59.385 -61.181  1.00  0.00     0.002 A 
HETATM   37  C   UNL     1     -46.605  58.410 -60.293  1.00  0.00     0.030 A 
HETATM   38  N   UNL     1     -46.732  57.832 -57.856  1.00  0.00    -0.365 N 
HETATM   39  H   UNL     1     -47.220  56.949 -57.928  1.00  0.00     0.165 HD
HETATM   40  C   UNL     1     -46.303  58.404 -56.693  1.00  0.00     0.097 A 
ENDBRANCH  30  31
ENDBRANCH   1  30
TORSDOF 8
ENDMDL
MODEL 5
REMARK VINA RESULT:      -8.9      2.284      3.368
REMARK  8 active torsions:
REMARK  status: ('A' for Active; 'I' for Inactive)
REMARK    1  A    between atoms: C_8  and  C_9 
REMARK    2  A    between atoms: C_9  and  C_10 
REMARK       I    between atoms: C_10  and  N_11 
REMARK    3  A    between atoms: N_11  and  C_12 
REMARK    4  A    between atoms: N_11  and  C_27 
REMARK    5  A    between atoms: C_12  and  C_13 
REMARK    6  A    between atoms: C_12  and  C_22 
REMARK       I    between atoms: C_13  and  N_14 
REMARK    7  A    between atoms: N_14  and  C_15 
REMARK    8  A    between atoms: C_27  and  C_28 
ROOT
HETATM    1  C   UNL     1     -43.352  56.587 -55.822  1.00  0.00     0.225 C 
HETATM    2  N   UNL     1     -42.776  57.597 -56.602  1.00  0.00    -0.330 N 
HETATM    3  O   UNL     1     -44.130  56.843 -54.897  1.00  0.00    -0.273 OA
ENDROOT
BRANCH   2   4
HETATM    4  C   UNL     1     -43.126  58.996 -56.264  1.00  0.00     0.219 C 
BRANCH   4   5
HETATM    5  C   UNL     1     -42.708  59.359 -54.812  1.00  0.00     0.246 C 
HETATM    6  N   UNL     1     -43.727  59.541 -53.896  1.00  0.00    -0.354 N 
HETATM    7  H   UNL     1     -44.598  59.837 -54.331  1.00  0.00     0.162 HD
HETATM    8  O   UNL     1     -41.523  59.564 -54.534  1.00  0.00    -0.271 OA
BRANCH   6   9
HETATM    9  C   UNL     1     -43.491  60.042 -52.544  1.00  0.00     0.084 C 
HETATM   10  C   UNL     1     -44.655  60.948 -52.107  1.00  0.00     0.025 C 
HETATM   11  C   UNL     1     -45.938  60.165 -51.824  1.00  0.00     0.002 C 
HETATM   12  C   UNL     1     -45.705  59.052 -50.806  1.00  0.00     0.000 C 
HETATM   13  C   UNL     1     -44.565  58.133 -51.231  1.00  0.00     0.002 C 
HETATM   14  C   UNL     1     -43.287  58.921 -51.509  1.00  0.00     0.025 C 
ENDBRANCH   6   9
ENDBRANCH   4   5
BRANCH   4  15
HETATM   15  C   UNL     1     -42.704  59.999 -57.331  1.00  0.00     0.014 A 
HETATM   16  S   UNL     1     -43.928  60.934 -58.116  1.00  0.00    -0.104 SA
HETATM   17  C   UNL     1     -42.789  61.744 -59.097  1.00  0.00     0.050 A 
HETATM   18  C   UNL     1     -41.507  61.307 -58.867  1.00  0.00     0.008 A 
HETATM   19  C   UNL     1     -41.460  60.296 -57.865  1.00  0.00     0.017 A 
ENDBRANCH   4  15
ENDBRANCH   2   4
BRANCH   2  20
HETATM   20  C   UNL     1     -42.407  57.334 -57.997  1.00  0.00     0.165 C 
BRANCH  20  21
HETATM   21  C   UNL     1     -43.529  56.807 -58.861  1.00  0.00    -0.037 A 
HETATM   22  C   UNL     1     -44.725  57.531 -58.987  1.00  0.00     0.048 A 
HETATM   23  C   UNL     1     -45.695  57.036 -59.834  1.00  0.00     0.105 A 
HETATM   24  C   UNL     1     -45.521  55.865 -60.533  1.00  0.00     0.105 A 
HETATM   25  O   UNL     1     -46.894  57.622 -60.096  1.00  0.00    -0.323 OA
HETATM   26  O   UNL     1     -46.588  55.564 -61.319  1.00  0.00    -0.323 OA
HETATM   27  C   UNL     1     -44.368  55.118 -60.423  1.00  0.00     0.040 A 
HETATM   28  C   UNL     1     -47.443  56.696 -61.056  1.00  0.00     0.352 A 
HETATM   29  C   UNL     1     -43.363  55.599 -59.580  1.00  0.00     0.012 A 
ENDBRANCH  20  21
ENDBRANCH   2  20
BRANCH   1  30
HETATM   30  C   UNL     1     -42.900  55.150 -56.039  1.00  0.00     0.144 C 
BRANCH  30  31
HETATM   31  C   UNL     1     -41.906  54.582 -55.072  1.00  0.00    -0.021 A 
HETATM   32  C   UNL     1     -42.022  54.326 -53.663  1.00  0.00    -0.001 A 
HETATM   33  C   UNL     1     -43.031  54.511 -52.693  1.00  0.00     0.014 A 
HETATM   34  C   UNL     1     -40.825  53.733 -53.249  1.00  0.00     0.042 A 
HETATM   35  C   UNL     1     -42.823  54.076 -51.378  1.00  0.00     0.001 A 
HETATM   36  C   UNL     1     -41.624  53.479 -51.007  1.00  0.00     0.002 A 
HETATM   37  C   UNL     1     -40.596  53.304 -51.936  1.00  0.00     0.030 A 
HETATM   38  N   UNL     1     -39.997  53.676 -54.342  1.00  0.00    -0.365 N 
HETATM   39  H   UNL     1     -39.056  53.305 -54.330  1.00  0.00     0.165 HD
HETATM   40  C   UNL     1     -40.633  54.178 -55.441  1.00  0.00     0.097 A 
ENDBRANCH  30  31
ENDBRANCH   1  30
TORSDOF 8
ENDMDL
MODEL 6
REMARK VINA RESULT:      -8.8      2.635      5.763
REMARK  8 active torsions:
REMARK  status: ('A' for Active; 'I' for Inactive)
REMARK    1  A    between atoms: C_8  and  C_9 
REMARK    2  A    between atoms: C_9  and  C_10 
REMARK       I    between atoms: C_10  and  N_11 
REMARK    3  A    between atoms: N_11  and  C_12 
REMARK    4  A    between atoms: N_11  and  C_27 
REMARK    5  A    between atoms: C_12  and  C_13 
REMARK    6  A    between atoms: C_12  and  C_22 
REMARK       I    between atoms: C_13  and  N_14 
REMARK    7  A    between atoms: N_14  and  C_15 
REMARK    8  A    between atoms: C_27  and  C_28 
ROOT
HETATM    1  C   UNL     1     -44.574  58.119 -54.496  1.00  0.00     0.225 C 
HETATM    2  N   UNL     1     -43.902  57.575 -55.597  1.00  0.00    -0.330 N 
HETATM    3  O   UNL     1     -45.033  59.266 -54.516  1.00  0.00    -0.273 OA
ENDROOT
BRANCH   2   4
HETATM    4  C   UNL     1     -43.748  58.438 -56.790  1.00  0.00     0.219 C 
BRANCH   4   5
HETATM    5  C   UNL     1     -42.718  59.577 -56.548  1.00  0.00     0.246 C 
HETATM    6  N   UNL     1     -42.865  60.723 -57.306  1.00  0.00    -0.354 N 
HETATM    7  H   UNL     1     -43.326  60.549 -58.197  1.00  0.00     0.162 HD
HETATM    8  O   UNL     1     -41.767  59.408 -55.781  1.00  0.00    -0.271 OA
BRANCH   6   9
HETATM    9  C   UNL     1     -41.881  61.803 -57.301  1.00  0.00     0.084 C 
HETATM   10  C   UNL     1     -40.824  61.557 -58.392  1.00  0.00     0.025 C 
HETATM   11  C   UNL     1     -41.373  61.774 -59.804  1.00  0.00     0.002 C 
HETATM   12  C   UNL     1     -42.000  63.155 -59.958  1.00  0.00     0.000 C 
HETATM   13  C   UNL     1     -43.062  63.411 -58.894  1.00  0.00     0.002 C 
HETATM   14  C   UNL     1     -42.508  63.196 -57.488  1.00  0.00     0.025 C 
ENDBRANCH   6   9
ENDBRANCH   4   5
BRANCH   4  15
HETATM   15  C   UNL     1     -43.557  57.654 -58.084  1.00  0.00     0.014 A 
HETATM   16  S   UNL     1     -44.944  57.308 -59.054  1.00  0.00    -0.104 SA
HETATM   17  C   UNL     1     -44.018  56.469 -60.218  1.00  0.00     0.050 A 
HETATM   18  C   UNL     1     -42.687  56.420 -59.880  1.00  0.00     0.008 A 
HETATM   19  C   UNL     1     -42.425  57.086 -58.648  1.00  0.00     0.017 A 
ENDBRANCH   4  15
ENDBRANCH   2   4
BRANCH   2  20
HETATM   20  C   UNL     1     -43.925  56.128 -55.836  1.00  0.00     0.165 C 
BRANCH  20  21
HETATM   21  C   UNL     1     -42.723  55.379 -55.310  1.00  0.00    -0.037 A 
HETATM   22  C   UNL     1     -42.805  54.001 -55.054  1.00  0.00     0.048 A 
HETATM   23  C   UNL     1     -41.663  53.352 -54.632  1.00  0.00     0.105 A 
HETATM   24  C   UNL     1     -40.475  54.018 -54.448  1.00  0.00     0.105 A 
HETATM   25  O   UNL     1     -41.558  52.022 -54.368  1.00  0.00    -0.323 OA
HETATM   26  O   UNL     1     -39.474  53.193 -54.043  1.00  0.00    -0.323 OA
HETATM   27  C   UNL     1     -40.359  55.373 -54.672  1.00  0.00     0.040 A 
HETATM   28  C   UNL     1     -40.162  51.925 -54.020  1.00  0.00     0.352 A 
HETATM   29  C   UNL     1     -41.496  56.056 -55.112  1.00  0.00     0.012 A 
ENDBRANCH  20  21
ENDBRANCH   2  20
BRANCH   1  30
HETATM   30  C   UNL     1     -44.619  57.321 -53.202  1.00  0.00     0.144 C 
BRANCH  30  31
HETATM   31  C   UNL     1     -43.369  57.267 -52.377  1.00  0.00    -0.021 A 
HETATM   32  C   UNL     1     -42.734  56.156 -51.722  1.00  0.00    -0.001 A 
HETATM   33  C   UNL     1     -43.021  54.781 -51.583  1.00  0.00     0.014 A 
HETATM   34  C   UNL     1     -41.558  56.636 -51.137  1.00  0.00     0.042 A 
HETATM   35  C   UNL     1     -42.123  53.945 -50.907  1.00  0.00     0.001 A 
HETATM   36  C   UNL     1     -40.957  54.457 -50.350  1.00  0.00     0.002 A 
HETATM   37  C   UNL     1     -40.656  55.817 -50.447  1.00  0.00     0.030 A 
HETATM   38  N   UNL     1     -41.501  57.986 -51.379  1.00  0.00    -0.365 N 
HETATM   39  H   UNL     1     -40.760  58.595 -51.058  1.00  0.00     0.165 HD
HETATM   40  C   UNL     1     -42.577  58.375 -52.123  1.00  0.00     0.097 A 
ENDBRANCH  30  31
ENDBRANCH   1  30
TORSDOF 8
ENDMDL
MODEL 7
REMARK VINA RESULT:      -8.7      1.969      6.367
REMARK  8 active torsions:
REMARK  status: ('A' for Active; 'I' for Inactive)
REMARK    1  A    between atoms: C_8  and  C_9 
REMARK    2  A    between atoms: C_9  and  C_10 
REMARK       I    between atoms: C_10  and  N_11 
REMARK    3  A    between atoms: N_11  and  C_12 
REMARK    4  A    between atoms: N_11  and  C_27 
REMARK    5  A    between atoms: C_12  and  C_13 
REMARK    6  A    between atoms: C_12  and  C_22 
REMARK       I    between atoms: C_13  and  N_14 
REMARK    7  A    between atoms: N_14  and  C_15 
REMARK    8  A    between atoms: C_27  and  C_28 
ROOT
HETATM    1  C   UNL     1     -42.917  56.191 -55.455  1.00  0.00     0.225 C 
HETATM    2  N   UNL     1     -43.738  57.323 -55.399  1.00  0.00    -0.330 N 
HETATM    3  O   UNL     1     -41.833  56.203 -56.048  1.00  0.00    -0.273 OA
ENDROOT
BRANCH   2   4
HETATM    4  C   UNL     1     -43.262  58.541 -56.094  1.00  0.00     0.219 C 
BRANCH   4   5
HETATM    5  C   UNL     1     -42.932  58.259 -57.587  1.00  0.00     0.246 C 
HETATM    6  N   UNL     1     -43.870  57.546 -58.310  1.00  0.00    -0.354 N 
HETATM    7  H   UNL     1     -44.436  56.935 -57.725  1.00  0.00     0.162 HD
HETATM    8  O   UNL     1     -41.839  58.583 -58.058  1.00  0.00    -0.271 OA
BRANCH   6   9
HETATM    9  C   UNL     1     -43.622  57.071 -59.669  1.00  0.00     0.084 C 
HETATM   10  C   UNL     1     -42.980  55.673 -59.630  1.00  0.00     0.025 C 
HETATM   11  C   UNL     1     -43.965  54.584 -59.199  1.00  0.00     0.002 C 
HETATM   12  C   UNL     1     -45.218  54.582 -60.069  1.00  0.00     0.000 C 
HETATM   13  C   UNL     1     -45.877  55.956 -60.107  1.00  0.00     0.002 C 
HETATM   14  C   UNL     1     -44.890  57.038 -60.541  1.00  0.00     0.025 C 
ENDBRANCH   6   9
ENDBRANCH   4   5
BRANCH   4  15
HETATM   15  C   UNL     1     -44.137  59.763 -55.842  1.00  0.00     0.014 A 
HETATM   16  S   UNL     1     -43.407  61.178 -55.169  1.00  0.00    -0.104 SA
HETATM   17  C   UNL     1     -44.883  62.035 -55.168  1.00  0.00     0.050 A 
HETATM   18  C   UNL     1     -45.923  61.270 -55.640  1.00  0.00     0.008 A 
HETATM   19  C   UNL     1     -45.498  59.962 -56.012  1.00  0.00     0.017 A 
ENDBRANCH   4  15
ENDBRANCH   2   4
BRANCH   2  20
HETATM   20  C   UNL     1     -44.632  57.532 -54.255  1.00  0.00     0.165 C 
BRANCH  20  21
HETATM   21  C   UNL     1     -44.009  58.262 -53.088  1.00  0.00    -0.037 A 
HETATM   22  C   UNL     1     -42.640  58.119 -52.814  1.00  0.00     0.048 A 
HETATM   23  C   UNL     1     -42.108  58.852 -51.774  1.00  0.00     0.105 A 
HETATM   24  C   UNL     1     -42.880  59.694 -51.009  1.00  0.00     0.105 A 
HETATM   25  O   UNL     1     -40.802  58.857 -51.393  1.00  0.00    -0.323 OA
HETATM   26  O   UNL     1     -42.160  60.330 -50.048  1.00  0.00    -0.323 OA
HETATM   27  C   UNL     1     -44.230  59.848 -51.236  1.00  0.00     0.040 A 
HETATM   28  C   UNL     1     -40.839  59.814 -50.314  1.00  0.00     0.352 A 
HETATM   29  C   UNL     1     -44.796  59.126 -52.290  1.00  0.00     0.012 A 
ENDBRANCH  20  21
ENDBRANCH   2  20
BRANCH   1  30
HETATM   30  C   UNL     1     -43.440  54.881 -54.885  1.00  0.00     0.144 C 
BRANCH  30  31
HETATM   31  C   UNL     1     -42.783  54.352 -53.646  1.00  0.00    -0.021 A 
HETATM   32  C   UNL     1     -41.672  53.454 -53.493  1.00  0.00    -0.001 A 
HETATM   33  C   UNL     1     -40.831  52.745 -54.379  1.00  0.00     0.014 A 
HETATM   34  C   UNL     1     -41.420  53.333 -52.123  1.00  0.00     0.042 A 
HETATM   35  C   UNL     1     -39.770  51.983 -53.874  1.00  0.00     0.001 A 
HETATM   36  C   UNL     1     -39.543  51.898 -52.505  1.00  0.00     0.002 A 
HETATM   37  C   UNL     1     -40.371  52.566 -51.602  1.00  0.00     0.030 A 
HETATM   38  N   UNL     1     -42.364  54.083 -51.466  1.00  0.00    -0.365 N 
HETATM   39  H   UNL     1     -42.429  54.168 -50.460  1.00  0.00     0.165 HD
HETATM   40  C   UNL     1     -43.184  54.700 -52.366  1.00  0.00     0.097 A 
ENDBRANCH  30  31
ENDBRANCH   1  30
TORSDOF 8
ENDMDL
MODEL 8
REMARK VINA RESULT:      -8.6      2.213      4.260
REMARK  8 active torsions:
REMARK  status: ('A' for Active; 'I' for Inactive)
REMARK    1  A    between atoms: C_8  and  C_9 
REMARK    2  A    between atoms: C_9  and  C_10 
REMARK       I    between atoms: C_10  and  N_11 
REMARK    3  A    between atoms: N_11  and  C_12 
REMARK    4  A    between atoms: N_11  and  C_27 
REMARK    5  A    between atoms: C_12  and  C_13 
REMARK    6  A    between atoms: C_12  and  C_22 
REMARK       I    between atoms: C_13  and  N_14 
REMARK    7  A    between atoms: N_14  and  C_15 
REMARK    8  A    between atoms: C_27  and  C_28 
ROOT
HETATM    1  C   UNL     1     -42.704  56.674 -51.826  1.00  0.00     0.225 C 
HETATM    2  N   UNL     1     -42.980  57.597 -52.842  1.00  0.00    -0.330 N 
HETATM    3  O   UNL     1     -42.121  57.004 -50.789  1.00  0.00    -0.273 OA
ENDROOT
BRANCH   2   4
HETATM    4  C   UNL     1     -42.530  58.992 -52.630  1.00  0.00     0.219 C 
BRANCH   4   5
HETATM    5  C   UNL     1     -42.352  59.751 -53.976  1.00  0.00     0.246 C 
HETATM    6  N   UNL     1     -43.268  60.748 -54.256  1.00  0.00    -0.354 N 
HETATM    7  H   UNL     1     -44.165  60.598 -53.798  1.00  0.00     0.162 HD
HETATM    8  O   UNL     1     -41.487  59.400 -54.783  1.00  0.00    -0.271 OA
BRANCH   6   9
HETATM    9  C   UNL     1     -43.321  61.428 -55.548  1.00  0.00     0.084 C 
HETATM   10  C   UNL     1     -44.544  60.945 -56.348  1.00  0.00     0.025 C 
HETATM   11  C   UNL     1     -45.864  61.466 -55.777  1.00  0.00     0.002 C 
HETATM   12  C   UNL     1     -45.863  62.987 -55.653  1.00  0.00     0.000 C 
HETATM   13  C   UNL     1     -44.666  63.482 -54.848  1.00  0.00     0.002 C 
HETATM   14  C   UNL     1     -43.351  62.962 -55.425  1.00  0.00     0.025 C 
ENDBRANCH   6   9
ENDBRANCH   4   5
BRANCH   4  15
HETATM   15  C   UNL     1     -43.335  59.733 -51.569  1.00  0.00     0.014 A 
HETATM   16  S   UNL     1     -42.502  60.805 -50.498  1.00  0.00    -0.104 SA
HETATM   17  C   UNL     1     -43.936  61.212 -49.665  1.00  0.00     0.050 A 
HETATM   18  C   UNL     1     -45.027  60.538 -50.158  1.00  0.00     0.008 A 
HETATM   19  C   UNL     1     -44.680  59.678 -51.240  1.00  0.00     0.017 A 
ENDBRANCH   4  15
ENDBRANCH   2   4
BRANCH   2  20
HETATM   20  C   UNL     1     -44.146  57.413 -53.713  1.00  0.00     0.165 C 
BRANCH  20  21
HETATM   21  C   UNL     1     -43.828  56.907 -55.101  1.00  0.00    -0.037 A 
HETATM   22  C   UNL     1     -44.266  57.617 -56.230  1.00  0.00     0.048 A 
HETATM   23  C   UNL     1     -43.899  57.146 -57.473  1.00  0.00     0.105 A 
HETATM   24  C   UNL     1     -43.139  56.010 -57.625  1.00  0.00     0.105 A 
HETATM   25  O   UNL     1     -44.211  57.724 -58.664  1.00  0.00    -0.323 OA
HETATM   26  O   UNL     1     -42.879  55.729 -58.929  1.00  0.00    -0.323 OA
HETATM   27  C   UNL     1     -42.704  55.277 -56.542  1.00  0.00     0.040 A 
HETATM   28  C   UNL     1     -43.540  56.834 -59.580  1.00  0.00     0.352 A 
HETATM   29  C   UNL     1     -43.051  55.736 -55.268  1.00  0.00     0.012 A 
ENDBRANCH  20  21
ENDBRANCH   2  20
BRANCH   1  30
HETATM   30  C   UNL     1     -43.014  55.205 -52.073  1.00  0.00     0.144 C 
BRANCH  30  31
HETATM   31  C   UNL     1     -41.968  54.202 -51.690  1.00  0.00    -0.021 A 
HETATM   32  C   UNL     1     -41.197  53.304 -52.505  1.00  0.00    -0.001 A 
HETATM   33  C   UNL     1     -41.135  53.012 -53.885  1.00  0.00     0.014 A 
HETATM   34  C   UNL     1     -40.317  52.625 -51.657  1.00  0.00     0.042 A 
HETATM   35  C   UNL     1     -40.191  52.094 -54.362  1.00  0.00     0.001 A 
HETATM   36  C   UNL     1     -39.323  51.448 -53.489  1.00  0.00     0.002 A 
HETATM   37  C   UNL     1     -39.376  51.696 -52.116  1.00  0.00     0.030 A 
HETATM   38  N   UNL     1     -40.571  53.050 -50.377  1.00  0.00    -0.365 N 
HETATM   39  H   UNL     1     -40.088  52.714 -49.555  1.00  0.00     0.165 HD
HETATM   40  C   UNL     1     -41.555  53.997 -50.383  1.00  0.00     0.097 A 
ENDBRANCH  30  31
ENDBRANCH   1  30
TORSDOF 8
ENDMDL
MODEL 9
REMARK VINA RESULT:      -8.6      2.255      5.587
REMARK  8 active torsions:
REMARK  status: ('A' for Active; 'I' for Inactive)
REMARK    1  A    between atoms: C_8  and  C_9 
REMARK    2  A    between atoms: C_9  and  C_10 
REMARK       I    between atoms: C_10  and  N_11 
REMARK    3  A    between atoms: N_11  and  C_12 
REMARK    4  A    between atoms: N_11  and  C_27 
REMARK    5  A    between atoms: C_12  and  C_13 
REMARK    6  A    between atoms: C_12  and  C_22 
REMARK       I    between atoms: C_13  and  N_14 
REMARK    7  A    between atoms: N_14  and  C_15 
REMARK    8  A    between atoms: C_27  and  C_28 
ROOT
HETATM    1  C   UNL     1     -41.817  55.658 -55.498  1.00  0.00     0.225 C 
HETATM    2  N   UNL     1     -42.492  56.884 -55.492  1.00  0.00    -0.330 N 
HETATM    3  O   UNL     1     -42.212  54.702 -56.173  1.00  0.00    -0.273 OA
ENDROOT
BRANCH   2   4
HETATM    4  C   UNL     1     -43.715  56.989 -56.320  1.00  0.00     0.219 C 
BRANCH   4   5
HETATM    5  C   UNL     1     -44.749  57.969 -55.698  1.00  0.00     0.246 C 
HETATM    6  N   UNL     1     -44.727  59.273 -56.153  1.00  0.00    -0.354 N 
HETATM    7  H   UNL     1     -43.811  59.553 -56.500  1.00  0.00     0.162 HD
HETATM    8  O   UNL     1     -45.482  57.602 -54.775  1.00  0.00    -0.271 OA
BRANCH   6   9
HETATM    9  C   UNL     1     -45.526  60.334 -55.545  1.00  0.00     0.084 C 
HETATM   10  C   UNL     1     -44.777  60.934 -54.342  1.00  0.00     0.025 C 
HETATM   11  C   UNL     1     -43.576  61.784 -54.759  1.00  0.00     0.002 C 
HETATM   12  C   UNL     1     -43.973  62.874 -55.749  1.00  0.00     0.000 C 
HETATM   13  C   UNL     1     -44.702  62.296 -56.957  1.00  0.00     0.002 C 
HETATM   14  C   UNL     1     -45.903  61.452 -56.534  1.00  0.00     0.025 C 
ENDBRANCH   6   9
ENDBRANCH   4   5
BRANCH   4  15
HETATM   15  C   UNL     1     -43.426  57.205 -57.801  1.00  0.00     0.014 A 
HETATM   16  S   UNL     1     -44.663  56.826 -58.948  1.00  0.00    -0.104 SA
HETATM   17  C   UNL     1     -43.682  57.276 -60.271  1.00  0.00     0.050 A 
HETATM   18  C   UNL     1     -42.431  57.680 -59.872  1.00  0.00     0.008 A 
HETATM   19  C   UNL     1     -42.279  57.625 -58.456  1.00  0.00     0.017 A 
ENDBRANCH   4  15
ENDBRANCH   2   4
BRANCH   2  20
HETATM   20  C   UNL     1     -41.757  58.131 -55.252  1.00  0.00     0.165 C 
BRANCH  20  21
HETATM   21  C   UNL     1     -41.567  58.485 -53.795  1.00  0.00    -0.037 A 
HETATM   22  C   UNL     1     -40.285  58.766 -53.297  1.00  0.00     0.048 A 
HETATM   23  C   UNL     1     -40.173  59.143 -51.975  1.00  0.00     0.105 A 
HETATM   24  C   UNL     1     -41.268  59.233 -51.149  1.00  0.00     0.105 A 
HETATM   25  O   UNL     1     -39.017  59.477 -51.341  1.00  0.00    -0.323 OA
HETATM   26  O   UNL     1     -40.941  59.632 -49.892  1.00  0.00    -0.323 OA
HETATM   27  C   UNL     1     -42.540  58.949 -51.597  1.00  0.00     0.040 A 
HETATM   28  C   UNL     1     -39.515  59.810 -50.028  1.00  0.00     0.352 A 
HETATM   29  C   UNL     1     -42.688  58.576 -52.935  1.00  0.00     0.012 A 
ENDBRANCH  20  21
ENDBRANCH   2  20
BRANCH   1  30
HETATM   30  C   UNL     1     -40.647  55.464 -54.545  1.00  0.00     0.144 C 
BRANCH  30  31
HETATM   31  C   UNL     1     -40.917  54.761 -53.249  1.00  0.00    -0.021 A 
HETATM   32  C   UNL     1     -40.475  53.477 -52.777  1.00  0.00    -0.001 A 
HETATM   33  C   UNL     1     -39.688  52.434 -53.311  1.00  0.00     0.014 A 
HETATM   34  C   UNL     1     -40.961  53.324 -51.475  1.00  0.00     0.042 A 
HETATM   35  C   UNL     1     -39.393  51.311 -52.526  1.00  0.00     0.001 A 
HETATM   36  C   UNL     1     -39.884  51.200 -51.231  1.00  0.00     0.002 A 
HETATM   37  C   UNL     1     -40.686  52.203 -50.683  1.00  0.00     0.030 A 
HETATM   38  N   UNL     1     -41.708  54.438 -51.183  1.00  0.00    -0.365 N 
HETATM   39  H   UNL     1     -42.191  54.590 -50.308  1.00  0.00     0.165 HD
HETATM   40  C   UNL     1     -41.687  55.307 -52.235  1.00  0.00     0.097 A 
ENDBRANCH  30  31
ENDBRANCH   1  30
TORSDOF 8
ENDMDL
MODEL 10
REMARK VINA RESULT:      -8.5      2.444      4.068
REMARK  8 active torsions:
REMARK  status: ('A' for Active; 'I' for Inactive)
REMARK    1  A    between atoms: C_8  and  C_9 
REMARK    2  A    between atoms: C_9  and  C_10 
REMARK       I    between atoms: C_10  and  N_11 
REMARK    3  A    between atoms: N_11  and  C_12 
REMARK    4  A    between atoms: N_11  and  C_27 
REMARK    5  A    between atoms: C_12  and  C_13 
REMARK    6  A    between atoms: C_12  and  C_22 
REMARK       I    between atoms: C_13  and  N_14 
REMARK    7  A    between atoms: N_14  and  C_15 
REMARK    8  A    between atoms: C_27  and  C_28 
ROOT
HETATM    1  C   UNL     1     -43.300  56.259 -51.668  1.00  0.00     0.225 C 
HETATM    2  N   UNL     1     -43.618  57.246 -52.608  1.00  0.00    -0.330 N 
HETATM    3  O   UNL     1     -42.912  56.544 -50.531  1.00  0.00    -0.273 OA
ENDROOT
BRANCH   2   4
HETATM    4  C   UNL     1     -43.456  58.657 -52.189  1.00  0.00     0.219 C 
BRANCH   4   5
HETATM    5  C   UNL     1     -44.640  59.133 -51.301  1.00  0.00     0.246 C 
HETATM    6  N   UNL     1     -44.870  60.495 -51.244  1.00  0.00    -0.354 N 
HETATM    7  H   UNL     1     -44.030  61.043 -51.419  1.00  0.00     0.162 HD
HETATM    8  O   UNL     1     -45.271  58.326 -50.614  1.00  0.00    -0.271 OA
BRANCH   6   9
HETATM    9  C   UNL     1     -45.838  61.093 -50.328  1.00  0.00     0.084 C 
HETATM   10  C   UNL     1     -45.151  61.463 -49.002  1.00  0.00     0.025 C 
HETATM   11  C   UNL     1     -44.215  62.666 -49.139  1.00  0.00     0.002 C 
HETATM   12  C   UNL     1     -44.934  63.873 -49.733  1.00  0.00     0.000 C 
HETATM   13  C   UNL     1     -45.607  63.529 -51.057  1.00  0.00     0.002 C 
HETATM   14  C   UNL     1     -46.543  62.330 -50.913  1.00  0.00     0.025 C 
ENDBRANCH   6   9
ENDBRANCH   4   5
BRANCH   4  15
HETATM   15  C   UNL     1     -42.068  58.972 -51.643  1.00  0.00     0.014 A 
HETATM   16  S   UNL     1     -40.691  58.581 -52.611  1.00  0.00    -0.104 SA
HETATM   17  C   UNL     1     -39.600  59.163 -51.433  1.00  0.00     0.050 A 
HETATM   18  C   UNL     1     -40.249  59.622 -50.312  1.00  0.00     0.008 A 
HETATM   19  C   UNL     1     -41.664  59.498 -50.426  1.00  0.00     0.017 A 
ENDBRANCH   4  15
ENDBRANCH   2   4
BRANCH   2  20
HETATM   20  C   UNL     1     -44.621  56.984 -53.646  1.00  0.00     0.165 C 
BRANCH  20  21
HETATM   21  C   UNL     1     -44.077  56.924 -55.054  1.00  0.00    -0.037 A 
HETATM   22  C   UNL     1     -44.373  57.945 -55.971  1.00  0.00     0.048 A 
HETATM   23  C   UNL     1     -43.804  57.873 -57.225  1.00  0.00     0.105 A 
HETATM   24  C   UNL     1     -42.979  56.836 -57.591  1.00  0.00     0.105 A 
HETATM   25  O   UNL     1     -43.960  58.787 -58.221  1.00  0.00    -0.323 OA
HETATM   26  O   UNL     1     -42.515  56.964 -58.862  1.00  0.00    -0.323 OA
HETATM   27  C   UNL     1     -42.678  55.807 -56.725  1.00  0.00     0.040 A 
HETATM   28  C   UNL     1     -43.120  58.216 -59.245  1.00  0.00     0.352 A 
HETATM   29  C   UNL     1     -43.231  55.857 -55.443  1.00  0.00     0.012 A 
ENDBRANCH  20  21
ENDBRANCH   2  20
BRANCH   1  30
HETATM   30  C   UNL     1     -43.307  54.803 -52.110  1.00  0.00     0.144 C 
BRANCH  30  31
HETATM   31  C   UNL     1     -42.118  53.963 -51.751  1.00  0.00    -0.021 A 
HETATM   32  C   UNL     1     -41.295  53.117 -52.571  1.00  0.00    -0.001 A 
HETATM   33  C   UNL     1     -41.290  52.746 -53.934  1.00  0.00     0.014 A 
HETATM   34  C   UNL     1     -40.280  52.608 -51.756  1.00  0.00     0.042 A 
HETATM   35  C   UNL     1     -40.270  51.923 -54.428  1.00  0.00     0.001 A 
HETATM   36  C   UNL     1     -39.270  51.447 -53.589  1.00  0.00     0.002 A 
HETATM   37  C   UNL     1     -39.261  51.774 -52.232  1.00  0.00     0.030 A 
HETATM   38  N   UNL     1     -40.500  53.080 -50.486  1.00  0.00    -0.365 N 
HETATM   39  H   UNL     1     -39.923  52.859 -49.685  1.00  0.00     0.165 HD
HETATM   40  C   UNL     1     -41.595  53.895 -50.470  1.00  0.00     0.097 A 
ENDBRANCH  30  31
ENDBRANCH   1  30
TORSDOF 8
ENDMDL
