MODEL 1
REMARK VINA RESULT:      -8.8      0.000      0.000
REMARK  6 active torsions:
REMARK  status: ('A' for Active; 'I' for Inactive)
REMARK    1  A    between atoms: C_2  and  C_3 
REMARK    2  A    between atoms: C_7  and  N_8 
REMARK       I    between atoms: N_8  and  C_9 
REMARK    3  A    between atoms: C_9  and  C_10 
REMARK    4  A    between atoms: C_11  and  C_12 
REMARK    5  A    between atoms: C_14  and  O_15 
REMARK    6  A    between atoms: C_17  and  O_18 
ROOT
HETATM    1  N   UNL     1     -41.242  54.383 -54.283  1.00  0.00    -0.322 N 
HETATM    2  C   UNL     1     -42.575  54.527 -54.631  1.00  0.00     0.245 C 
HETATM    3  O   UNL     1     -43.545  54.150 -53.989  1.00  0.00    -0.268 OA
HETATM    4  H   UNL     1     -40.596  54.434 -55.056  1.00  0.00     0.169 HD
ENDROOT
BRANCH   1   5
HETATM    5  C   UNL     1     -40.798  53.673 -53.126  1.00  0.00     0.055 C 
HETATM    6  C   UNL     1     -40.401  52.304 -53.174  1.00  0.00     0.020 A 
HETATM    7  C   UNL     1     -39.830  51.771 -52.006  1.00  0.00     0.069 A 
HETATM    8  C   UNL     1     -40.590  51.420 -54.272  1.00  0.00     0.016 A 
HETATM    9  N   UNL     1     -39.679  52.478 -50.880  1.00  0.00    -0.252 NA
HETATM   10  C   UNL     1     -39.409  50.447 -51.987  1.00  0.00     0.032 A 
HETATM   11  C   UNL     1     -40.122  53.754 -50.819  1.00  0.00     0.043 C 
HETATM   12  C   UNL     1     -40.756  54.380 -51.901  1.00  0.00    -0.010 C 
HETATM   13  C   UNL     1     -41.278  55.787 -51.780  1.00  0.00     0.052 C 
HETATM   14  C   UNL     1     -39.563  49.605 -53.088  1.00  0.00     0.002 A 
HETATM   15  C   UNL     1     -40.168  50.092 -54.233  1.00  0.00     0.001 A 
BRANCH  11  16
HETATM   16  C   UNL     1     -39.900  54.465 -49.500  1.00  0.00     0.055 C 
HETATM   17  C   UNL     1     -40.497  53.758 -48.286  1.00  0.00     0.011 C 
ENDBRANCH  11  16
ENDBRANCH   1   5
BRANCH   2  18
HETATM   18  C   UNL     1     -42.740  55.133 -55.985  1.00  0.00     0.075 C 
HETATM   19  C   UNL     1     -42.496  56.445 -56.136  1.00  0.00     0.017 C 
BRANCH  19  20
HETATM   20  C   UNL     1     -42.633  57.212 -57.383  1.00  0.00    -0.033 A 
HETATM   21  C   UNL     1     -43.188  56.566 -58.501  1.00  0.00     0.051 A 
HETATM   22  C   UNL     1     -43.276  57.210 -59.741  1.00  0.00     0.102 A 
HETATM   23  C   UNL     1     -42.790  58.521 -59.862  1.00  0.00     0.101 A 
HETATM   24  C   UNL     1     -42.253  59.179 -58.752  1.00  0.00     0.040 A 
HETATM   25  C   UNL     1     -42.163  58.521 -57.523  1.00  0.00     0.014 A 
BRANCH  22  26
HETATM   26  O   UNL     1     -43.793  56.649 -60.880  1.00  0.00    -0.353 OA
HETATM   27  C   UNL     1     -44.707  55.571 -60.723  1.00  0.00     0.210 C 
ENDBRANCH  22  26
BRANCH  23  28
HETATM   28  O   UNL     1     -42.907  59.140 -61.082  1.00  0.00    -0.353 OA
HETATM   29  C   UNL     1     -41.993  60.219 -61.262  1.00  0.00     0.210 C 
ENDBRANCH  23  28
ENDBRANCH  19  20
ENDBRANCH   2  18
TORSDOF 6
ENDMDL
MODEL 2
REMARK VINA RESULT:      -8.7      1.602      1.755
REMARK  6 active torsions:
REMARK  status: ('A' for Active; 'I' for Inactive)
REMARK    1  A    between atoms: C_2  and  C_3 
REMARK    2  A    between atoms: C_7  and  N_8 
REMARK       I    between atoms: N_8  and  C_9 
REMARK    3  A    between atoms: C_9  and  C_10 
REMARK    4  A    between atoms: C_11  and  C_12 
REMARK    5  A    between atoms: C_14  and  O_15 
REMARK    6  A    between atoms: C_17  and  O_18 
ROOT
HETATM    1  N   UNL     1     -41.658  54.577 -53.837  1.00  0.00    -0.322 N 
HETATM    2  C   UNL     1     -40.951  55.322 -54.767  1.00  0.00     0.245 C 
HETATM    3  O   UNL     1     -39.736  55.363 -54.903  1.00  0.00    -0.268 OA
HETATM    4  H   UNL     1     -42.587  54.917 -53.644  1.00  0.00     0.169 HD
ENDROOT
BRANCH   1   5
HETATM    5  C   UNL     1     -41.039  53.791 -52.817  1.00  0.00     0.055 C 
HETATM    6  C   UNL     1     -40.572  52.465 -53.052  1.00  0.00     0.020 A 
HETATM    7  C   UNL     1     -39.837  51.862 -52.017  1.00  0.00     0.069 A 
HETATM    8  C   UNL     1     -40.837  51.680 -54.209  1.00  0.00     0.016 A 
HETATM    9  N   UNL     1     -39.596  52.465 -50.847  1.00  0.00    -0.252 NA
HETATM   10  C   UNL     1     -39.340  50.575 -52.183  1.00  0.00     0.032 A 
HETATM   11  C   UNL     1     -40.102  53.695 -50.605  1.00  0.00     0.043 C 
HETATM   12  C   UNL     1     -40.895  54.377 -51.537  1.00  0.00    -0.010 C 
HETATM   13  C   UNL     1     -41.481  55.726 -51.213  1.00  0.00     0.052 C 
HETATM   14  C   UNL     1     -39.573  49.835 -53.342  1.00  0.00     0.002 A 
HETATM   15  C   UNL     1     -40.337  50.387 -54.356  1.00  0.00     0.001 A 
BRANCH  11  16
HETATM   16  C   UNL     1     -39.768  54.289 -49.251  1.00  0.00     0.055 C 
HETATM   17  C   UNL     1     -40.478  53.628 -48.073  1.00  0.00     0.011 C 
ENDBRANCH  11  16
ENDBRANCH   1   5
BRANCH   2  18
HETATM   18  C   UNL     1     -41.843  56.201 -55.578  1.00  0.00     0.075 C 
HETATM   19  C   UNL     1     -42.473  55.673 -56.641  1.00  0.00     0.017 C 
BRANCH  19  20
HETATM   20  C   UNL     1     -43.362  56.393 -57.564  1.00  0.00    -0.033 A 
HETATM   21  C   UNL     1     -43.517  55.888 -58.866  1.00  0.00     0.051 A 
HETATM   22  C   UNL     1     -44.285  56.565 -59.820  1.00  0.00     0.102 A 
HETATM   23  C   UNL     1     -44.901  57.775 -59.464  1.00  0.00     0.101 A 
HETATM   24  C   UNL     1     -44.769  58.277 -58.167  1.00  0.00     0.040 A 
HETATM   25  C   UNL     1     -43.992  57.595 -57.226  1.00  0.00     0.014 A 
BRANCH  22  26
HETATM   26  O   UNL     1     -44.478  56.146 -61.112  1.00  0.00    -0.353 OA
HETATM   27  C   UNL     1     -45.020  54.846 -61.305  1.00  0.00     0.210 C 
ENDBRANCH  22  26
BRANCH  23  28
HETATM   28  O   UNL     1     -45.668  58.410 -60.410  1.00  0.00    -0.353 OA
HETATM   29  C   UNL     1     -47.068  58.301 -60.171  1.00  0.00     0.210 C 
ENDBRANCH  23  28
ENDBRANCH  19  20
ENDBRANCH   2  18
TORSDOF 6
ENDMDL
MODEL 3
REMARK VINA RESULT:      -8.6      1.823      2.509
REMARK  6 active torsions:
REMARK  status: ('A' for Active; 'I' for Inactive)
REMARK    1  A    between atoms: C_2  and  C_3 
REMARK    2  A    between atoms: C_7  and  N_8 
REMARK       I    between atoms: N_8  and  C_9 
REMARK    3  A    between atoms: C_9  and  C_10 
REMARK    4  A    between atoms: C_11  and  C_12 
REMARK    5  A    between atoms: C_14  and  O_15 
REMARK    6  A    between atoms: C_17  and  O_18 
ROOT
HETATM    1  N   UNL     1     -41.819  54.351 -54.129  1.00  0.00    -0.322 N 
HETATM    2  C   UNL     1     -41.179  55.216 -55.002  1.00  0.00     0.245 C 
HETATM    3  O   UNL     1     -39.983  55.468 -55.039  1.00  0.00    -0.268 OA
HETATM    4  H   UNL     1     -42.806  54.523 -54.013  1.00  0.00     0.169 HD
ENDROOT
BRANCH   1   5
HETATM    5  C   UNL     1     -41.158  53.675 -53.058  1.00  0.00     0.055 C 
HETATM    6  C   UNL     1     -40.612  52.366 -53.201  1.00  0.00     0.020 A 
HETATM    7  C   UNL     1     -39.846  51.880 -52.128  1.00  0.00     0.069 A 
HETATM    8  C   UNL     1     -40.827  51.489 -54.301  1.00  0.00     0.016 A 
HETATM    9  N   UNL     1     -39.644  52.576 -51.003  1.00  0.00    -0.252 NA
HETATM   10  C   UNL     1     -39.273  50.617 -52.205  1.00  0.00     0.032 A 
HETATM   11  C   UNL     1     -40.223  53.788 -50.845  1.00  0.00     0.043 C 
HETATM   12  C   UNL     1     -41.052  54.356 -51.822  1.00  0.00    -0.010 C 
HETATM   13  C   UNL     1     -41.717  55.686 -51.591  1.00  0.00     0.052 C 
HETATM   14  C   UNL     1     -39.458  49.786 -53.310  1.00  0.00     0.002 A 
HETATM   15  C   UNL     1     -40.251  50.221 -54.359  1.00  0.00     0.001 A 
BRANCH  11  16
HETATM   16  C   UNL     1     -39.929  54.492 -49.536  1.00  0.00     0.055 C 
HETATM   17  C   UNL     1     -40.471  53.787 -48.297  1.00  0.00     0.011 C 
ENDBRANCH  11  16
ENDBRANCH   1   5
BRANCH   2  18
HETATM   18  C   UNL     1     -42.142  55.934 -55.888  1.00  0.00     0.075 C 
HETATM   19  C   UNL     1     -42.584  55.313 -56.994  1.00  0.00     0.017 C 
BRANCH  19  20
HETATM   20  C   UNL     1     -43.507  55.875 -57.990  1.00  0.00    -0.033 A 
HETATM   21  C   UNL     1     -44.042  57.154 -57.752  1.00  0.00     0.051 A 
HETATM   22  C   UNL     1     -44.988  57.716 -58.618  1.00  0.00     0.102 A 
HETATM   23  C   UNL     1     -45.409  56.981 -59.736  1.00  0.00     0.101 A 
HETATM   24  C   UNL     1     -44.870  55.717 -59.993  1.00  0.00     0.040 A 
HETATM   25  C   UNL     1     -43.934  55.163 -59.115  1.00  0.00     0.014 A 
BRANCH  22  26
HETATM   26  O   UNL     1     -45.564  58.950 -58.452  1.00  0.00    -0.353 OA
HETATM   27  C   UNL     1     -44.963  59.833 -57.515  1.00  0.00     0.210 C 
ENDBRANCH  22  26
BRANCH  23  28
HETATM   28  O   UNL     1     -46.320  57.563 -60.583  1.00  0.00    -0.353 OA
HETATM   29  C   UNL     1     -47.331  56.665 -61.034  1.00  0.00     0.210 C 
ENDBRANCH  23  28
ENDBRANCH  19  20
ENDBRANCH   2  18
TORSDOF 6
ENDMDL
MODEL 4
REMARK VINA RESULT:      -8.6      0.860      3.056
REMARK  6 active torsions:
REMARK  status: ('A' for Active; 'I' for Inactive)
REMARK    1  A    between atoms: C_2  and  C_3 
REMARK    2  A    between atoms: C_7  and  N_8 
REMARK       I    between atoms: N_8  and  C_9 
REMARK    3  A    between atoms: C_9  and  C_10 
REMARK    4  A    between atoms: C_11  and  C_12 
REMARK    5  A    between atoms: C_14  and  O_15 
REMARK    6  A    between atoms: C_17  and  O_18 
ROOT
HETATM    1  N   UNL     1     -41.455  55.046 -53.479  1.00  0.00    -0.322 N 
HETATM    2  C   UNL     1     -42.810  55.128 -53.754  1.00  0.00     0.245 C 
HETATM    3  O   UNL     1     -43.702  54.461 -53.249  1.00  0.00    -0.268 OA
HETATM    4  H   UNL     1     -40.855  55.405 -54.206  1.00  0.00     0.169 HD
ENDROOT
BRANCH   1   5
HETATM    5  C   UNL     1     -40.882  54.077 -52.600  1.00  0.00     0.055 C 
HETATM    6  C   UNL     1     -40.873  54.241 -51.184  1.00  0.00     0.020 A 
HETATM    7  C   UNL     1     -40.430  53.144 -50.424  1.00  0.00     0.069 A 
HETATM    8  C   UNL     1     -41.210  55.431 -50.480  1.00  0.00     0.016 A 
HETATM    9  N   UNL     1     -40.005  52.001 -50.974  1.00  0.00    -0.252 NA
HETATM   10  C   UNL     1     -40.407  53.230 -49.037  1.00  0.00     0.032 A 
HETATM   11  C   UNL     1     -39.950  51.878 -52.318  1.00  0.00     0.043 C 
HETATM   12  C   UNL     1     -40.314  52.919 -53.183  1.00  0.00    -0.010 C 
HETATM   13  C   UNL     1     -40.194  52.762 -54.675  1.00  0.00     0.052 C 
HETATM   14  C   UNL     1     -40.782  54.391 -48.361  1.00  0.00     0.002 A 
HETATM   15  C   UNL     1     -41.174  55.502 -49.088  1.00  0.00     0.001 A 
BRANCH  11  16
HETATM   16  C   UNL     1     -39.456  50.543 -52.838  1.00  0.00     0.055 C 
HETATM   17  C   UNL     1     -39.611  49.381 -51.860  1.00  0.00     0.011 C 
ENDBRANCH  11  16
ENDBRANCH   1   5
BRANCH   2  18
HETATM   18  C   UNL     1     -43.103  56.092 -54.855  1.00  0.00     0.075 C 
HETATM   19  C   UNL     1     -42.635  55.823 -56.086  1.00  0.00     0.017 C 
BRANCH  19  20
HETATM   20  C   UNL     1     -42.803  56.667 -57.277  1.00  0.00    -0.033 A 
HETATM   21  C   UNL     1     -43.296  56.070 -58.450  1.00  0.00     0.051 A 
HETATM   22  C   UNL     1     -43.406  56.796 -59.642  1.00  0.00     0.102 A 
HETATM   23  C   UNL     1     -43.006  58.142 -59.659  1.00  0.00     0.101 A 
HETATM   24  C   UNL     1     -42.532  58.750 -58.494  1.00  0.00     0.040 A 
HETATM   25  C   UNL     1     -42.419  58.012 -57.313  1.00  0.00     0.014 A 
BRANCH  22  26
HETATM   26  O   UNL     1     -43.866  56.287 -60.829  1.00  0.00    -0.353 OA
HETATM   27  C   UNL     1     -44.756  55.180 -60.767  1.00  0.00     0.210 C 
ENDBRANCH  22  26
BRANCH  23  28
HETATM   28  O   UNL     1     -43.144  58.839 -60.834  1.00  0.00    -0.353 OA
HETATM   29  C   UNL     1     -41.978  59.571 -61.200  1.00  0.00     0.210 C 
ENDBRANCH  23  28
ENDBRANCH  19  20
ENDBRANCH   2  18
TORSDOF 6
ENDMDL
MODEL 5
REMARK VINA RESULT:      -8.4      1.615      3.431
REMARK  6 active torsions:
REMARK  status: ('A' for Active; 'I' for Inactive)
REMARK    1  A    between atoms: C_2  and  C_3 
REMARK    2  A    between atoms: C_7  and  N_8 
REMARK       I    between atoms: N_8  and  C_9 
REMARK    3  A    between atoms: C_9  and  C_10 
REMARK    4  A    between atoms: C_11  and  C_12 
REMARK    5  A    between atoms: C_14  and  O_15 
REMARK    6  A    between atoms: C_17  and  O_18 
ROOT
HETATM    1  N   UNL     1     -41.734  53.756 -54.147  1.00  0.00    -0.322 N 
HETATM    2  C   UNL     1     -41.219  54.683 -55.038  1.00  0.00     0.245 C 
HETATM    3  O   UNL     1     -40.141  55.256 -54.958  1.00  0.00    -0.268 OA
HETATM    4  H   UNL     1     -42.737  53.654 -54.178  1.00  0.00     0.169 HD
ENDROOT
BRANCH   1   5
HETATM    5  C   UNL     1     -41.093  53.392 -52.923  1.00  0.00     0.055 C 
HETATM    6  C   UNL     1     -41.187  54.188 -51.744  1.00  0.00     0.020 A 
HETATM    7  C   UNL     1     -40.650  53.639 -50.567  1.00  0.00     0.069 A 
HETATM    8  C   UNL     1     -41.716  55.507 -51.669  1.00  0.00     0.016 A 
HETATM    9  N   UNL     1     -40.049  52.444 -50.529  1.00  0.00    -0.252 NA
HETATM   10  C   UNL     1     -40.720  54.355 -49.378  1.00  0.00     0.032 A 
HETATM   11  C   UNL     1     -39.900  51.726 -51.664  1.00  0.00     0.043 C 
HETATM   12  C   UNL     1     -40.346  52.191 -52.909  1.00  0.00    -0.010 C 
HETATM   13  C   UNL     1     -40.120  51.383 -54.160  1.00  0.00     0.052 C 
HETATM   14  C   UNL     1     -41.281  55.630 -49.313  1.00  0.00     0.002 A 
HETATM   15  C   UNL     1     -41.771  56.214 -50.469  1.00  0.00     0.001 A 
BRANCH  11  16
HETATM   16  C   UNL     1     -39.208  50.387 -51.510  1.00  0.00     0.055 C 
HETATM   17  C   UNL     1     -39.900  49.417 -50.558  1.00  0.00     0.011 C 
ENDBRANCH  11  16
ENDBRANCH   1   5
BRANCH   2  18
HETATM   18  C   UNL     1     -42.187  55.019 -56.122  1.00  0.00     0.075 C 
HETATM   19  C   UNL     1     -42.403  56.313 -56.413  1.00  0.00     0.017 C 
BRANCH  19  20
HETATM   20  C   UNL     1     -43.337  56.826 -57.425  1.00  0.00    -0.033 A 
HETATM   21  C   UNL     1     -43.374  56.190 -58.679  1.00  0.00     0.051 A 
HETATM   22  C   UNL     1     -44.181  56.675 -59.714  1.00  0.00     0.102 A 
HETATM   23  C   UNL     1     -44.958  57.823 -59.491  1.00  0.00     0.101 A 
HETATM   24  C   UNL     1     -44.943  58.452 -58.244  1.00  0.00     0.040 A 
HETATM   25  C   UNL     1     -44.126  57.963 -57.221  1.00  0.00     0.014 A 
BRANCH  22  26
HETATM   26  O   UNL     1     -44.266  56.120 -60.965  1.00  0.00    -0.353 OA
HETATM   27  C   UNL     1     -45.005  54.913 -61.098  1.00  0.00     0.210 C 
ENDBRANCH  22  26
BRANCH  23  28
HETATM   28  O   UNL     1     -45.759  58.266 -60.515  1.00  0.00    -0.353 OA
HETATM   29  C   UNL     1     -47.126  58.413 -60.142  1.00  0.00     0.210 C 
ENDBRANCH  23  28
ENDBRANCH  19  20
ENDBRANCH   2  18
TORSDOF 6
ENDMDL
MODEL 6
REMARK VINA RESULT:      -8.1      1.082      1.928
REMARK  6 active torsions:
REMARK  status: ('A' for Active; 'I' for Inactive)
REMARK    1  A    between atoms: C_2  and  C_3 
REMARK    2  A    between atoms: C_7  and  N_8 
REMARK       I    between atoms: N_8  and  C_9 
REMARK    3  A    between atoms: C_9  and  C_10 
REMARK    4  A    between atoms: C_11  and  C_12 
REMARK    5  A    between atoms: C_14  and  O_15 
REMARK    6  A    between atoms: C_17  and  O_18 
ROOT
HETATM    1  N   UNL     1     -41.218  54.867 -54.372  1.00  0.00    -0.322 N 
HETATM    2  C   UNL     1     -42.431  54.812 -55.039  1.00  0.00     0.245 C 
HETATM    3  O   UNL     1     -43.441  54.227 -54.673  1.00  0.00    -0.268 OA
HETATM    4  H   UNL     1     -40.426  55.087 -54.957  1.00  0.00     0.169 HD
ENDROOT
BRANCH   1   5
HETATM    5  C   UNL     1     -40.943  54.154 -53.166  1.00  0.00     0.055 C 
HETATM    6  C   UNL     1     -40.487  52.803 -53.163  1.00  0.00     0.020 A 
HETATM    7  C   UNL     1     -40.097  52.271 -51.922  1.00  0.00     0.069 A 
HETATM    8  C   UNL     1     -40.452  51.933 -54.288  1.00  0.00     0.016 A 
HETATM    9  N   UNL     1     -40.165  52.962 -50.779  1.00  0.00    -0.252 NA
HETATM   10  C   UNL     1     -39.628  50.965 -51.849  1.00  0.00     0.032 A 
HETATM   11  C   UNL     1     -40.666  54.218 -50.778  1.00  0.00     0.043 C 
HETATM   12  C   UNL     1     -41.137  54.839 -51.943  1.00  0.00    -0.010 C 
HETATM   13  C   UNL     1     -41.731  56.221 -51.895  1.00  0.00     0.052 C 
HETATM   14  C   UNL     1     -39.560  50.138 -52.970  1.00  0.00     0.002 A 
HETATM   15  C   UNL     1     -39.986  50.622 -54.195  1.00  0.00     0.001 A 
BRANCH  11  16
HETATM   16  C   UNL     1     -40.698  54.913 -49.432  1.00  0.00     0.055 C 
HETATM   17  C   UNL     1     -40.245  54.050 -48.257  1.00  0.00     0.011 C 
ENDBRANCH  11  16
ENDBRANCH   1   5
BRANCH   2  18
HETATM   18  C   UNL     1     -42.373  55.485 -56.369  1.00  0.00     0.075 C 
HETATM   19  C   UNL     1     -42.795  56.757 -56.464  1.00  0.00     0.017 C 
BRANCH  19  20
HETATM   20  C   UNL     1     -42.836  57.564 -57.692  1.00  0.00    -0.033 A 
HETATM   21  C   UNL     1     -43.143  58.931 -57.579  1.00  0.00     0.051 A 
HETATM   22  C   UNL     1     -43.276  59.741 -58.713  1.00  0.00     0.102 A 
HETATM   23  C   UNL     1     -43.108  59.167 -59.983  1.00  0.00     0.101 A 
HETATM   24  C   UNL     1     -42.784  57.813 -60.106  1.00  0.00     0.040 A 
HETATM   25  C   UNL     1     -42.662  57.014 -58.966  1.00  0.00     0.014 A 
BRANCH  22  26
HETATM   26  O   UNL     1     -43.583  61.077 -58.689  1.00  0.00    -0.353 OA
HETATM   27  C   UNL     1     -43.824  61.672 -57.421  1.00  0.00     0.210 C 
ENDBRANCH  22  26
BRANCH  23  28
HETATM   28  O   UNL     1     -43.221  59.986 -61.079  1.00  0.00    -0.353 OA
HETATM   29  C   UNL     1     -41.966  60.421 -61.595  1.00  0.00     0.210 C 
ENDBRANCH  23  28
ENDBRANCH  19  20
ENDBRANCH   2  18
TORSDOF 6
ENDMDL
MODEL 7
REMARK VINA RESULT:      -7.9      1.525      3.722
REMARK  6 active torsions:
REMARK  status: ('A' for Active; 'I' for Inactive)
REMARK    1  A    between atoms: C_2  and  C_3 
REMARK    2  A    between atoms: C_7  and  N_8 
REMARK       I    between atoms: N_8  and  C_9 
REMARK    3  A    between atoms: C_9  and  C_10 
REMARK    4  A    between atoms: C_11  and  C_12 
REMARK    5  A    between atoms: C_14  and  O_15 
REMARK    6  A    between atoms: C_17  and  O_18 
ROOT
HETATM    1  N   UNL     1     -41.657  55.584 -53.759  1.00  0.00    -0.322 N 
HETATM    2  C   UNL     1     -42.986  55.540 -54.144  1.00  0.00     0.245 C 
HETATM    3  O   UNL     1     -43.797  54.663 -53.880  1.00  0.00    -0.268 OA
HETATM    4  H   UNL     1     -41.071  56.173 -54.332  1.00  0.00     0.169 HD
ENDROOT
BRANCH   1   5
HETATM    5  C   UNL     1     -41.003  54.533 -53.047  1.00  0.00     0.055 C 
HETATM    6  C   UNL     1     -40.967  54.482 -51.623  1.00  0.00     0.020 A 
HETATM    7  C   UNL     1     -40.438  53.315 -51.046  1.00  0.00     0.069 A 
HETATM    8  C   UNL     1     -41.358  55.528 -50.741  1.00  0.00     0.016 A 
HETATM    9  N   UNL     1     -39.958  52.297 -51.770  1.00  0.00    -0.252 NA
HETATM   10  C   UNL     1     -40.384  53.192 -49.663  1.00  0.00     0.032 A 
HETATM   11  C   UNL     1     -39.930  52.382 -53.118  1.00  0.00     0.043 C 
HETATM   12  C   UNL     1     -40.380  53.516 -53.808  1.00  0.00    -0.010 C 
HETATM   13  C   UNL     1     -40.290  53.593 -55.309  1.00  0.00     0.052 C 
HETATM   14  C   UNL     1     -40.812  54.211 -48.811  1.00  0.00     0.002 A 
HETATM   15  C   UNL     1     -41.290  55.391 -49.355  1.00  0.00     0.001 A 
BRANCH  11  16
HETATM   16  C   UNL     1     -39.369  51.175 -53.843  1.00  0.00     0.055 C 
HETATM   17  C   UNL     1     -40.398  50.103 -54.189  1.00  0.00     0.011 C 
ENDBRANCH  11  16
ENDBRANCH   1   5
BRANCH   2  18
HETATM   18  C   UNL     1     -43.349  56.673 -55.046  1.00  0.00     0.075 C 
HETATM   19  C   UNL     1     -43.154  56.530 -56.368  1.00  0.00     0.017 C 
BRANCH  19  20
HETATM   20  C   UNL     1     -43.426  57.545 -57.395  1.00  0.00    -0.033 A 
HETATM   21  C   UNL     1     -42.827  58.809 -57.255  1.00  0.00     0.051 A 
HETATM   22  C   UNL     1     -43.105  59.846 -58.153  1.00  0.00     0.102 A 
HETATM   23  C   UNL     1     -44.005  59.614 -59.204  1.00  0.00     0.101 A 
HETATM   24  C   UNL     1     -44.592  58.356 -59.364  1.00  0.00     0.040 A 
HETATM   25  C   UNL     1     -44.313  57.331 -58.455  1.00  0.00     0.014 A 
BRANCH  22  26
HETATM   26  O   UNL     1     -42.571  61.108 -58.081  1.00  0.00    -0.353 OA
HETATM   27  C   UNL     1     -41.178  61.245 -58.326  1.00  0.00     0.210 C 
ENDBRANCH  22  26
BRANCH  23  28
HETATM   28  O   UNL     1     -44.244  60.640 -60.085  1.00  0.00    -0.353 OA
HETATM   29  C   UNL     1     -43.710  60.407 -61.386  1.00  0.00     0.210 C 
ENDBRANCH  23  28
ENDBRANCH  19  20
ENDBRANCH   2  18
TORSDOF 6
ENDMDL
MODEL 8
REMARK VINA RESULT:      -7.6      4.745      6.826
REMARK  6 active torsions:
REMARK  status: ('A' for Active; 'I' for Inactive)
REMARK    1  A    between atoms: C_2  and  C_3 
REMARK    2  A    between atoms: C_7  and  N_8 
REMARK       I    between atoms: N_8  and  C_9 
REMARK    3  A    between atoms: C_9  and  C_10 
REMARK    4  A    between atoms: C_11  and  C_12 
REMARK    5  A    between atoms: C_14  and  O_15 
REMARK    6  A    between atoms: C_17  and  O_18 
ROOT
HETATM    1  N   UNL     1     -42.180  56.199 -52.888  1.00  0.00    -0.322 N 
HETATM    2  C   UNL     1     -41.578  57.422 -53.138  1.00  0.00     0.245 C 
HETATM    3  O   UNL     1     -40.378  57.646 -53.212  1.00  0.00    -0.268 OA
HETATM    4  H   UNL     1     -43.120  56.258 -52.529  1.00  0.00     0.169 HD
ENDROOT
BRANCH   1   5
HETATM    5  C   UNL     1     -41.454  55.006 -52.589  1.00  0.00     0.055 C 
HETATM    6  C   UNL     1     -41.163  54.603 -51.252  1.00  0.00     0.020 A 
HETATM    7  C   UNL     1     -40.590  53.331 -51.087  1.00  0.00     0.069 A 
HETATM    8  C   UNL     1     -41.343  55.396 -50.085  1.00  0.00     0.016 A 
HETATM    9  N   UNL     1     -40.293  52.526 -52.114  1.00  0.00    -0.252 NA
HETATM   10  C   UNL     1     -40.293  52.869 -49.810  1.00  0.00     0.032 A 
HETATM   11  C   UNL     1     -40.506  52.943 -53.382  1.00  0.00     0.043 C 
HETATM   12  C   UNL     1     -41.024  54.211 -53.678  1.00  0.00    -0.010 C 
HETATM   13  C   UNL     1     -41.203  54.659 -55.104  1.00  0.00     0.052 C 
HETATM   14  C   UNL     1     -40.515  53.643 -48.672  1.00  0.00     0.002 A 
HETATM   15  C   UNL     1     -41.032  54.920 -48.812  1.00  0.00     0.001 A 
BRANCH  11  16
HETATM   16  C   UNL     1     -40.137  51.955 -54.470  1.00  0.00     0.055 C 
HETATM   17  C   UNL     1     -39.930  50.522 -53.988  1.00  0.00     0.011 C 
ENDBRANCH  11  16
ENDBRANCH   1   5
BRANCH   2  18
HETATM   18  C   UNL     1     -42.573  58.531 -53.218  1.00  0.00     0.075 C 
HETATM   19  C   UNL     1     -43.452  58.681 -52.214  1.00  0.00     0.017 C 
BRANCH  19  20
HETATM   20  C   UNL     1     -44.513  59.696 -52.138  1.00  0.00    -0.033 A 
HETATM   21  C   UNL     1     -44.867  60.194 -50.872  1.00  0.00     0.051 A 
HETATM   22  C   UNL     1     -45.921  61.101 -50.719  1.00  0.00     0.102 A 
HETATM   23  C   UNL     1     -46.638  61.510 -51.855  1.00  0.00     0.101 A 
HETATM   24  C   UNL     1     -46.282  61.036 -53.120  1.00  0.00     0.040 A 
HETATM   25  C   UNL     1     -45.234  60.123 -53.258  1.00  0.00     0.014 A 
BRANCH  22  26
HETATM   26  O   UNL     1     -46.335  61.626 -49.521  1.00  0.00    -0.353 OA
HETATM   27  C   UNL     1     -45.712  61.136 -48.341  1.00  0.00     0.210 C 
ENDBRANCH  22  26
BRANCH  23  28
HETATM   28  O   UNL     1     -47.653  62.419 -51.682  1.00  0.00    -0.353 OA
HETATM   29  C   UNL     1     -48.623  62.391 -52.726  1.00  0.00     0.210 C 
ENDBRANCH  23  28
ENDBRANCH  19  20
ENDBRANCH   2  18
TORSDOF 6
ENDMDL
MODEL 9
REMARK VINA RESULT:      -7.6      1.631      3.464
REMARK  6 active torsions:
REMARK  status: ('A' for Active; 'I' for Inactive)
REMARK    1  A    between atoms: C_2  and  C_3 
REMARK    2  A    between atoms: C_7  and  N_8 
REMARK       I    between atoms: N_8  and  C_9 
REMARK    3  A    between atoms: C_9  and  C_10 
REMARK    4  A    between atoms: C_11  and  C_12 
REMARK    5  A    between atoms: C_14  and  O_15 
REMARK    6  A    between atoms: C_17  and  O_18 
ROOT
HETATM    1  N   UNL     1     -41.557  55.607 -53.296  1.00  0.00    -0.322 N 
HETATM    2  C   UNL     1     -42.927  55.812 -53.302  1.00  0.00     0.245 C 
HETATM    3  O   UNL     1     -43.774  55.116 -52.761  1.00  0.00    -0.268 OA
HETATM    4  H   UNL     1     -41.060  56.057 -54.050  1.00  0.00     0.169 HD
ENDROOT
BRANCH   1   5
HETATM    5  C   UNL     1     -40.929  54.467 -52.707  1.00  0.00     0.055 C 
HETATM    6  C   UNL     1     -40.855  54.279 -51.296  1.00  0.00     0.020 A 
HETATM    7  C   UNL     1     -40.360  53.041 -50.850  1.00  0.00     0.069 A 
HETATM    8  C   UNL     1     -41.175  55.250 -50.308  1.00  0.00     0.016 A 
HETATM    9  N   UNL     1     -39.945  52.079 -51.682  1.00  0.00    -0.252 NA
HETATM   10  C   UNL     1     -40.273  52.784 -49.487  1.00  0.00     0.032 A 
HETATM   11  C   UNL     1     -39.953  52.291 -53.017  1.00  0.00     0.043 C 
HETATM   12  C   UNL     1     -40.372  53.504 -53.581  1.00  0.00    -0.010 C 
HETATM   13  C   UNL     1     -40.322  53.721 -55.070  1.00  0.00     0.052 C 
HETATM   14  C   UNL     1     -40.632  53.733 -48.530  1.00  0.00     0.002 A 
HETATM   15  C   UNL     1     -41.074  54.979 -48.944  1.00  0.00     0.001 A 
BRANCH  11  16
HETATM   16  C   UNL     1     -39.464  51.138 -53.870  1.00  0.00     0.055 C 
HETATM   17  C   UNL     1     -40.555  50.167 -54.314  1.00  0.00     0.011 C 
ENDBRANCH  11  16
ENDBRANCH   1   5
BRANCH   2  18
HETATM   18  C   UNL     1     -43.318  56.971 -54.157  1.00  0.00     0.075 C 
HETATM   19  C   UNL     1     -43.271  56.829 -55.492  1.00  0.00     0.017 C 
BRANCH  19  20
HETATM   20  C   UNL     1     -43.593  57.867 -56.483  1.00  0.00    -0.033 A 
HETATM   21  C   UNL     1     -43.128  57.695 -57.799  1.00  0.00     0.051 A 
HETATM   22  C   UNL     1     -43.329  58.680 -58.773  1.00  0.00     0.102 A 
HETATM   23  C   UNL     1     -44.001  59.861 -58.418  1.00  0.00     0.101 A 
HETATM   24  C   UNL     1     -44.484  60.034 -57.118  1.00  0.00     0.040 A 
HETATM   25  C   UNL     1     -44.268  59.046 -56.153  1.00  0.00     0.014 A 
BRANCH  22  26
HETATM   26  O   UNL     1     -42.901  58.595 -60.072  1.00  0.00    -0.353 OA
HETATM   27  C   UNL     1     -41.819  57.717 -60.349  1.00  0.00     0.210 C 
ENDBRANCH  22  26
BRANCH  23  28
HETATM   28  O   UNL     1     -44.207  60.803 -59.396  1.00  0.00    -0.353 OA
HETATM   29  C   UNL     1     -43.882  62.128 -58.986  1.00  0.00     0.210 C 
ENDBRANCH  23  28
ENDBRANCH  19  20
ENDBRANCH   2  18
TORSDOF 6
ENDMDL
MODEL 10
REMARK VINA RESULT:      -7.4      6.022      8.526
REMARK  6 active torsions:
REMARK  status: ('A' for Active; 'I' for Inactive)
REMARK    1  A    between atoms: C_2  and  C_3 
REMARK    2  A    between atoms: C_7  and  N_8 
REMARK       I    between atoms: N_8  and  C_9 
REMARK    3  A    between atoms: C_9  and  C_10 
REMARK    4  A    between atoms: C_11  and  C_12 
REMARK    5  A    between atoms: C_14  and  O_15 
REMARK    6  A    between atoms: C_17  and  O_18 
ROOT
HETATM    1  N   UNL     1     -41.876  58.045 -51.140  1.00  0.00    -0.322 N 
HETATM    2  C   UNL     1     -41.018  59.075 -50.792  1.00  0.00     0.245 C 
HETATM    3  O   UNL     1     -39.800  59.085 -50.910  1.00  0.00    -0.268 OA
HETATM    4  H   UNL     1     -42.769  58.065 -50.671  1.00  0.00     0.169 HD
ENDROOT
BRANCH   1   5
HETATM    5  C   UNL     1     -41.436  56.775 -51.623  1.00  0.00     0.055 C 
HETATM    6  C   UNL     1     -41.177  55.675 -50.755  1.00  0.00     0.020 A 
HETATM    7  C   UNL     1     -40.909  54.438 -51.366  1.00  0.00     0.069 A 
HETATM    8  C   UNL     1     -41.103  55.733 -49.335  1.00  0.00     0.016 A 
HETATM    9  N   UNL     1     -40.865  54.275 -52.693  1.00  0.00    -0.252 NA
HETATM   10  C   UNL     1     -40.661  53.319 -50.579  1.00  0.00     0.032 A 
HETATM   11  C   UNL     1     -41.041  55.337 -53.510  1.00  0.00     0.043 C 
HETATM   12  C   UNL     1     -41.262  56.632 -53.020  1.00  0.00    -0.010 C 
HETATM   13  C   UNL     1     -41.407  57.799 -53.960  1.00  0.00     0.052 C 
HETATM   14  C   UNL     1     -40.635  53.385 -49.186  1.00  0.00     0.002 A 
HETATM   15  C   UNL     1     -40.845  54.602 -48.561  1.00  0.00     0.001 A 
BRANCH  11  16
HETATM   16  C   UNL     1     -40.973  55.044 -54.995  1.00  0.00     0.055 C 
HETATM   17  C   UNL     1     -40.182  53.792 -55.362  1.00  0.00     0.011 C 
ENDBRANCH  11  16
ENDBRANCH   1   5
BRANCH   2  18
HETATM   18  C   UNL     1     -41.733  60.205 -50.130  1.00  0.00     0.075 C 
HETATM   19  C   UNL     1     -43.040  60.377 -50.388  1.00  0.00     0.017 C 
BRANCH  19  20
HETATM   20  C   UNL     1     -43.893  61.447 -49.850  1.00  0.00    -0.033 A 
HETATM   21  C   UNL     1     -44.984  61.083 -49.042  1.00  0.00     0.051 A 
HETATM   22  C   UNL     1     -45.883  62.042 -48.562  1.00  0.00     0.102 A 
HETATM   23  C   UNL     1     -45.688  63.389 -48.906  1.00  0.00     0.101 A 
HETATM   24  C   UNL     1     -44.596  63.765 -49.692  1.00  0.00     0.040 A 
HETATM   25  C   UNL     1     -43.712  62.795 -50.173  1.00  0.00     0.014 A 
BRANCH  22  26
HETATM   26  O   UNL     1     -46.975  61.769 -47.779  1.00  0.00    -0.353 OA
HETATM   27  C   UNL     1     -46.735  61.343 -46.444  1.00  0.00     0.210 C 
ENDBRANCH  22  26
BRANCH  23  28
HETATM   28  O   UNL     1     -46.570  64.315 -48.404  1.00  0.00    -0.353 OA
HETATM   29  C   UNL     1     -47.511  64.782 -49.366  1.00  0.00     0.210 C 
ENDBRANCH  23  28
ENDBRANCH  19  20
ENDBRANCH   2  18
TORSDOF 6
ENDMDL
