MODEL 1
REMARK VINA RESULT:      -7.6      0.000      0.000
REMARK  6 active torsions:
REMARK  status: ('A' for Active; 'I' for Inactive)
REMARK    1  A    between atoms: N_1  and  C_5 
REMARK    2  A    between atoms: C_5  and  C_6 
REMARK    3  A    between atoms: C_6  and  O_7 
REMARK    4  A    between atoms: C_6  and  C_8 
REMARK    5  A    between atoms: C_6  and  C_15 
REMARK    6  A    between atoms: C_18  and  C_21 
ROOT
HETATM    1  C   UNL     1     -40.394  53.871 -50.064  1.00  0.00     0.135 C 
ENDROOT
BRANCH   1   2
HETATM    2  C   UNL     1     -40.811  53.227 -48.699  1.00  0.00     0.277 C 
BRANCH   2   3
HETATM    3  N   UNL     1     -40.261  54.055 -47.570  1.00  0.00    -0.076 N 
HETATM    4  H   UNL     1     -39.751  53.410 -46.942  1.00  0.00     0.274 HD
HETATM    5  H   UNL     1     -39.566  54.736 -47.908  1.00  0.00     0.274 HD
HETATM    6  H   UNL     1     -40.982  54.546 -47.032  1.00  0.00     0.274 HD
ENDBRANCH   2   3
ENDBRANCH   1   2
BRANCH   1   7
HETATM    7  O   UNL     1     -39.124  54.495 -49.743  1.00  0.00    -0.378 OA
HETATM    8  H   UNL     1     -38.579  54.510 -50.555  1.00  0.00     0.211 HD
ENDBRANCH   1   7
BRANCH   1   9
HETATM    9  C   UNL     1     -40.179  52.894 -51.222  1.00  0.00    -0.018 A 
HETATM   10  C   UNL     1     -40.344  53.252 -52.571  1.00  0.00     0.012 A 
HETATM   11  C   UNL     1     -40.147  52.314 -53.592  1.00  0.00     0.024 A 
HETATM   12  C   UNL     1     -39.782  51.007 -53.282  1.00  0.00     0.034 A 
HETATM   13 CL   UNL     1     -39.546  49.862 -54.541  1.00  0.00    -0.084 Cl
HETATM   14  C   UNL     1     -39.606  50.628 -51.957  1.00  0.00     0.024 A 
HETATM   15  C   UNL     1     -39.803  51.563 -50.937  1.00  0.00     0.012 A 
ENDBRANCH   1   9
BRANCH   1  16
HETATM   16  C   UNL     1     -41.421  54.964 -50.402  1.00  0.00    -0.018 A 
HETATM   17  C   UNL     1     -42.793  54.684 -50.501  1.00  0.00     0.011 A 
HETATM   18  C   UNL     1     -43.709  55.682 -50.856  1.00  0.00     0.013 A 
HETATM   19  C   UNL     1     -43.281  56.987 -51.120  1.00  0.00    -0.023 A 
HETATM   20  C   UNL     1     -41.918  57.280 -50.999  1.00  0.00     0.013 A 
HETATM   21  C   UNL     1     -41.001  56.285 -50.640  1.00  0.00     0.011 A 
BRANCH  19  22
HETATM   22  C   UNL     1     -44.243  58.008 -51.494  1.00  0.00     0.010 A 
HETATM   23  C   UNL     1     -45.245  58.658 -50.735  1.00  0.00     0.152 A 
HETATM   24  N   UNL     1     -45.956  59.528 -51.455  1.00  0.00    -0.187 NA
HETATM   25  N   UNL     1     -45.409  59.453 -52.676  1.00  0.00    -0.289 N 
HETATM   26  H   UNL     1     -45.789  60.042 -53.410  1.00  0.00     0.188 HD
HETATM   27  C   UNL     1     -44.384  58.551 -52.756  1.00  0.00     0.123 A 
ENDBRANCH  19  22
ENDBRANCH   1  16
TORSDOF 6
ENDMDL
MODEL 2
REMARK VINA RESULT:      -7.4      4.201      7.918
REMARK  6 active torsions:
REMARK  status: ('A' for Active; 'I' for Inactive)
REMARK    1  A    between atoms: N_1  and  C_5 
REMARK    2  A    between atoms: C_5  and  C_6 
REMARK    3  A    between atoms: C_6  and  O_7 
REMARK    4  A    between atoms: C_6  and  C_8 
REMARK    5  A    between atoms: C_6  and  C_15 
REMARK    6  A    between atoms: C_18  and  C_21 
ROOT
HETATM    1  C   UNL     1     -42.100  56.312 -54.692  1.00  0.00     0.135 C 
ENDROOT
BRANCH   1   2
HETATM    2  C   UNL     1     -43.558  56.033 -55.194  1.00  0.00     0.277 C 
BRANCH   2   3
HETATM    3  N   UNL     1     -43.599  56.157 -56.692  1.00  0.00    -0.076 N 
HETATM    4  H   UNL     1     -43.398  55.219 -57.080  1.00  0.00     0.274 HD
HETATM    5  H   UNL     1     -44.542  56.408 -57.023  1.00  0.00     0.274 HD
HETATM    6  H   UNL     1     -42.919  56.826 -57.067  1.00  0.00     0.274 HD
ENDBRANCH   2   3
ENDBRANCH   1   2
BRANCH   1   7
HETATM    7  O   UNL     1     -41.431  56.754 -55.900  1.00  0.00    -0.378 OA
HETATM    8  H   UNL     1     -41.930  57.512 -56.264  1.00  0.00     0.211 HD
ENDBRANCH   1   7
BRANCH   1   9
HETATM    9  C   UNL     1     -41.961  57.403 -53.628  1.00  0.00    -0.018 A 
HETATM   10  C   UNL     1     -40.741  58.031 -53.326  1.00  0.00     0.012 A 
HETATM   11  C   UNL     1     -40.667  59.016 -52.333  1.00  0.00     0.024 A 
HETATM   12  C   UNL     1     -41.808  59.390 -51.630  1.00  0.00     0.034 A 
HETATM   13 CL   UNL     1     -41.707  60.597 -50.412  1.00  0.00    -0.084 Cl
HETATM   14  C   UNL     1     -43.029  58.790 -51.914  1.00  0.00     0.024 A 
HETATM   15  C   UNL     1     -43.105  57.806 -52.904  1.00  0.00     0.012 A 
ENDBRANCH   1   9
BRANCH   1  16
HETATM   16  C   UNL     1     -41.495  54.972 -54.240  1.00  0.00    -0.018 A 
HETATM   17  C   UNL     1     -40.766  54.156 -55.120  1.00  0.00     0.011 A 
HETATM   18  C   UNL     1     -40.263  52.918 -54.704  1.00  0.00     0.013 A 
HETATM   19  C   UNL     1     -40.471  52.460 -53.398  1.00  0.00    -0.023 A 
HETATM   20  C   UNL     1     -41.175  53.279 -52.509  1.00  0.00     0.013 A 
HETATM   21  C   UNL     1     -41.676  54.520 -52.921  1.00  0.00     0.011 A 
BRANCH  19  22
HETATM   22  C   UNL     1     -39.949  51.170 -52.986  1.00  0.00     0.010 A 
HETATM   23  C   UNL     1     -39.709  49.990 -53.728  1.00  0.00     0.152 A 
HETATM   24  N   UNL     1     -39.247  48.990 -52.975  1.00  0.00    -0.187 NA
HETATM   25  N   UNL     1     -39.176  49.524 -51.747  1.00  0.00    -0.289 N 
HETATM   26  H   UNL     1     -38.839  48.940 -50.988  1.00  0.00     0.188 HD
HETATM   27  C   UNL     1     -39.593  50.825 -51.698  1.00  0.00     0.123 A 
ENDBRANCH  19  22
ENDBRANCH   1  16
TORSDOF 6
ENDMDL
MODEL 3
REMARK VINA RESULT:      -7.2      4.648      7.725
REMARK  6 active torsions:
REMARK  status: ('A' for Active; 'I' for Inactive)
REMARK    1  A    between atoms: N_1  and  C_5 
REMARK    2  A    between atoms: C_5  and  C_6 
REMARK    3  A    between atoms: C_6  and  O_7 
REMARK    4  A    between atoms: C_6  and  C_8 
REMARK    5  A    between atoms: C_6  and  C_15 
REMARK    6  A    between atoms: C_18  and  C_21 
ROOT
HETATM    1  C   UNL     1     -42.034  56.530 -54.476  1.00  0.00     0.135 C 
ENDROOT
BRANCH   1   2
HETATM    2  C   UNL     1     -41.011  57.554 -53.877  1.00  0.00     0.277 C 
BRANCH   2   3
HETATM    3  N   UNL     1     -41.629  58.234 -52.687  1.00  0.00    -0.076 N 
HETATM    4  H   UNL     1     -41.087  59.100 -52.517  1.00  0.00     0.274 HD
HETATM    5  H   UNL     1     -42.594  58.535 -52.884  1.00  0.00     0.274 HD
HETATM    6  H   UNL     1     -41.620  57.663 -51.836  1.00  0.00     0.274 HD
ENDBRANCH   2   3
ENDBRANCH   1   2
BRANCH   1   7
HETATM    7  O   UNL     1     -43.236  56.801 -53.711  1.00  0.00    -0.378 OA
HETATM    8  H   UNL     1     -43.781  55.990 -53.704  1.00  0.00     0.211 HD
ENDBRANCH   1   7
BRANCH   1   9
HETATM    9  C   UNL     1     -42.352  56.702 -55.963  1.00  0.00    -0.018 A 
HETATM   10  C   UNL     1     -42.890  55.676 -56.758  1.00  0.00     0.012 A 
HETATM   11  C   UNL     1     -43.151  55.883 -58.119  1.00  0.00     0.024 A 
HETATM   12  C   UNL     1     -42.881  57.117 -58.704  1.00  0.00     0.034 A 
HETATM   13 CL   UNL     1     -43.202  57.361 -60.374  1.00  0.00    -0.084 Cl
HETATM   14  C   UNL     1     -42.356  58.151 -57.939  1.00  0.00     0.024 A 
HETATM   15  C   UNL     1     -42.094  57.946 -56.581  1.00  0.00     0.012 A 
ENDBRANCH   1   9
BRANCH   1  16
HETATM   16  C   UNL     1     -41.532  55.115 -54.144  1.00  0.00    -0.018 A 
HETATM   17  C   UNL     1     -41.977  54.420 -53.008  1.00  0.00     0.011 A 
HETATM   18  C   UNL     1     -41.473  53.152 -52.696  1.00  0.00     0.013 A 
HETATM   19  C   UNL     1     -40.513  52.541 -53.510  1.00  0.00    -0.023 A 
HETATM   20  C   UNL     1     -40.083  53.217 -54.657  1.00  0.00     0.013 A 
HETATM   21  C   UNL     1     -40.588  54.483 -54.974  1.00  0.00     0.011 A 
BRANCH  19  22
HETATM   22  C   UNL     1     -39.995  51.229 -53.167  1.00  0.00     0.010 A 
HETATM   23  C   UNL     1     -39.786  50.080 -53.967  1.00  0.00     0.152 A 
HETATM   24  N   UNL     1     -39.316  49.043 -53.270  1.00  0.00    -0.187 NA
HETATM   25  N   UNL     1     -39.208  49.523 -52.022  1.00  0.00    -0.289 N 
HETATM   26  H   UNL     1     -38.859  48.903 -51.298  1.00  0.00     0.188 HD
HETATM   27  C   UNL     1     -39.610  50.824 -51.905  1.00  0.00     0.123 A 
ENDBRANCH  19  22
ENDBRANCH   1  16
TORSDOF 6
ENDMDL
MODEL 4
REMARK VINA RESULT:      -7.1      3.725      7.195
REMARK  6 active torsions:
REMARK  status: ('A' for Active; 'I' for Inactive)
REMARK    1  A    between atoms: N_1  and  C_5 
REMARK    2  A    between atoms: C_5  and  C_6 
REMARK    3  A    between atoms: C_6  and  O_7 
REMARK    4  A    between atoms: C_6  and  C_8 
REMARK    5  A    between atoms: C_6  and  C_15 
REMARK    6  A    between atoms: C_18  and  C_21 
ROOT
HETATM    1  C   UNL     1     -41.810  56.683 -51.565  1.00  0.00     0.135 C 
ENDROOT
BRANCH   1   2
HETATM    2  C   UNL     1     -40.677  57.505 -50.862  1.00  0.00     0.277 C 
BRANCH   2   3
HETATM    3  N   UNL     1     -41.294  58.471 -49.889  1.00  0.00    -0.076 N 
HETATM    4  H   UNL     1     -41.859  57.913 -49.225  1.00  0.00     0.274 HD
HETATM    5  H   UNL     1     -40.576  58.948 -49.325  1.00  0.00     0.274 HD
HETATM    6  H   UNL     1     -41.896  59.172 -50.333  1.00  0.00     0.274 HD
ENDBRANCH   2   3
ENDBRANCH   1   2
BRANCH   1   7
HETATM    7  O   UNL     1     -42.840  56.631 -50.544  1.00  0.00    -0.378 OA
HETATM    8  H   UNL     1     -43.013  57.544 -50.241  1.00  0.00     0.211 HD
ENDBRANCH   1   7
BRANCH   1   9
HETATM    9  C   UNL     1     -42.404  57.314 -52.826  1.00  0.00    -0.018 A 
HETATM   10  C   UNL     1     -41.667  58.140 -53.693  1.00  0.00     0.012 A 
HETATM   11  C   UNL     1     -42.264  58.703 -54.828  1.00  0.00     0.024 A 
HETATM   12  C   UNL     1     -43.602  58.449 -55.115  1.00  0.00     0.034 A 
HETATM   13 CL   UNL     1     -44.326  59.147 -56.508  1.00  0.00    -0.084 Cl
HETATM   14  C   UNL     1     -44.351  57.631 -54.279  1.00  0.00     0.024 A 
HETATM   15  C   UNL     1     -43.758  57.069 -53.145  1.00  0.00     0.012 A 
ENDBRANCH   1   9
BRANCH   1  16
HETATM   16  C   UNL     1     -41.275  55.264 -51.815  1.00  0.00    -0.018 A 
HETATM   17  C   UNL     1     -41.059  54.773 -53.112  1.00  0.00     0.011 A 
HETATM   18  C   UNL     1     -40.616  53.461 -53.323  1.00  0.00     0.013 A 
HETATM   19  C   UNL     1     -40.375  52.604 -52.244  1.00  0.00    -0.023 A 
HETATM   20  C   UNL     1     -40.564  53.094 -50.947  1.00  0.00     0.013 A 
HETATM   21  C   UNL     1     -41.003  54.406 -50.734  1.00  0.00     0.011 A 
BRANCH  19  22
HETATM   22  C   UNL     1     -39.924  51.244 -52.479  1.00  0.00     0.010 A 
HETATM   23  C   UNL     1     -39.748  50.524 -53.685  1.00  0.00     0.152 A 
HETATM   24  N   UNL     1     -39.341  49.270 -53.483  1.00  0.00    -0.187 NA
HETATM   25  N   UNL     1     -39.241  49.179 -52.149  1.00  0.00    -0.289 N 
HETATM   26  H   UNL     1     -38.937  48.296 -51.749  1.00  0.00     0.188 HD
HETATM   27  C   UNL     1     -39.587  50.331 -51.501  1.00  0.00     0.123 A 
ENDBRANCH  19  22
ENDBRANCH   1  16
TORSDOF 6
ENDMDL
MODEL 5
REMARK VINA RESULT:      -7.0      4.483      5.214
REMARK  6 active torsions:
REMARK  status: ('A' for Active; 'I' for Inactive)
REMARK    1  A    between atoms: N_1  and  C_5 
REMARK    2  A    between atoms: C_5  and  C_6 
REMARK    3  A    between atoms: C_6  and  O_7 
REMARK    4  A    between atoms: C_6  and  C_8 
REMARK    5  A    between atoms: C_6  and  C_15 
REMARK    6  A    between atoms: C_18  and  C_21 
ROOT
HETATM    1  C   UNL     1     -41.927  55.290 -52.533  1.00  0.00     0.135 C 
ENDROOT
BRANCH   1   2
HETATM    2  C   UNL     1     -43.227  55.561 -51.702  1.00  0.00     0.277 C 
BRANCH   2   3
HETATM    3  N   UNL     1     -43.042  56.810 -50.885  1.00  0.00    -0.076 N 
HETATM    4  H   UNL     1     -42.113  57.197 -51.128  1.00  0.00     0.274 HD
HETATM    5  H   UNL     1     -43.730  57.532 -51.142  1.00  0.00     0.274 HD
HETATM    6  H   UNL     1     -43.082  56.649 -49.873  1.00  0.00     0.274 HD
ENDBRANCH   2   3
ENDBRANCH   1   2
BRANCH   1   7
HETATM    7  O   UNL     1     -41.073  56.400 -52.153  1.00  0.00    -0.378 OA
HETATM    8  H   UNL     1     -41.468  57.222 -52.506  1.00  0.00     0.211 HD
ENDBRANCH   1   7
BRANCH   1   9
HETATM    9  C   UNL     1     -41.197  53.983 -52.218  1.00  0.00    -0.018 A 
HETATM   10  C   UNL     1     -40.551  53.207 -53.196  1.00  0.00     0.012 A 
HETATM   11  C   UNL     1     -39.908  52.011 -52.855  1.00  0.00     0.024 A 
HETATM   12  C   UNL     1     -39.899  51.571 -51.535  1.00  0.00     0.034 A 
HETATM   13 CL   UNL     1     -39.111  50.101 -51.127  1.00  0.00    -0.084 Cl
HETATM   14  C   UNL     1     -40.525  52.322 -50.547  1.00  0.00     0.024 A 
HETATM   15  C   UNL     1     -41.167  53.516 -50.885  1.00  0.00     0.012 A 
ENDBRANCH   1   9
BRANCH   1  16
HETATM   16  C   UNL     1     -42.287  55.417 -54.022  1.00  0.00    -0.018 A 
HETATM   17  C   UNL     1     -42.965  54.397 -54.709  1.00  0.00     0.011 A 
HETATM   18  C   UNL     1     -43.242  54.510 -56.077  1.00  0.00     0.013 A 
HETATM   19  C   UNL     1     -42.852  55.644 -56.796  1.00  0.00    -0.023 A 
HETATM   20  C   UNL     1     -42.198  56.675 -56.114  1.00  0.00     0.013 A 
HETATM   21  C   UNL     1     -41.923  56.567 -54.746  1.00  0.00     0.011 A 
BRANCH  19  22
HETATM   22  C   UNL     1     -43.141  55.742 -58.216  1.00  0.00     0.010 A 
HETATM   23  C   UNL     1     -42.716  56.684 -59.183  1.00  0.00     0.152 A 
HETATM   24  N   UNL     1     -43.227  56.449 -60.393  1.00  0.00    -0.187 NA
HETATM   25  N   UNL     1     -43.972  55.349 -60.215  1.00  0.00    -0.289 N 
HETATM   26  H   UNL     1     -44.467  54.969 -61.016  1.00  0.00     0.188 HD
HETATM   27  C   UNL     1     -43.962  54.890 -58.927  1.00  0.00     0.123 A 
ENDBRANCH  19  22
ENDBRANCH   1  16
TORSDOF 6
ENDMDL
MODEL 6
REMARK VINA RESULT:      -6.9     14.970     16.685
REMARK  6 active torsions:
REMARK  status: ('A' for Active; 'I' for Inactive)
REMARK    1  A    between atoms: N_1  and  C_5 
REMARK    2  A    between atoms: C_5  and  C_6 
REMARK    3  A    between atoms: C_6  and  O_7 
REMARK    4  A    between atoms: C_6  and  C_8 
REMARK    5  A    between atoms: C_6  and  C_15 
REMARK    6  A    between atoms: C_18  and  C_21 
ROOT
HETATM    1  C   UNL     1     -36.649  41.288 -53.226  1.00  0.00     0.135 C 
ENDROOT
BRANCH   1   2
HETATM    2  C   UNL     1     -37.900  40.588 -52.596  1.00  0.00     0.277 C 
BRANCH   2   3
HETATM    3  N   UNL     1     -39.010  41.592 -52.450  1.00  0.00    -0.076 N 
HETATM    4  H   UNL     1     -39.757  41.140 -51.894  1.00  0.00     0.274 HD
HETATM    5  H   UNL     1     -38.706  42.413 -51.908  1.00  0.00     0.274 HD
HETATM    6  H   UNL     1     -39.402  41.903 -53.345  1.00  0.00     0.274 HD
ENDBRANCH   2   3
ENDBRANCH   1   2
BRANCH   1   7
HETATM    7  O   UNL     1     -36.924  42.693 -52.994  1.00  0.00    -0.378 OA
HETATM    8  H   UNL     1     -36.089  43.189 -53.107  1.00  0.00     0.211 HD
ENDBRANCH   1   7
BRANCH   1   9
HETATM    9  C   UNL     1     -35.302  40.943 -52.587  1.00  0.00    -0.018 A 
HETATM   10  C   UNL     1     -34.209  40.444 -53.318  1.00  0.00     0.012 A 
HETATM   11  C   UNL     1     -33.002  40.132 -52.680  1.00  0.00     0.024 A 
HETATM   12  C   UNL     1     -32.867  40.314 -51.307  1.00  0.00     0.034 A 
HETATM   13 CL   UNL     1     -31.383  39.925 -50.534  1.00  0.00    -0.084 Cl
HETATM   14  C   UNL     1     -33.929  40.811 -50.562  1.00  0.00     0.024 A 
HETATM   15  C   UNL     1     -35.135  41.123 -51.196  1.00  0.00     0.012 A 
ENDBRANCH   1   9
BRANCH   1  16
HETATM   16  C   UNL     1     -36.668  41.012 -54.738  1.00  0.00    -0.018 A 
HETATM   17  C   UNL     1     -36.495  42.039 -55.680  1.00  0.00     0.011 A 
HETATM   18  C   UNL     1     -36.564  41.776 -57.054  1.00  0.00     0.013 A 
HETATM   19  C   UNL     1     -36.805  40.482 -57.525  1.00  0.00    -0.023 A 
HETATM   20  C   UNL     1     -36.953  39.449 -56.593  1.00  0.00     0.013 A 
HETATM   21  C   UNL     1     -36.882  39.707 -55.220  1.00  0.00     0.011 A 
BRANCH  19  22
HETATM   22  C   UNL     1     -36.881  40.228 -58.953  1.00  0.00     0.010 A 
HETATM   23  C   UNL     1     -36.429  39.129 -59.722  1.00  0.00     0.152 A 
HETATM   24  N   UNL     1     -36.660  39.282 -61.027  1.00  0.00    -0.187 NA
HETATM   25  N   UNL     1     -37.271  40.473 -61.104  1.00  0.00    -0.289 N 
HETATM   26  H   UNL     1     -37.554  40.809 -62.020  1.00  0.00     0.188 HD
HETATM   27  C   UNL     1     -37.420  41.085 -59.891  1.00  0.00     0.123 A 
ENDBRANCH  19  22
ENDBRANCH   1  16
TORSDOF 6
ENDMDL
MODEL 7
REMARK VINA RESULT:      -6.9      5.108      8.135
REMARK  6 active torsions:
REMARK  status: ('A' for Active; 'I' for Inactive)
REMARK    1  A    between atoms: N_1  and  C_5 
REMARK    2  A    between atoms: C_5  and  C_6 
REMARK    3  A    between atoms: C_6  and  O_7 
REMARK    4  A    between atoms: C_6  and  C_8 
REMARK    5  A    between atoms: C_6  and  C_15 
REMARK    6  A    between atoms: C_18  and  C_21 
ROOT
HETATM    1  C   UNL     1     -42.981  56.695 -55.322  1.00  0.00     0.135 C 
ENDROOT
BRANCH   1   2
HETATM    2  C   UNL     1     -42.606  57.716 -54.194  1.00  0.00     0.277 C 
BRANCH   2   3
HETATM    3  N   UNL     1     -43.864  58.319 -53.633  1.00  0.00    -0.076 N 
HETATM    4  H   UNL     1     -43.594  58.855 -52.790  1.00  0.00     0.274 HD
HETATM    5  H   UNL     1     -44.278  59.000 -54.285  1.00  0.00     0.274 HD
HETATM    6  H   UNL     1     -44.573  57.624 -53.374  1.00  0.00     0.274 HD
ENDBRANCH   2   3
ENDBRANCH   1   2
BRANCH   1   7
HETATM    7  O   UNL     1     -44.412  56.541 -55.144  1.00  0.00    -0.378 OA
HETATM    8  H   UNL     1     -44.701  57.169 -54.453  1.00  0.00     0.211 HD
ENDBRANCH   1   7
BRANCH   1   9
HETATM    9  C   UNL     1     -42.713  57.160 -56.754  1.00  0.00    -0.018 A 
HETATM   10  C   UNL     1     -42.924  56.345 -57.880  1.00  0.00     0.012 A 
HETATM   11  C   UNL     1     -42.651  56.816 -59.170  1.00  0.00     0.024 A 
HETATM   12  C   UNL     1     -42.164  58.107 -59.356  1.00  0.00     0.034 A 
HETATM   13 CL   UNL     1     -41.828  58.676 -60.942  1.00  0.00    -0.084 Cl
HETATM   14  C   UNL     1     -41.952  58.936 -58.261  1.00  0.00     0.024 A 
HETATM   15  C   UNL     1     -42.224  58.467 -56.973  1.00  0.00     0.012 A 
ENDBRANCH   1   9
BRANCH   1  16
HETATM   16  C   UNL     1     -42.286  55.362 -54.998  1.00  0.00    -0.018 A 
HETATM   17  C   UNL     1     -43.010  54.171 -54.833  1.00  0.00     0.011 A 
HETATM   18  C   UNL     1     -42.365  52.976 -54.491  1.00  0.00     0.013 A 
HETATM   19  C   UNL     1     -40.979  52.936 -54.308  1.00  0.00    -0.023 A 
HETATM   20  C   UNL     1     -40.247  54.114 -54.495  1.00  0.00     0.013 A 
HETATM   21  C   UNL     1     -40.889  55.309 -54.840  1.00  0.00     0.011 A 
BRANCH  19  22
HETATM   22  C   UNL     1     -40.327  51.691 -53.946  1.00  0.00     0.010 A 
HETATM   23  C   UNL     1     -40.228  50.463 -54.642  1.00  0.00     0.152 A 
HETATM   24  N   UNL     1     -39.563  49.531 -53.956  1.00  0.00    -0.187 NA
HETATM   25  N   UNL     1     -39.219  50.158 -52.821  1.00  0.00    -0.289 N 
HETATM   26  H   UNL     1     -38.689  49.639 -52.127  1.00  0.00     0.188 HD
HETATM   27  C   UNL     1     -39.660  51.451 -52.762  1.00  0.00     0.123 A 
ENDBRANCH  19  22
ENDBRANCH   1  16
TORSDOF 6
ENDMDL
MODEL 8
REMARK VINA RESULT:      -6.5      2.719      3.460
REMARK  6 active torsions:
REMARK  status: ('A' for Active; 'I' for Inactive)
REMARK    1  A    between atoms: N_1  and  C_5 
REMARK    2  A    between atoms: C_5  and  C_6 
REMARK    3  A    between atoms: C_6  and  O_7 
REMARK    4  A    between atoms: C_6  and  C_8 
REMARK    5  A    between atoms: C_6  and  C_15 
REMARK    6  A    between atoms: C_18  and  C_21 
ROOT
HETATM    1  C   UNL     1     -41.884  55.260 -51.440  1.00  0.00     0.135 C 
ENDROOT
BRANCH   1   2
HETATM    2  C   UNL     1     -43.256  55.005 -50.727  1.00  0.00     0.277 C 
BRANCH   2   3
HETATM    3  N   UNL     1     -43.940  53.833 -51.374  1.00  0.00    -0.076 N 
HETATM    4  H   UNL     1     -43.197  53.208 -51.733  1.00  0.00     0.274 HD
HETATM    5  H   UNL     1     -44.471  53.280 -50.685  1.00  0.00     0.274 HD
HETATM    6  H   UNL     1     -44.560  54.094 -52.148  1.00  0.00     0.274 HD
ENDBRANCH   2   3
ENDBRANCH   1   2
BRANCH   1   7
HETATM    7  O   UNL     1     -41.006  55.575 -50.329  1.00  0.00    -0.378 OA
HETATM    8  H   UNL     1     -40.097  55.670 -50.677  1.00  0.00     0.211 HD
ENDBRANCH   1   7
BRANCH   1   9
HETATM    9  C   UNL     1     -41.299  54.068 -52.201  1.00  0.00    -0.018 A 
HETATM   10  C   UNL     1     -41.580  53.807 -53.553  1.00  0.00     0.012 A 
HETATM   11  C   UNL     1     -41.028  52.694 -54.199  1.00  0.00     0.024 A 
HETATM   12  C   UNL     1     -40.188  51.827 -53.507  1.00  0.00     0.034 A 
HETATM   13 CL   UNL     1     -39.517  50.462 -54.307  1.00  0.00    -0.084 Cl
HETATM   14  C   UNL     1     -39.888  52.066 -52.171  1.00  0.00     0.024 A 
HETATM   15  C   UNL     1     -40.438  53.176 -51.525  1.00  0.00     0.012 A 
ENDBRANCH   1   9
BRANCH   1  16
HETATM   16  C   UNL     1     -42.040  56.504 -52.329  1.00  0.00    -0.018 A 
HETATM   17  C   UNL     1     -43.300  56.961 -52.747  1.00  0.00     0.011 A 
HETATM   18  C   UNL     1     -43.420  58.068 -53.596  1.00  0.00     0.013 A 
HETATM   19  C   UNL     1     -42.287  58.752 -54.048  1.00  0.00    -0.023 A 
HETATM   20  C   UNL     1     -41.029  58.318 -53.615  1.00  0.00     0.013 A 
HETATM   21  C   UNL     1     -40.906  57.214 -52.764  1.00  0.00     0.011 A 
BRANCH  19  22
HETATM   22  C   UNL     1     -42.429  59.893 -54.934  1.00  0.00     0.010 A 
HETATM   23  C   UNL     1     -42.134  60.037 -56.311  1.00  0.00     0.152 A 
HETATM   24  N   UNL     1     -42.377  61.268 -56.765  1.00  0.00    -0.187 NA
HETATM   25  N   UNL     1     -42.840  61.919 -55.688  1.00  0.00    -0.289 N 
HETATM   26  H   UNL     1     -43.102  62.894 -55.792  1.00  0.00     0.188 HD
HETATM   27  C   UNL     1     -42.882  61.143 -54.564  1.00  0.00     0.123 A 
ENDBRANCH  19  22
ENDBRANCH   1  16
TORSDOF 6
ENDMDL
MODEL 9
REMARK VINA RESULT:      -6.5      3.310      4.529
REMARK  6 active torsions:
REMARK  status: ('A' for Active; 'I' for Inactive)
REMARK    1  A    between atoms: N_1  and  C_5 
REMARK    2  A    between atoms: C_5  and  C_6 
REMARK    3  A    between atoms: C_6  and  O_7 
REMARK    4  A    between atoms: C_6  and  C_8 
REMARK    5  A    between atoms: C_6  and  C_15 
REMARK    6  A    between atoms: C_18  and  C_21 
ROOT
HETATM    1  C   UNL     1     -42.711  55.183 -54.674  1.00  0.00     0.135 C 
ENDROOT
BRANCH   1   2
HETATM    2  C   UNL     1     -42.331  55.383 -56.180  1.00  0.00     0.277 C 
BRANCH   2   3
HETATM    3  N   UNL     1     -43.583  55.611 -56.982  1.00  0.00    -0.076 N 
HETATM    4  H   UNL     1     -43.379  55.313 -57.952  1.00  0.00     0.274 HD
HETATM    5  H   UNL     1     -44.354  55.012 -56.654  1.00  0.00     0.274 HD
HETATM    6  H   UNL     1     -43.893  56.588 -56.991  1.00  0.00     0.274 HD
ENDBRANCH   2   3
ENDBRANCH   1   2
BRANCH   1   7
HETATM    7  O   UNL     1     -44.053  54.638 -54.758  1.00  0.00    -0.378 OA
HETATM    8  H   UNL     1     -44.611  55.280 -55.241  1.00  0.00     0.211 HD
ENDBRANCH   1   7
BRANCH   1   9
HETATM    9  C   UNL     1     -41.835  54.202 -53.893  1.00  0.00    -0.018 A 
HETATM   10  C   UNL     1     -41.801  54.150 -52.488  1.00  0.00     0.012 A 
HETATM   11  C   UNL     1     -40.971  53.240 -51.822  1.00  0.00     0.024 A 
HETATM   12  C   UNL     1     -40.163  52.369 -52.547  1.00  0.00     0.034 A 
HETATM   13 CL   UNL     1     -39.144  51.259 -51.721  1.00  0.00    -0.084 Cl
HETATM   14  C   UNL     1     -40.181  52.394 -53.936  1.00  0.00     0.024 A 
HETATM   15  C   UNL     1     -41.009  53.302 -54.602  1.00  0.00     0.012 A 
ENDBRANCH   1   9
BRANCH   1  16
HETATM   16  C   UNL     1     -42.769  56.570 -54.015  1.00  0.00    -0.018 A 
HETATM   17  C   UNL     1     -41.667  57.439 -54.022  1.00  0.00     0.011 A 
HETATM   18  C   UNL     1     -41.723  58.680 -53.376  1.00  0.00     0.013 A 
HETATM   19  C   UNL     1     -42.881  59.089 -52.707  1.00  0.00    -0.023 A 
HETATM   20  C   UNL     1     -43.992  58.239 -52.717  1.00  0.00     0.013 A 
HETATM   21  C   UNL     1     -43.941  57.000 -53.365  1.00  0.00     0.011 A 
BRANCH  19  22
HETATM   22  C   UNL     1     -42.920  60.375 -52.035  1.00  0.00     0.010 A 
HETATM   23  C   UNL     1     -42.600  60.733 -50.704  1.00  0.00     0.152 A 
HETATM   24  N   UNL     1     -42.796  62.029 -50.455  1.00  0.00    -0.187 NA
HETATM   25  N   UNL     1     -43.231  62.515 -51.627  1.00  0.00    -0.289 N 
HETATM   26  H   UNL     1     -43.447  63.506 -51.686  1.00  0.00     0.188 HD
HETATM   27  C   UNL     1     -43.331  61.564 -52.604  1.00  0.00     0.123 A 
ENDBRANCH  19  22
ENDBRANCH   1  16
TORSDOF 6
ENDMDL
MODEL 10
REMARK VINA RESULT:      -6.4      3.129      3.886
REMARK  6 active torsions:
REMARK  status: ('A' for Active; 'I' for Inactive)
REMARK    1  A    between atoms: N_1  and  C_5 
REMARK    2  A    between atoms: C_5  and  C_6 
REMARK    3  A    between atoms: C_6  and  O_7 
REMARK    4  A    between atoms: C_6  and  C_8 
REMARK    5  A    between atoms: C_6  and  C_15 
REMARK    6  A    between atoms: C_18  and  C_21 
ROOT
HETATM    1  C   UNL     1     -41.802  54.897 -52.111  1.00  0.00     0.135 C 
ENDROOT
BRANCH   1   2
HETATM    2  C   UNL     1     -42.988  54.693 -51.108  1.00  0.00     0.277 C 
BRANCH   2   3
HETATM    3  N   UNL     1     -43.061  55.875 -50.180  1.00  0.00    -0.076 N 
HETATM    4  H   UNL     1     -43.186  56.716 -50.771  1.00  0.00     0.274 HD
HETATM    5  H   UNL     1     -43.891  55.825 -49.573  1.00  0.00     0.274 HD
HETATM    6  H   UNL     1     -42.224  55.995 -49.601  1.00  0.00     0.274 HD
ENDBRANCH   2   3
ENDBRANCH   1   2
BRANCH   1   7
HETATM    7  O   UNL     1     -40.846  55.648 -51.320  1.00  0.00    -0.378 OA
HETATM    8  H   UNL     1     -40.746  55.200 -50.457  1.00  0.00     0.211 HD
ENDBRANCH   1   7
BRANCH   1   9
HETATM    9  C   UNL     1     -41.126  53.618 -52.609  1.00  0.00    -0.018 A 
HETATM   10  C   UNL     1     -40.173  52.908 -51.857  1.00  0.00     0.012 A 
HETATM   11  C   UNL     1     -39.575  51.749 -52.365  1.00  0.00     0.024 A 
HETATM   12  C   UNL     1     -39.919  51.280 -53.630  1.00  0.00     0.034 A 
HETATM   13 CL   UNL     1     -39.178  49.858 -54.247  1.00  0.00    -0.084 Cl
HETATM   14  C   UNL     1     -40.863  51.957 -54.392  1.00  0.00     0.024 A 
HETATM   15  C   UNL     1     -41.461  53.115 -53.886  1.00  0.00     0.012 A 
ENDBRANCH   1   9
BRANCH   1  16
HETATM   16  C   UNL     1     -42.308  55.779 -53.264  1.00  0.00    -0.018 A 
HETATM   17  C   UNL     1     -43.639  55.726 -53.706  1.00  0.00     0.011 A 
HETATM   18  C   UNL     1     -44.071  56.503 -54.789  1.00  0.00     0.013 A 
HETATM   19  C   UNL     1     -43.186  57.355 -55.458  1.00  0.00    -0.023 A 
HETATM   20  C   UNL     1     -41.864  57.432 -55.007  1.00  0.00     0.013 A 
HETATM   21  C   UNL     1     -41.431  56.660 -53.923  1.00  0.00     0.011 A 
BRANCH  19  22
HETATM   22  C   UNL     1     -43.648  58.147 -56.583  1.00  0.00     0.010 A 
HETATM   23  C   UNL     1     -44.921  58.229 -57.197  1.00  0.00     0.152 A 
HETATM   24  N   UNL     1     -44.940  59.060 -58.240  1.00  0.00    -0.187 NA
HETATM   25  N   UNL     1     -43.684  59.528 -58.297  1.00  0.00    -0.289 N 
HETATM   26  H   UNL     1     -43.453  60.196 -59.025  1.00  0.00     0.188 HD
HETATM   27  C   UNL     1     -42.868  59.005 -57.332  1.00  0.00     0.123 A 
ENDBRANCH  19  22
ENDBRANCH   1  16
TORSDOF 6
ENDMDL
