MODEL 1
REMARK VINA RESULT:      -8.6      0.000      0.000
REMARK  7 active torsions:
REMARK  status: ('A' for Active; 'I' for Inactive)
REMARK    1  A    between atoms: C_7  and  S_8 
REMARK    2  A    between atoms: S_8  and  C_9 
REMARK    3  A    between atoms: C_9  and  C_10 
REMARK    4  A    between atoms: C_18  and  C_19 
REMARK    5  A    between atoms: C_26  and  C_27 
REMARK    6  A    between atoms: C_27  and  O_28 
REMARK    7  A    between atoms: O_28  and  C_29 
ROOT
HETATM    1  C   UNL     1     -40.833  59.029 -50.692  1.00  0.00     0.070 C 
HETATM    2  C   UNL     1     -41.318  58.414 -51.982  1.00  0.00     0.037 A 
HETATM    3  N   UNL     1     -41.171  59.207 -53.114  1.00  0.00    -0.192 N 
HETATM    4  C   UNL     1     -41.679  58.881 -54.317  1.00  0.00     0.726 A 
HETATM    5  N   UNL     1     -42.331  57.690 -54.471  1.00  0.00    -0.082 N 
HETATM    6  N   UNL     1     -42.844  57.569 -55.714  1.00  0.00    -0.128 NA
HETATM    7  C   UNL     1     -42.378  58.688 -56.285  1.00  0.00     0.226 A 
HETATM    8  N   UNL     1     -41.682  59.528 -55.451  1.00  0.00    -0.035 NA
HETATM    9  C   UNL     1     -42.467  56.684 -53.409  1.00  0.00     0.203 A 
HETATM   10  C   UNL     1     -41.914  57.199 -52.084  1.00  0.00     0.070 A 
HETATM   11  H   UNL     1     -40.731  60.116 -53.004  1.00  0.00     0.184 HD
ENDROOT
BRANCH   7  12
HETATM   12  S   UNL     1     -42.608  59.080 -57.965  1.00  0.00    -0.083 SA
BRANCH  12  13
HETATM   13  C   UNL     1     -44.368  58.706 -58.191  1.00  0.00     0.123 C 
BRANCH  13  14
HETATM   14  C   UNL     1     -44.551  57.445 -59.006  1.00  0.00    -0.027 A 
HETATM   15  C   UNL     1     -45.741  57.151 -59.693  1.00  0.00     0.041 A 
HETATM   16 CL   UNL     1     -47.094  58.226 -59.696  1.00  0.00    -0.084 Cl
HETATM   17  C   UNL     1     -45.873  55.953 -60.405  1.00  0.00     0.024 A 
HETATM   18  C   UNL     1     -44.828  55.032 -60.434  1.00  0.00     0.002 A 
HETATM   19  C   UNL     1     -43.646  55.304 -59.751  1.00  0.00     0.001 A 
HETATM   20  C   UNL     1     -43.508  56.500 -59.043  1.00  0.00     0.009 A 
ENDBRANCH  13  14
ENDBRANCH  12  13
ENDBRANCH   7  12
BRANCH   9  21
HETATM   21  C   UNL     1     -41.817  55.376 -53.859  1.00  0.00    -0.028 A 
HETATM   22  C   UNL     1     -42.470  54.138 -53.707  1.00  0.00     0.012 A 
HETATM   23  C   UNL     1     -41.844  52.955 -54.107  1.00  0.00     0.043 A 
HETATM   24  C   UNL     1     -40.570  53.003 -54.657  1.00  0.00     0.116 A 
HETATM   25  F   UNL     1     -39.972  51.866 -55.037  1.00  0.00    -0.206 F 
HETATM   26  C   UNL     1     -39.907  54.212 -54.820  1.00  0.00     0.043 A 
HETATM   27  C   UNL     1     -40.528  55.397 -54.424  1.00  0.00     0.012 A 
ENDBRANCH   9  21
BRANCH  10  28
HETATM   28  C   UNL     1     -42.131  56.279 -50.948  1.00  0.00     0.294 C 
HETATM   29  O   UNL     1     -43.238  56.043 -50.490  1.00  0.00    -0.259 OA
BRANCH  28  30
HETATM   30  O   UNL     1     -40.961  55.713 -50.574  1.00  0.00    -0.313 OA
BRANCH  30  31
HETATM   31  C   UNL     1     -40.999  54.344 -50.129  1.00  0.00     0.124 C 
HETATM   32  C   UNL     1     -39.953  53.564 -50.913  1.00  0.00     0.040 C 
HETATM   33  C   UNL     1     -40.683  54.344 -48.639  1.00  0.00     0.040 C 
ENDBRANCH  30  31
ENDBRANCH  28  30
ENDBRANCH  10  28
TORSDOF 7
ENDMDL
MODEL 2
REMARK VINA RESULT:      -8.4      4.528      8.546
REMARK  7 active torsions:
REMARK  status: ('A' for Active; 'I' for Inactive)
REMARK    1  A    between atoms: C_7  and  S_8 
REMARK    2  A    between atoms: S_8  and  C_9 
REMARK    3  A    between atoms: C_9  and  C_10 
REMARK    4  A    between atoms: C_18  and  C_19 
REMARK    5  A    between atoms: C_26  and  C_27 
REMARK    6  A    between atoms: C_27  and  O_28 
REMARK    7  A    between atoms: O_28  and  C_29 
ROOT
HETATM    1  C   UNL     1     -41.624  60.951 -57.714  1.00  0.00     0.070 C 
HETATM    2  C   UNL     1     -42.098  59.521 -57.630  1.00  0.00     0.037 A 
HETATM    3  N   UNL     1     -42.205  59.001 -56.345  1.00  0.00    -0.192 N 
HETATM    4  C   UNL     1     -42.469  57.706 -56.089  1.00  0.00     0.726 A 
HETATM    5  N   UNL     1     -42.700  56.850 -57.128  1.00  0.00    -0.082 N 
HETATM    6  N   UNL     1     -42.863  55.583 -56.693  1.00  0.00    -0.128 NA
HETATM    7  C   UNL     1     -42.811  55.768 -55.366  1.00  0.00     0.226 A 
HETATM    8  N   UNL     1     -42.545  57.053 -54.962  1.00  0.00    -0.035 NA
HETATM    9  C   UNL     1     -42.746  57.262 -58.538  1.00  0.00     0.203 A 
HETATM   10  C   UNL     1     -42.364  58.729 -58.700  1.00  0.00     0.070 A 
HETATM   11  H   UNL     1     -41.987  59.614 -55.564  1.00  0.00     0.184 HD
ENDROOT
BRANCH   7  12
HETATM   12  S   UNL     1     -43.069  54.497 -54.206  1.00  0.00    -0.083 SA
BRANCH  12  13
HETATM   13  C   UNL     1     -41.552  54.589 -53.218  1.00  0.00     0.123 C 
BRANCH  13  14
HETATM   14  C   UNL     1     -40.863  53.244 -53.158  1.00  0.00    -0.027 A 
HETATM   15  C   UNL     1     -40.109  52.825 -52.049  1.00  0.00     0.041 A 
HETATM   16 CL   UNL     1     -39.931  53.801 -50.634  1.00  0.00    -0.084 Cl
HETATM   17  C   UNL     1     -39.462  51.584 -52.058  1.00  0.00     0.024 A 
HETATM   18  C   UNL     1     -39.550  50.752 -53.173  1.00  0.00     0.002 A 
HETATM   19  C   UNL     1     -40.285  51.156 -54.283  1.00  0.00     0.001 A 
HETATM   20  C   UNL     1     -40.936  52.391 -54.276  1.00  0.00     0.009 A 
ENDBRANCH  13  14
ENDBRANCH  12  13
ENDBRANCH   7  12
BRANCH   9  21
HETATM   21  C   UNL     1     -44.122  56.935 -59.121  1.00  0.00    -0.028 A 
HETATM   22  C   UNL     1     -44.274  56.029 -60.188  1.00  0.00     0.012 A 
HETATM   23  C   UNL     1     -45.539  55.764 -60.715  1.00  0.00     0.043 A 
HETATM   24  C   UNL     1     -46.653  56.401 -60.183  1.00  0.00     0.116 A 
HETATM   25  F   UNL     1     -47.865  56.147 -60.693  1.00  0.00    -0.206 F 
HETATM   26  C   UNL     1     -46.529  57.296 -59.129  1.00  0.00     0.043 A 
HETATM   27  C   UNL     1     -45.267  57.563 -58.596  1.00  0.00     0.012 A 
ENDBRANCH   9  21
BRANCH  10  28
HETATM   28  C   UNL     1     -42.275  59.172 -60.107  1.00  0.00     0.294 C 
HETATM   29  O   UNL     1     -41.538  58.640 -60.922  1.00  0.00    -0.259 OA
BRANCH  28  30
HETATM   30  O   UNL     1     -43.162  60.165 -60.343  1.00  0.00    -0.313 OA
BRANCH  30  31
HETATM   31  C   UNL     1     -43.980  60.058 -61.523  1.00  0.00     0.124 C 
HETATM   32  C   UNL     1     -45.432  60.253 -61.109  1.00  0.00     0.040 C 
HETATM   33  C   UNL     1     -43.531  61.150 -62.485  1.00  0.00     0.040 C 
ENDBRANCH  30  31
ENDBRANCH  28  30
ENDBRANCH  10  28
TORSDOF 7
ENDMDL
MODEL 3
REMARK VINA RESULT:      -8.0      4.621      8.538
REMARK  7 active torsions:
REMARK  status: ('A' for Active; 'I' for Inactive)
REMARK    1  A    between atoms: C_7  and  S_8 
REMARK    2  A    between atoms: S_8  and  C_9 
REMARK    3  A    between atoms: C_9  and  C_10 
REMARK    4  A    between atoms: C_18  and  C_19 
REMARK    5  A    between atoms: C_26  and  C_27 
REMARK    6  A    between atoms: C_27  and  O_28 
REMARK    7  A    between atoms: O_28  and  C_29 
ROOT
HETATM    1  C   UNL     1     -42.891  56.436 -60.082  1.00  0.00     0.070 C 
HETATM    2  C   UNL     1     -43.127  56.544 -58.596  1.00  0.00     0.037 A 
HETATM    3  N   UNL     1     -42.469  55.601 -57.815  1.00  0.00    -0.192 N 
HETATM    4  C   UNL     1     -42.678  55.456 -56.494  1.00  0.00     0.726 A 
HETATM    5  N   UNL     1     -43.537  56.304 -55.853  1.00  0.00    -0.082 N 
HETATM    6  N   UNL     1     -43.689  55.961 -54.557  1.00  0.00    -0.128 NA
HETATM    7  C   UNL     1     -42.813  54.951 -54.463  1.00  0.00     0.226 A 
HETATM    8  N   UNL     1     -42.195  54.598 -55.638  1.00  0.00    -0.035 NA
HETATM    9  C   UNL     1     -44.220  57.430 -56.505  1.00  0.00     0.203 A 
HETATM   10  C   UNL     1     -43.956  57.444 -58.007  1.00  0.00     0.070 A 
HETATM   11  H   UNL     1     -41.864  54.933 -58.286  1.00  0.00     0.184 HD
ENDROOT
BRANCH   7  12
HETATM   12  S   UNL     1     -42.448  54.127 -52.974  1.00  0.00    -0.083 SA
BRANCH  12  13
HETATM   13  C   UNL     1     -40.657  53.888 -53.117  1.00  0.00     0.123 C 
BRANCH  13  14
HETATM   14  C   UNL     1     -40.294  52.426 -52.979  1.00  0.00    -0.027 A 
HETATM   15  C   UNL     1     -39.937  51.845 -51.750  1.00  0.00     0.041 A 
HETATM   16 CL   UNL     1     -39.916  52.746 -50.276  1.00  0.00    -0.084 Cl
HETATM   17  C   UNL     1     -39.575  50.495 -51.681  1.00  0.00     0.024 A 
HETATM   18  C   UNL     1     -39.554  49.712 -52.834  1.00  0.00     0.002 A 
HETATM   19  C   UNL     1     -39.896  50.275 -54.060  1.00  0.00     0.001 A 
HETATM   20  C   UNL     1     -40.262  51.620 -54.133  1.00  0.00     0.009 A 
ENDBRANCH  13  14
ENDBRANCH  12  13
ENDBRANCH   7  12
BRANCH   9  21
HETATM   21  C   UNL     1     -43.820  58.736 -55.817  1.00  0.00    -0.028 A 
HETATM   22  C   UNL     1     -42.478  59.159 -55.761  1.00  0.00     0.012 A 
HETATM   23  C   UNL     1     -42.138  60.345 -55.108  1.00  0.00     0.043 A 
HETATM   24  C   UNL     1     -43.131  61.110 -54.509  1.00  0.00     0.116 A 
HETATM   25  F   UNL     1     -42.800  62.245 -53.879  1.00  0.00    -0.206 F 
HETATM   26  C   UNL     1     -44.461  60.715 -54.552  1.00  0.00     0.043 A 
HETATM   27  C   UNL     1     -44.808  59.531 -55.206  1.00  0.00     0.012 A 
ENDBRANCH   9  21
BRANCH  10  28
HETATM   28  C   UNL     1     -44.712  58.482 -58.737  1.00  0.00     0.294 C 
HETATM   29  O   UNL     1     -44.199  59.515 -59.138  1.00  0.00    -0.259 OA
BRANCH  28  30
HETATM   30  O   UNL     1     -45.986  58.077 -58.944  1.00  0.00    -0.313 OA
BRANCH  30  31
HETATM   31  C   UNL     1     -46.352  57.693 -60.283  1.00  0.00     0.124 C 
HETATM   32  C   UNL     1     -46.771  56.230 -60.256  1.00  0.00     0.040 C 
HETATM   33  C   UNL     1     -47.507  58.589 -60.709  1.00  0.00     0.040 C 
ENDBRANCH  30  31
ENDBRANCH  28  30
ENDBRANCH  10  28
TORSDOF 7
ENDMDL
MODEL 4
REMARK VINA RESULT:      -7.8      2.898      3.806
REMARK  7 active torsions:
REMARK  status: ('A' for Active; 'I' for Inactive)
REMARK    1  A    between atoms: C_7  and  S_8 
REMARK    2  A    between atoms: S_8  and  C_9 
REMARK    3  A    between atoms: C_9  and  C_10 
REMARK    4  A    between atoms: C_18  and  C_19 
REMARK    5  A    between atoms: C_26  and  C_27 
REMARK    6  A    between atoms: C_27  and  O_28 
REMARK    7  A    between atoms: O_28  and  C_29 
ROOT
HETATM    1  C   UNL     1     -41.780  59.719 -51.110  1.00  0.00     0.070 C 
HETATM    2  C   UNL     1     -42.017  59.034 -52.434  1.00  0.00     0.037 A 
HETATM    3  N   UNL     1     -41.635  59.757 -53.558  1.00  0.00    -0.192 N 
HETATM    4  C   UNL     1     -41.906  59.367 -54.817  1.00  0.00     0.726 A 
HETATM    5  N   UNL     1     -42.539  58.175 -55.029  1.00  0.00    -0.082 N 
HETATM    6  N   UNL     1     -42.803  57.986 -56.339  1.00  0.00    -0.128 NA
HETATM    7  C   UNL     1     -42.212  59.065 -56.870  1.00  0.00     0.226 A 
HETATM    8  N   UNL     1     -41.674  59.946 -55.963  1.00  0.00    -0.035 NA
HETATM    9  C   UNL     1     -42.901  57.234 -53.960  1.00  0.00     0.203 A 
HETATM   10  C   UNL     1     -42.606  57.821 -52.583  1.00  0.00     0.070 A 
HETATM   11  H   UNL     1     -41.207  60.668 -53.415  1.00  0.00     0.184 HD
ENDROOT
BRANCH   7  12
HETATM   12  S   UNL     1     -42.101  59.360 -58.582  1.00  0.00    -0.083 SA
BRANCH  12  13
HETATM   13  C   UNL     1     -42.501  61.126 -58.675  1.00  0.00     0.123 C 
BRANCH  13  14
HETATM   14  C   UNL     1     -41.435  61.882 -59.436  1.00  0.00    -0.027 A 
HETATM   15  C   UNL     1     -41.388  61.925 -60.840  1.00  0.00     0.041 A 
HETATM   16 CL   UNL     1     -42.573  61.143 -61.825  1.00  0.00    -0.084 Cl
HETATM   17  C   UNL     1     -40.360  62.609 -61.496  1.00  0.00     0.024 A 
HETATM   18  C   UNL     1     -39.361  63.250 -60.764  1.00  0.00     0.002 A 
HETATM   19  C   UNL     1     -39.387  63.209 -59.374  1.00  0.00     0.001 A 
HETATM   20  C   UNL     1     -40.415  62.531 -58.714  1.00  0.00     0.009 A 
ENDBRANCH  13  14
ENDBRANCH  12  13
ENDBRANCH   7  12
BRANCH   9  21
HETATM   21  C   UNL     1     -42.202  55.895 -54.200  1.00  0.00    -0.028 A 
HETATM   22  C   UNL     1     -40.802  55.771 -54.125  1.00  0.00     0.012 A 
HETATM   23  C   UNL     1     -40.187  54.541 -54.371  1.00  0.00     0.043 A 
HETATM   24  C   UNL     1     -40.965  53.436 -54.692  1.00  0.00     0.116 A 
HETATM   25  F   UNL     1     -40.372  52.259 -54.931  1.00  0.00    -0.206 F 
HETATM   26  C   UNL     1     -42.348  53.533 -54.770  1.00  0.00     0.043 A 
HETATM   27  C   UNL     1     -42.967  54.759 -54.523  1.00  0.00     0.012 A 
ENDBRANCH   9  21
BRANCH  10  28
HETATM   28  C   UNL     1     -43.059  56.971 -51.462  1.00  0.00     0.294 C 
HETATM   29  O   UNL     1     -44.238  56.811 -51.187  1.00  0.00    -0.259 OA
BRANCH  28  30
HETATM   30  O   UNL     1     -42.001  56.368 -50.874  1.00  0.00    -0.313 OA
BRANCH  30  31
HETATM   31  C   UNL     1     -42.255  55.168 -50.120  1.00  0.00     0.124 C 
HETATM   32  C   UNL     1     -42.267  53.995 -51.090  1.00  0.00     0.040 C 
HETATM   33  C   UNL     1     -41.132  55.028 -49.101  1.00  0.00     0.040 C 
ENDBRANCH  30  31
ENDBRANCH  28  30
ENDBRANCH  10  28
TORSDOF 7
ENDMDL
MODEL 5
REMARK VINA RESULT:      -7.6      2.333      2.783
REMARK  7 active torsions:
REMARK  status: ('A' for Active; 'I' for Inactive)
REMARK    1  A    between atoms: C_7  and  S_8 
REMARK    2  A    between atoms: S_8  and  C_9 
REMARK    3  A    between atoms: C_9  and  C_10 
REMARK    4  A    between atoms: C_18  and  C_19 
REMARK    5  A    between atoms: C_26  and  C_27 
REMARK    6  A    between atoms: C_27  and  O_28 
REMARK    7  A    between atoms: O_28  and  C_29 
ROOT
HETATM    1  C   UNL     1     -43.880  59.753 -50.904  1.00  0.00     0.070 C 
HETATM    2  C   UNL     1     -44.181  59.016 -52.186  1.00  0.00     0.037 A 
HETATM    3  N   UNL     1     -44.532  59.815 -53.267  1.00  0.00    -0.192 N 
HETATM    4  C   UNL     1     -44.972  59.324 -54.440  1.00  0.00     0.726 A 
HETATM    5  N   UNL     1     -45.035  57.971 -54.620  1.00  0.00    -0.082 N 
HETATM    6  N   UNL     1     -45.575  57.661 -55.817  1.00  0.00    -0.128 NA
HETATM    7  C   UNL     1     -45.727  58.882 -56.346  1.00  0.00     0.226 A 
HETATM    8  N   UNL     1     -45.391  59.926 -55.520  1.00  0.00    -0.035 NA
HETATM    9  C   UNL     1     -44.586  56.988 -53.625  1.00  0.00     0.203 A 
HETATM   10  C   UNL     1     -44.178  57.665 -52.321  1.00  0.00     0.070 A 
HETATM   11  H   UNL     1     -44.536  60.823 -53.132  1.00  0.00     0.184 HD
ENDROOT
BRANCH   7  12
HETATM   12  S   UNL     1     -46.294  59.167 -57.967  1.00  0.00    -0.083 SA
BRANCH  12  13
HETATM   13  C   UNL     1     -45.669  57.705 -58.836  1.00  0.00     0.123 C 
BRANCH  13  14
HETATM   14  C   UNL     1     -44.320  57.983 -59.460  1.00  0.00    -0.027 A 
HETATM   15  C   UNL     1     -43.194  57.175 -59.229  1.00  0.00     0.041 A 
HETATM   16 CL   UNL     1     -43.262  55.763 -58.235  1.00  0.00    -0.084 Cl
HETATM   17  C   UNL     1     -41.958  57.496 -59.803  1.00  0.00     0.024 A 
HETATM   18  C   UNL     1     -41.827  58.629 -60.604  1.00  0.00     0.002 A 
HETATM   19  C   UNL     1     -42.930  59.446 -60.835  1.00  0.00     0.001 A 
HETATM   20  C   UNL     1     -44.166  59.126 -60.268  1.00  0.00     0.009 A 
ENDBRANCH  13  14
ENDBRANCH  12  13
ENDBRANCH   7  12
BRANCH   9  21
HETATM   21  C   UNL     1     -43.475  56.126 -54.224  1.00  0.00    -0.028 A 
HETATM   22  C   UNL     1     -43.644  54.743 -54.431  1.00  0.00     0.012 A 
HETATM   23  C   UNL     1     -42.605  53.975 -54.960  1.00  0.00     0.043 A 
HETATM   24  C   UNL     1     -41.397  54.581 -55.283  1.00  0.00     0.116 A 
HETATM   25  F   UNL     1     -40.401  53.841 -55.787  1.00  0.00    -0.206 F 
HETATM   26  C   UNL     1     -41.207  55.943 -55.091  1.00  0.00     0.043 A 
HETATM   27  C   UNL     1     -42.243  56.716 -54.564  1.00  0.00     0.012 A 
ENDBRANCH   9  21
BRANCH  10  28
HETATM   28  C   UNL     1     -43.831  56.720 -51.240  1.00  0.00     0.294 C 
HETATM   29  O   UNL     1     -44.670  56.199 -50.522  1.00  0.00    -0.259 OA
BRANCH  28  30
HETATM   30  O   UNL     1     -42.499  56.483 -51.233  1.00  0.00    -0.313 OA
BRANCH  30  31
HETATM   31  C   UNL     1     -42.046  55.260 -50.624  1.00  0.00     0.124 C 
HETATM   32  C   UNL     1     -41.104  54.567 -51.599  1.00  0.00     0.040 C 
HETATM   33  C   UNL     1     -41.324  55.637 -49.336  1.00  0.00     0.040 C 
ENDBRANCH  30  31
ENDBRANCH  28  30
ENDBRANCH  10  28
TORSDOF 7
ENDMDL
MODEL 6
REMARK VINA RESULT:      -7.5      4.516      8.733
REMARK  7 active torsions:
REMARK  status: ('A' for Active; 'I' for Inactive)
REMARK    1  A    between atoms: C_7  and  S_8 
REMARK    2  A    between atoms: S_8  and  C_9 
REMARK    3  A    between atoms: C_9  and  C_10 
REMARK    4  A    between atoms: C_18  and  C_19 
REMARK    5  A    between atoms: C_26  and  C_27 
REMARK    6  A    between atoms: C_27  and  O_28 
REMARK    7  A    between atoms: O_28  and  C_29 
ROOT
HETATM    1  C   UNL     1     -44.772  55.467 -60.254  1.00  0.00     0.070 C 
HETATM    2  C   UNL     1     -44.275  56.164 -59.011  1.00  0.00     0.037 A 
HETATM    3  N   UNL     1     -43.372  55.441 -58.241  1.00  0.00    -0.192 N 
HETATM    4  C   UNL     1     -42.940  55.844 -57.032  1.00  0.00     0.726 A 
HETATM    5  N   UNL     1     -43.356  57.047 -56.537  1.00  0.00    -0.082 N 
HETATM    6  N   UNL     1     -42.894  57.248 -55.285  1.00  0.00    -0.128 NA
HETATM    7  C   UNL     1     -42.126  56.162 -55.126  1.00  0.00     0.226 A 
HETATM    8  N   UNL     1     -42.151  55.267 -56.167  1.00  0.00    -0.035 NA
HETATM    9  C   UNL     1     -44.211  57.988 -57.274  1.00  0.00     0.203 A 
HETATM   10  C   UNL     1     -44.686  57.388 -58.593  1.00  0.00     0.070 A 
HETATM   11  H   UNL     1     -43.092  54.522 -58.575  1.00  0.00     0.184 HD
ENDROOT
BRANCH   7  12
HETATM   12  S   UNL     1     -41.141  55.876 -53.720  1.00  0.00    -0.083 SA
BRANCH  12  13
HETATM   13  C   UNL     1     -41.982  54.457 -52.967  1.00  0.00     0.123 C 
BRANCH  13  14
HETATM   14  C   UNL     1     -41.112  53.221 -53.024  1.00  0.00    -0.027 A 
HETATM   15  C   UNL     1     -40.297  52.815 -51.954  1.00  0.00     0.041 A 
HETATM   16 CL   UNL     1     -40.244  53.677 -50.457  1.00  0.00    -0.084 Cl
HETATM   17  C   UNL     1     -39.483  51.683 -52.070  1.00  0.00     0.024 A 
HETATM   18  C   UNL     1     -39.463  50.948 -53.255  1.00  0.00     0.002 A 
HETATM   19  C   UNL     1     -40.257  51.342 -54.327  1.00  0.00     0.001 A 
HETATM   20  C   UNL     1     -41.075  52.469 -54.214  1.00  0.00     0.009 A 
ENDBRANCH  13  14
ENDBRANCH  12  13
ENDBRANCH   7  12
BRANCH   9  21
HETATM   21  C   UNL     1     -43.474  59.316 -57.452  1.00  0.00    -0.028 A 
HETATM   22  C   UNL     1     -44.007  60.525 -56.967  1.00  0.00     0.012 A 
HETATM   23  C   UNL     1     -43.324  61.727 -57.163  1.00  0.00     0.043 A 
HETATM   24  C   UNL     1     -42.111  61.727 -57.840  1.00  0.00     0.116 A 
HETATM   25  F   UNL     1     -41.460  62.882 -58.028  1.00  0.00    -0.206 F 
HETATM   26  C   UNL     1     -41.564  60.547 -58.325  1.00  0.00     0.043 A 
HETATM   27  C   UNL     1     -42.242  59.342 -58.131  1.00  0.00     0.012 A 
ENDBRANCH   9  21
BRANCH  10  28
HETATM   28  C   UNL     1     -45.648  58.239 -59.325  1.00  0.00     0.294 C 
HETATM   29  O   UNL     1     -46.822  58.337 -59.004  1.00  0.00    -0.259 OA
BRANCH  28  30
HETATM   30  O   UNL     1     -45.018  58.917 -60.311  1.00  0.00    -0.313 OA
BRANCH  30  31
HETATM   31  C   UNL     1     -45.416  60.282 -60.538  1.00  0.00     0.124 C 
HETATM   32  C   UNL     1     -44.174  61.082 -60.906  1.00  0.00     0.040 C 
HETATM   33  C   UNL     1     -46.425  60.275 -61.680  1.00  0.00     0.040 C 
ENDBRANCH  30  31
ENDBRANCH  28  30
ENDBRANCH  10  28
TORSDOF 7
ENDMDL
MODEL 7
REMARK VINA RESULT:      -7.5      4.443      8.423
REMARK  7 active torsions:
REMARK  status: ('A' for Active; 'I' for Inactive)
REMARK    1  A    between atoms: C_7  and  S_8 
REMARK    2  A    between atoms: S_8  and  C_9 
REMARK    3  A    between atoms: C_9  and  C_10 
REMARK    4  A    between atoms: C_18  and  C_19 
REMARK    5  A    between atoms: C_26  and  C_27 
REMARK    6  A    between atoms: C_27  and  O_28 
REMARK    7  A    between atoms: O_28  and  C_29 
ROOT
HETATM    1  C   UNL     1     -42.883  61.361 -56.409  1.00  0.00     0.070 C 
HETATM    2  C   UNL     1     -42.994  59.892 -56.734  1.00  0.00     0.037 A 
HETATM    3  N   UNL     1     -42.939  59.032 -55.644  1.00  0.00    -0.192 N 
HETATM    4  C   UNL     1     -42.875  57.693 -55.759  1.00  0.00     0.726 A 
HETATM    5  N   UNL     1     -42.920  57.122 -57.000  1.00  0.00    -0.082 N 
HETATM    6  N   UNL     1     -42.760  55.784 -56.930  1.00  0.00    -0.128 NA
HETATM    7  C   UNL     1     -42.719  55.607 -55.602  1.00  0.00     0.226 A 
HETATM    8  N   UNL     1     -42.761  56.758 -54.855  1.00  0.00    -0.035 NA
HETATM    9  C   UNL     1     -43.101  57.879 -58.246  1.00  0.00     0.203 A 
HETATM   10  C   UNL     1     -43.090  59.382 -57.989  1.00  0.00     0.070 A 
HETATM   11  H   UNL     1     -42.856  59.443 -54.718  1.00  0.00     0.184 HD
ENDROOT
BRANCH   7  12
HETATM   12  S   UNL     1     -42.632  54.045 -54.840  1.00  0.00    -0.083 SA
BRANCH  12  13
HETATM   13  C   UNL     1     -40.846  53.863 -54.581  1.00  0.00     0.123 C 
BRANCH  13  14
HETATM   14  C   UNL     1     -40.550  53.398 -53.173  1.00  0.00    -0.027 A 
HETATM   15  C   UNL     1     -40.005  52.134 -52.889  1.00  0.00     0.041 A 
HETATM   16 CL   UNL     1     -39.591  51.009 -54.134  1.00  0.00    -0.084 Cl
HETATM   17  C   UNL     1     -39.782  51.736 -51.566  1.00  0.00     0.024 A 
HETATM   18  C   UNL     1     -40.107  52.588 -50.511  1.00  0.00     0.002 A 
HETATM   19  C   UNL     1     -40.656  53.839 -50.774  1.00  0.00     0.001 A 
HETATM   20  C   UNL     1     -40.876  54.241 -52.094  1.00  0.00     0.009 A 
ENDBRANCH  13  14
ENDBRANCH  12  13
ENDBRANCH   7  12
BRANCH   9  21
HETATM   21  C   UNL     1     -44.371  57.403 -58.952  1.00  0.00    -0.028 A 
HETATM   22  C   UNL     1     -44.316  56.608 -60.112  1.00  0.00     0.012 A 
HETATM   23  C   UNL     1     -45.491  56.205 -60.750  1.00  0.00     0.043 A 
HETATM   24  C   UNL     1     -46.721  56.593 -60.234  1.00  0.00     0.116 A 
HETATM   25  F   UNL     1     -47.847  56.207 -60.849  1.00  0.00    -0.206 F 
HETATM   26  C   UNL     1     -46.802  57.375 -59.089  1.00  0.00     0.043 A 
HETATM   27  C   UNL     1     -45.630  57.779 -58.447  1.00  0.00     0.012 A 
ENDBRANCH   9  21
BRANCH  10  28
HETATM   28  C   UNL     1     -43.147  60.199 -59.218  1.00  0.00     0.294 C 
HETATM   29  O   UNL     1     -44.194  60.618 -59.686  1.00  0.00    -0.259 OA
BRANCH  28  30
HETATM   30  O   UNL     1     -41.897  60.457 -59.669  1.00  0.00    -0.313 OA
BRANCH  30  31
HETATM   31  C   UNL     1     -41.533  61.836 -59.863  1.00  0.00     0.124 C 
HETATM   32  C   UNL     1     -40.327  62.134 -58.983  1.00  0.00     0.040 C 
HETATM   33  C   UNL     1     -41.193  62.010 -61.338  1.00  0.00     0.040 C 
ENDBRANCH  30  31
ENDBRANCH  28  30
ENDBRANCH  10  28
TORSDOF 7
ENDMDL
MODEL 8
REMARK VINA RESULT:      -7.4      4.253      7.892
REMARK  7 active torsions:
REMARK  status: ('A' for Active; 'I' for Inactive)
REMARK    1  A    between atoms: C_7  and  S_8 
REMARK    2  A    between atoms: S_8  and  C_9 
REMARK    3  A    between atoms: C_9  and  C_10 
REMARK    4  A    between atoms: C_18  and  C_19 
REMARK    5  A    between atoms: C_26  and  C_27 
REMARK    6  A    between atoms: C_27  and  O_28 
REMARK    7  A    between atoms: O_28  and  C_29 
ROOT
HETATM    1  C   UNL     1     -46.147  61.113 -56.074  1.00  0.00     0.070 C 
HETATM    2  C   UNL     1     -45.365  59.826 -56.164  1.00  0.00     0.037 A 
HETATM    3  N   UNL     1     -45.481  58.977 -55.070  1.00  0.00    -0.192 N 
HETATM    4  C   UNL     1     -44.744  57.862 -54.915  1.00  0.00     0.726 A 
HETATM    5  N   UNL     1     -43.867  57.495 -55.897  1.00  0.00    -0.082 N 
HETATM    6  N   UNL     1     -43.156  56.405 -55.537  1.00  0.00    -0.128 NA
HETATM    7  C   UNL     1     -43.728  56.113 -54.361  1.00  0.00     0.226 A 
HETATM    8  N   UNL     1     -44.687  57.000 -53.937  1.00  0.00    -0.035 NA
HETATM    9  C   UNL     1     -43.711  58.212 -57.170  1.00  0.00     0.203 A 
HETATM   10  C   UNL     1     -44.546  59.489 -57.193  1.00  0.00     0.070 A 
HETATM   11  H   UNL     1     -46.093  59.262 -54.310  1.00  0.00     0.184 HD
ENDROOT
BRANCH   7  12
HETATM   12  S   UNL     1     -43.321  54.711 -53.414  1.00  0.00    -0.083 SA
BRANCH  12  13
HETATM   13  C   UNL     1     -41.519  54.868 -53.284  1.00  0.00     0.123 C 
BRANCH  13  14
HETATM   14  C   UNL     1     -40.865  53.508 -53.179  1.00  0.00    -0.027 A 
HETATM   15  C   UNL     1     -40.231  53.059 -52.008  1.00  0.00     0.041 A 
HETATM   16 CL   UNL     1     -40.174  54.011 -50.567  1.00  0.00    -0.084 Cl
HETATM   17  C   UNL     1     -39.609  51.806 -51.973  1.00  0.00     0.024 A 
HETATM   18  C   UNL     1     -39.602  50.991 -53.104  1.00  0.00     0.002 A 
HETATM   19  C   UNL     1     -40.217  51.425 -54.274  1.00  0.00     0.001 A 
HETATM   20  C   UNL     1     -40.843  52.673 -54.312  1.00  0.00     0.009 A 
ENDBRANCH  13  14
ENDBRANCH  12  13
ENDBRANCH   7  12
BRANCH   9  21
HETATM   21  C   UNL     1     -44.031  57.268 -58.329  1.00  0.00    -0.028 A 
HETATM   22  C   UNL     1     -45.345  57.112 -58.812  1.00  0.00     0.012 A 
HETATM   23  C   UNL     1     -45.613  56.227 -59.858  1.00  0.00     0.043 A 
HETATM   24  C   UNL     1     -44.576  55.497 -60.424  1.00  0.00     0.116 A 
HETATM   25  F   UNL     1     -44.838  54.646 -61.425  1.00  0.00    -0.206 F 
HETATM   26  C   UNL     1     -43.272  55.636 -59.968  1.00  0.00     0.043 A 
HETATM   27  C   UNL     1     -42.998  56.520 -58.923  1.00  0.00     0.012 A 
ENDBRANCH   9  21
BRANCH  10  28
HETATM   28  C   UNL     1     -44.339  60.316 -58.399  1.00  0.00     0.294 C 
HETATM   29  O   UNL     1     -45.251  60.647 -59.139  1.00  0.00    -0.259 OA
BRANCH  28  30
HETATM   30  O   UNL     1     -43.042  60.691 -58.494  1.00  0.00    -0.313 OA
BRANCH  30  31
HETATM   31  C   UNL     1     -42.768  62.092 -58.679  1.00  0.00     0.124 C 
HETATM   32  C   UNL     1     -42.853  62.773 -57.320  1.00  0.00     0.040 C 
HETATM   33  C   UNL     1     -41.365  62.205 -59.263  1.00  0.00     0.040 C 
ENDBRANCH  30  31
ENDBRANCH  28  30
ENDBRANCH  10  28
TORSDOF 7
ENDMDL
MODEL 9
REMARK VINA RESULT:      -7.4      4.691      7.785
REMARK  7 active torsions:
REMARK  status: ('A' for Active; 'I' for Inactive)
REMARK    1  A    between atoms: C_7  and  S_8 
REMARK    2  A    between atoms: S_8  and  C_9 
REMARK    3  A    between atoms: C_9  and  C_10 
REMARK    4  A    between atoms: C_18  and  C_19 
REMARK    5  A    between atoms: C_26  and  C_27 
REMARK    6  A    between atoms: C_27  and  O_28 
REMARK    7  A    between atoms: O_28  and  C_29 
ROOT
HETATM    1  C   UNL     1     -43.819  54.043 -50.669  1.00  0.00     0.070 C 
HETATM    2  C   UNL     1     -43.676  55.488 -51.080  1.00  0.00     0.037 A 
HETATM    3  N   UNL     1     -44.754  56.308 -50.767  1.00  0.00    -0.192 N 
HETATM    4  C   UNL     1     -44.861  57.582 -51.185  1.00  0.00     0.726 A 
HETATM    5  N   UNL     1     -43.846  58.138 -51.911  1.00  0.00    -0.082 N 
HETATM    6  N   UNL     1     -44.160  59.388 -52.315  1.00  0.00    -0.128 NA
HETATM    7  C   UNL     1     -45.345  59.554 -51.712  1.00  0.00     0.226 A 
HETATM    8  N   UNL     1     -45.817  58.458 -51.032  1.00  0.00    -0.035 NA
HETATM    9  C   UNL     1     -42.586  57.450 -52.224  1.00  0.00     0.203 A 
HETATM   10  C   UNL     1     -42.617  55.999 -51.757  1.00  0.00     0.070 A 
HETATM   11  H   UNL     1     -45.537  55.894 -50.269  1.00  0.00     0.184 HD
ENDROOT
BRANCH   7  12
HETATM   12  S   UNL     1     -46.248  61.041 -51.754  1.00  0.00    -0.083 SA
BRANCH  12  13
HETATM   13  C   UNL     1     -45.227  62.118 -50.712  1.00  0.00     0.123 C 
BRANCH  13  14
HETATM   14  C   UNL     1     -45.591  61.960 -49.253  1.00  0.00    -0.027 A 
HETATM   15  C   UNL     1     -46.722  62.569 -48.682  1.00  0.00     0.041 A 
HETATM   16 CL   UNL     1     -47.820  63.527 -49.610  1.00  0.00    -0.084 Cl
HETATM   17  C   UNL     1     -46.996  62.421 -47.318  1.00  0.00     0.024 A 
HETATM   18  C   UNL     1     -46.144  61.675 -46.505  1.00  0.00     0.002 A 
HETATM   19  C   UNL     1     -45.015  61.073 -47.053  1.00  0.00     0.001 A 
HETATM   20  C   UNL     1     -44.740  61.215 -48.415  1.00  0.00     0.009 A 
ENDBRANCH  13  14
ENDBRANCH  12  13
ENDBRANCH   7  12
BRANCH   9  21
HETATM   21  C   UNL     1     -41.415  58.241 -51.639  1.00  0.00    -0.028 A 
HETATM   22  C   UNL     1     -40.293  58.581 -52.419  1.00  0.00     0.012 A 
HETATM   23  C   UNL     1     -39.227  59.285 -51.855  1.00  0.00     0.043 A 
HETATM   24  C   UNL     1     -39.277  59.650 -50.516  1.00  0.00     0.116 A 
HETATM   25  F   UNL     1     -38.251  60.323 -49.977  1.00  0.00    -0.206 F 
HETATM   26  C   UNL     1     -40.373  59.329 -49.727  1.00  0.00     0.043 A 
HETATM   27  C   UNL     1     -41.442  58.627 -50.286  1.00  0.00     0.012 A 
ENDBRANCH   9  21
BRANCH  10  28
HETATM   28  C   UNL     1     -41.424  55.220 -52.150  1.00  0.00     0.294 C 
HETATM   29  O   UNL     1     -40.623  54.782 -51.339  1.00  0.00    -0.259 OA
BRANCH  28  30
HETATM   30  O   UNL     1     -41.416  55.018 -53.487  1.00  0.00    -0.313 OA
BRANCH  30  31
HETATM   31  C   UNL     1     -41.986  53.790 -53.977  1.00  0.00     0.124 C 
HETATM   32  C   UNL     1     -42.846  54.119 -55.189  1.00  0.00     0.040 C 
HETATM   33  C   UNL     1     -40.829  52.874 -54.356  1.00  0.00     0.040 C 
ENDBRANCH  30  31
ENDBRANCH  28  30
ENDBRANCH  10  28
TORSDOF 7
ENDMDL
MODEL 10
REMARK VINA RESULT:      -7.3      4.147      7.102
REMARK  7 active torsions:
REMARK  status: ('A' for Active; 'I' for Inactive)
REMARK    1  A    between atoms: C_7  and  S_8 
REMARK    2  A    between atoms: S_8  and  C_9 
REMARK    3  A    between atoms: C_9  and  C_10 
REMARK    4  A    between atoms: C_18  and  C_19 
REMARK    5  A    between atoms: C_26  and  C_27 
REMARK    6  A    between atoms: C_27  and  O_28 
REMARK    7  A    between atoms: O_28  and  C_29 
ROOT
HETATM    1  C   UNL     1     -46.148  60.364 -50.973  1.00  0.00     0.070 C 
HETATM    2  C   UNL     1     -45.101  59.419 -51.510  1.00  0.00     0.037 A 
HETATM    3  N   UNL     1     -45.091  58.151 -50.940  1.00  0.00    -0.192 N 
HETATM    4  C   UNL     1     -44.139  57.234 -51.190  1.00  0.00     0.726 A 
HETATM    5  N   UNL     1     -43.150  57.520 -52.088  1.00  0.00    -0.082 N 
HETATM    6  N   UNL     1     -42.241  56.524 -52.150  1.00  0.00    -0.128 NA
HETATM    7  C   UNL     1     -42.800  55.625 -51.329  1.00  0.00     0.226 A 
HETATM    8  N   UNL     1     -43.951  56.038 -50.703  1.00  0.00    -0.035 NA
HETATM    9  C   UNL     1     -43.083  58.763 -52.869  1.00  0.00     0.203 A 
HETATM   10  C   UNL     1     -44.172  59.743 -52.445  1.00  0.00     0.070 A 
HETATM   11  H   UNL     1     -45.792  57.942 -50.234  1.00  0.00     0.184 HD
ENDROOT
BRANCH   7  12
HETATM   12  S   UNL     1     -42.152  54.033 -51.057  1.00  0.00    -0.083 SA
BRANCH  12  13
HETATM   13  C   UNL     1     -40.592  54.112 -51.977  1.00  0.00     0.123 C 
BRANCH  13  14
HETATM   14  C   UNL     1     -40.227  52.756 -52.538  1.00  0.00    -0.027 A 
HETATM   15  C   UNL     1     -40.294  52.458 -53.910  1.00  0.00     0.041 A 
HETATM   16 CL   UNL     1     -40.768  53.633 -55.086  1.00  0.00    -0.084 Cl
HETATM   17  C   UNL     1     -39.980  51.176 -54.375  1.00  0.00     0.024 A 
HETATM   18  C   UNL     1     -39.605  50.175 -53.481  1.00  0.00     0.002 A 
HETATM   19  C   UNL     1     -39.543  50.450 -52.119  1.00  0.00     0.001 A 
HETATM   20  C   UNL     1     -39.851  51.730 -51.651  1.00  0.00     0.009 A 
ENDBRANCH  13  14
ENDBRANCH  12  13
ENDBRANCH   7  12
BRANCH   9  21
HETATM   21  C   UNL     1     -43.126  58.431 -54.361  1.00  0.00    -0.028 A 
HETATM   22  C   UNL     1     -42.099  58.835 -55.235  1.00  0.00     0.012 A 
HETATM   23  C   UNL     1     -42.173  58.538 -56.598  1.00  0.00     0.043 A 
HETATM   24  C   UNL     1     -43.267  57.840 -57.091  1.00  0.00     0.116 A 
HETATM   25  F   UNL     1     -43.337  57.559 -58.399  1.00  0.00    -0.206 F 
HETATM   26  C   UNL     1     -44.291  57.428 -56.248  1.00  0.00     0.043 A 
HETATM   27  C   UNL     1     -44.222  57.721 -54.885  1.00  0.00     0.012 A 
ENDBRANCH   9  21
BRANCH  10  28
HETATM   28  C   UNL     1     -44.083  61.059 -53.110  1.00  0.00     0.294 C 
HETATM   29  O   UNL     1     -44.844  61.404 -54.000  1.00  0.00    -0.259 OA
BRANCH  28  30
HETATM   30  O   UNL     1     -43.114  61.809 -52.537  1.00  0.00    -0.313 OA
BRANCH  30  31
HETATM   31  C   UNL     1     -43.521  63.003 -51.842  1.00  0.00     0.124 C 
HETATM   32  C   UNL     1     -42.847  63.006 -50.477  1.00  0.00     0.040 C 
HETATM   33  C   UNL     1     -43.069  64.191 -52.681  1.00  0.00     0.040 C 
ENDBRANCH  30  31
ENDBRANCH  28  30
ENDBRANCH  10  28
TORSDOF 7
ENDMDL
