MODEL 1
REMARK VINA RESULT:      -8.3      0.000      0.000
REMARK  8 active torsions:
REMARK  status: ('A' for Active; 'I' for Inactive)
REMARK    1  A    between atoms: O_2  and  C_3 
REMARK    2  A    between atoms: C_6  and  C_7 
REMARK    3  A    between atoms: C_7  and  C_8 
REMARK    4  A    between atoms: C_8  and  C_9 
REMARK    5  A    between atoms: C_11  and  N_12 
REMARK       I    between atoms: N_12  and  C_13 
REMARK    6  A    between atoms: C_13  and  C_14 
REMARK    7  A    between atoms: C_18  and  C_19 
REMARK    8  A    between atoms: C_22  and  O_23 
ROOT
HETATM    1  N   UNL     1     -44.069  60.218 -50.235  1.00  0.00    -0.149 N 
HETATM    2  C   UNL     1     -45.290  60.025 -49.642  1.00  0.00     0.290 C 
HETATM    3  O   UNL     1     -46.130  59.177 -49.925  1.00  0.00    -0.265 OA
HETATM    4  H   UNL     1     -43.490  60.974 -49.899  1.00  0.00     0.188 HD
ENDROOT
BRANCH   1   5
HETATM    5  C   UNL     1     -43.582  59.485 -51.274  1.00  0.00     0.747 A 
HETATM    6  N   UNL     1     -42.785  58.401 -51.004  1.00  0.00    -0.046 NA
HETATM    7  C   UNL     1     -42.489  57.927 -52.197  1.00  0.00     0.140 A 
HETATM    8  N   UNL     1     -43.103  58.703 -53.137  1.00  0.00    -0.248 N 
HETATM    9  N   UNL     1     -43.785  59.700 -52.573  1.00  0.00     0.020 NA
HETATM   10  H   UNL     1     -43.093  58.620 -54.148  1.00  0.00     0.191 HD
BRANCH   7  11
HETATM   11  C   UNL     1     -41.661  56.745 -52.558  1.00  0.00     0.085 C 
BRANCH  11  12
HETATM   12  C   UNL     1     -42.410  55.432 -52.306  1.00  0.00     0.046 C 
BRANCH  12  13
HETATM   13  C   UNL     1     -41.579  54.224 -52.663  1.00  0.00    -0.058 A 
HETATM   14  C   UNL     1     -41.592  53.720 -53.971  1.00  0.00     0.010 A 
HETATM   15  C   UNL     1     -40.822  52.605 -54.317  1.00  0.00     0.037 A 
HETATM   16  C   UNL     1     -40.027  51.979 -53.360  1.00  0.00     0.068 A 
HETATM   17  C   UNL     1     -40.024  52.469 -52.051  1.00  0.00     0.037 A 
HETATM   18  C   UNL     1     -40.794  53.582 -51.701  1.00  0.00     0.010 A 
BRANCH  16  19
HETATM   19  O   UNL     1     -39.222  50.893 -53.569  1.00  0.00    -0.356 OA
HETATM   20  C   UNL     1     -39.707  49.900 -54.465  1.00  0.00     0.210 C 
ENDBRANCH  16  19
ENDBRANCH  12  13
ENDBRANCH  11  12
ENDBRANCH   7  11
ENDBRANCH   1   5
BRANCH   2  21
HETATM   21  C   UNL     1     -45.551  61.003 -48.570  1.00  0.00     0.147 A 
HETATM   22  N   UNL     1     -46.640  61.797 -48.544  1.00  0.00    -0.169 NA
HETATM   23  N   UNL     1     -46.495  62.505 -47.406  1.00  0.00    -0.277 N 
HETATM   24  H   UNL     1     -47.221  63.169 -47.159  1.00  0.00     0.189 HD
HETATM   25  C   UNL     1     -45.371  62.197 -46.684  1.00  0.00     0.063 A 
HETATM   26  C   UNL     1     -44.733  61.230 -47.434  1.00  0.00     0.071 A 
BRANCH  25  27
HETATM   27  C   UNL     1     -45.031  62.777 -45.387  1.00  0.00    -0.008 A 
HETATM   28  C   UNL     1     -45.381  64.104 -45.108  1.00  0.00     0.016 A 
HETATM   29  C   UNL     1     -45.067  64.681 -43.875  1.00  0.00     0.037 A 
HETATM   30  C   UNL     1     -44.403  63.945 -42.894  1.00  0.00     0.068 A 
HETATM   31  C   UNL     1     -44.054  62.622 -43.159  1.00  0.00     0.037 A 
HETATM   32  C   UNL     1     -44.365  62.041 -44.399  1.00  0.00     0.016 A 
BRANCH  30  33
HETATM   33  O   UNL     1     -44.161  64.630 -41.737  1.00  0.00    -0.356 OA
HETATM   34  C   UNL     1     -43.841  63.861 -40.584  1.00  0.00     0.210 C 
ENDBRANCH  30  33
ENDBRANCH  25  27
ENDBRANCH   2  21
TORSDOF 8
ENDMDL
MODEL 2
REMARK VINA RESULT:      -8.2      1.291     11.743
REMARK  8 active torsions:
REMARK  status: ('A' for Active; 'I' for Inactive)
REMARK    1  A    between atoms: O_2  and  C_3 
REMARK    2  A    between atoms: C_6  and  C_7 
REMARK    3  A    between atoms: C_7  and  C_8 
REMARK    4  A    between atoms: C_8  and  C_9 
REMARK    5  A    between atoms: C_11  and  N_12 
REMARK       I    between atoms: N_12  and  C_13 
REMARK    6  A    between atoms: C_13  and  C_14 
REMARK    7  A    between atoms: C_18  and  C_19 
REMARK    8  A    between atoms: C_22  and  O_23 
ROOT
HETATM    1  N   UNL     1     -44.274  59.270 -51.595  1.00  0.00    -0.149 N 
HETATM    2  C   UNL     1     -44.431  57.926 -51.375  1.00  0.00     0.290 C 
HETATM    3  O   UNL     1     -45.260  57.381 -50.653  1.00  0.00    -0.265 OA
HETATM    4  H   UNL     1     -43.530  59.569 -52.209  1.00  0.00     0.188 HD
ENDROOT
BRANCH   1   5
HETATM    5  C   UNL     1     -45.029  60.248 -51.022  1.00  0.00     0.747 A 
HETATM    6  N   UNL     1     -44.605  60.808 -49.843  1.00  0.00    -0.046 NA
HETATM    7  C   UNL     1     -45.537  61.695 -49.565  1.00  0.00     0.140 A 
HETATM    8  N   UNL     1     -46.474  61.666 -50.558  1.00  0.00    -0.248 N 
HETATM    9  N   UNL     1     -46.176  60.748 -51.478  1.00  0.00     0.020 NA
HETATM   10  H   UNL     1     -47.318  62.217 -50.664  1.00  0.00     0.191 HD
BRANCH   7  11
HETATM   11  C   UNL     1     -45.630  62.629 -48.412  1.00  0.00     0.085 C 
BRANCH  11  12
HETATM   12  C   UNL     1     -46.277  61.960 -47.194  1.00  0.00     0.046 C 
BRANCH  12  13
HETATM   13  C   UNL     1     -45.470  62.165 -45.935  1.00  0.00    -0.058 A 
HETATM   14  C   UNL     1     -45.439  63.421 -45.313  1.00  0.00     0.010 A 
HETATM   15  C   UNL     1     -44.700  63.624 -44.143  1.00  0.00     0.037 A 
HETATM   16  C   UNL     1     -43.983  62.572 -43.578  1.00  0.00     0.068 A 
HETATM   17  C   UNL     1     -43.997  61.323 -44.204  1.00  0.00     0.037 A 
HETATM   18  C   UNL     1     -44.733  61.118 -45.375  1.00  0.00     0.010 A 
BRANCH  16  19
HETATM   19  O   UNL     1     -43.233  62.634 -42.436  1.00  0.00    -0.356 OA
HETATM   20  C   UNL     1     -43.555  63.667 -41.513  1.00  0.00     0.210 C 
ENDBRANCH  16  19
ENDBRANCH  12  13
ENDBRANCH  11  12
ENDBRANCH   7  11
ENDBRANCH   1   5
BRANCH   2  21
HETATM   21  C   UNL     1     -43.437  57.120 -52.107  1.00  0.00     0.147 A 
HETATM   22  N   UNL     1     -42.689  57.609 -53.116  1.00  0.00    -0.169 NA
HETATM   23  N   UNL     1     -41.916  56.566 -53.478  1.00  0.00    -0.277 N 
HETATM   24  H   UNL     1     -41.242  56.705 -54.224  1.00  0.00     0.189 HD
HETATM   25  C   UNL     1     -42.115  55.427 -52.741  1.00  0.00     0.063 A 
HETATM   26  C   UNL     1     -43.114  55.763 -51.851  1.00  0.00     0.071 A 
BRANCH  25  27
HETATM   27  C   UNL     1     -41.353  54.191 -52.898  1.00  0.00    -0.008 A 
HETATM   28  C   UNL     1     -41.196  53.630 -54.171  1.00  0.00     0.016 A 
HETATM   29  C   UNL     1     -40.470  52.449 -54.347  1.00  0.00     0.037 A 
HETATM   30  C   UNL     1     -39.883  51.807 -53.257  1.00  0.00     0.068 A 
HETATM   31  C   UNL     1     -40.029  52.359 -51.985  1.00  0.00     0.037 A 
HETATM   32  C   UNL     1     -40.760  53.544 -51.806  1.00  0.00     0.016 A 
BRANCH  30  33
HETATM   33  O   UNL     1     -39.202  50.665 -53.570  1.00  0.00    -0.356 OA
HETATM   34  C   UNL     1     -39.782  49.814 -54.551  1.00  0.00     0.210 C 
ENDBRANCH  30  33
ENDBRANCH  25  27
ENDBRANCH   2  21
TORSDOF 8
ENDMDL
MODEL 3
REMARK VINA RESULT:      -8.1      7.355     11.695
REMARK  8 active torsions:
REMARK  status: ('A' for Active; 'I' for Inactive)
REMARK    1  A    between atoms: O_2  and  C_3 
REMARK    2  A    between atoms: C_6  and  C_7 
REMARK    3  A    between atoms: C_7  and  C_8 
REMARK    4  A    between atoms: C_8  and  C_9 
REMARK    5  A    between atoms: C_11  and  N_12 
REMARK       I    between atoms: N_12  and  C_13 
REMARK    6  A    between atoms: C_13  and  C_14 
REMARK    7  A    between atoms: C_18  and  C_19 
REMARK    8  A    between atoms: C_22  and  O_23 
ROOT
HETATM    1  N   UNL     1     -44.562  56.911 -55.807  1.00  0.00    -0.149 N 
HETATM    2  C   UNL     1     -43.662  57.323 -56.757  1.00  0.00     0.290 C 
HETATM    3  O   UNL     1     -42.496  57.661 -56.581  1.00  0.00    -0.265 OA
HETATM    4  H   UNL     1     -45.497  56.678 -56.107  1.00  0.00     0.188 HD
ENDROOT
BRANCH   1   5
HETATM    5  C   UNL     1     -44.302  56.819 -54.474  1.00  0.00     0.747 A 
HETATM    6  N   UNL     1     -43.498  55.801 -54.023  1.00  0.00    -0.046 NA
HETATM    7  C   UNL     1     -43.452  55.994 -52.721  1.00  0.00     0.140 A 
HETATM    8  N   UNL     1     -44.196  57.097 -52.419  1.00  0.00    -0.248 N 
HETATM    9  N   UNL     1     -44.751  57.622 -53.511  1.00  0.00     0.020 NA
HETATM   10  H   UNL     1     -44.371  57.529 -51.518  1.00  0.00     0.191 HD
BRANCH   7  11
HETATM   11  C   UNL     1     -42.725  55.215 -51.683  1.00  0.00     0.085 C 
BRANCH  11  12
HETATM   12  C   UNL     1     -41.216  55.191 -51.950  1.00  0.00     0.046 C 
BRANCH  12  13
HETATM   13  C   UNL     1     -40.724  53.811 -52.314  1.00  0.00    -0.058 A 
HETATM   14  C   UNL     1     -40.013  53.046 -51.379  1.00  0.00     0.010 A 
HETATM   15  C   UNL     1     -39.555  51.764 -51.701  1.00  0.00     0.037 A 
HETATM   16  C   UNL     1     -39.806  51.228 -52.962  1.00  0.00     0.068 A 
HETATM   17  C   UNL     1     -40.500  51.994 -53.902  1.00  0.00     0.037 A 
HETATM   18  C   UNL     1     -40.956  53.277 -53.584  1.00  0.00     0.010 A 
BRANCH  16  19
HETATM   19  O   UNL     1     -39.426  49.989 -53.398  1.00  0.00    -0.356 OA
HETATM   20  C   UNL     1     -39.632  49.703 -54.776  1.00  0.00     0.210 C 
ENDBRANCH  16  19
ENDBRANCH  12  13
ENDBRANCH  11  12
ENDBRANCH   7  11
ENDBRANCH   1   5
BRANCH   2  21
HETATM   21  C   UNL     1     -44.252  57.356 -58.107  1.00  0.00     0.147 A 
HETATM   22  N   UNL     1     -43.572  57.010 -59.219  1.00  0.00    -0.169 NA
HETATM   23  N   UNL     1     -44.474  57.162 -60.208  1.00  0.00    -0.277 N 
HETATM   24  H   UNL     1     -44.189  56.935 -61.156  1.00  0.00     0.189 HD
HETATM   25  C   UNL     1     -45.713  57.575 -59.790  1.00  0.00     0.063 A 
HETATM   26  C   UNL     1     -45.585  57.722 -58.425  1.00  0.00     0.071 A 
BRANCH  25  27
HETATM   27  C   UNL     1     -46.872  57.744 -60.664  1.00  0.00    -0.008 A 
HETATM   28  C   UNL     1     -47.489  56.618 -61.222  1.00  0.00     0.016 A 
HETATM   29  C   UNL     1     -48.600  56.754 -62.060  1.00  0.00     0.037 A 
HETATM   30  C   UNL     1     -49.119  58.015 -62.352  1.00  0.00     0.068 A 
HETATM   31  C   UNL     1     -48.514  59.143 -61.798  1.00  0.00     0.037 A 
HETATM   32  C   UNL     1     -47.397  59.008 -60.959  1.00  0.00     0.016 A 
BRANCH  30  33
HETATM   33  O   UNL     1     -50.205  58.004 -63.181  1.00  0.00    -0.356 OA
HETATM   34  C   UNL     1     -51.144  59.061 -63.032  1.00  0.00     0.210 C 
ENDBRANCH  30  33
ENDBRANCH  25  27
ENDBRANCH   2  21
TORSDOF 8
ENDMDL
MODEL 4
REMARK VINA RESULT:      -8.0      1.264      1.844
REMARK  8 active torsions:
REMARK  status: ('A' for Active; 'I' for Inactive)
REMARK    1  A    between atoms: O_2  and  C_3 
REMARK    2  A    between atoms: C_6  and  C_7 
REMARK    3  A    between atoms: C_7  and  C_8 
REMARK    4  A    between atoms: C_8  and  C_9 
REMARK    5  A    between atoms: C_11  and  N_12 
REMARK       I    between atoms: N_12  and  C_13 
REMARK    6  A    between atoms: C_13  and  C_14 
REMARK    7  A    between atoms: C_18  and  C_19 
REMARK    8  A    between atoms: C_22  and  O_23 
ROOT
HETATM    1  N   UNL     1     -44.493  59.465 -50.132  1.00  0.00    -0.149 N 
HETATM    2  C   UNL     1     -45.533  60.300 -49.812  1.00  0.00     0.290 C 
HETATM    3  O   UNL     1     -46.348  60.802 -50.578  1.00  0.00    -0.265 OA
HETATM    4  H   UNL     1     -43.893  59.144 -49.386  1.00  0.00     0.188 HD
ENDROOT
BRANCH   1   5
HETATM    5  C   UNL     1     -44.182  59.054 -51.392  1.00  0.00     0.747 A 
HETATM    6  N   UNL     1     -44.433  57.753 -51.747  1.00  0.00    -0.046 NA
HETATM    7  C   UNL     1     -44.024  57.685 -52.997  1.00  0.00     0.140 A 
HETATM    8  N   UNL     1     -43.559  58.914 -53.368  1.00  0.00    -0.248 N 
HETATM    9  N   UNL     1     -43.637  59.786 -52.363  1.00  0.00     0.020 NA
HETATM   10  H   UNL     1     -43.176  59.217 -54.257  1.00  0.00     0.191 HD
BRANCH   7  11
HETATM   11  C   UNL     1     -44.047  56.528 -53.931  1.00  0.00     0.085 C 
BRANCH  11  12
HETATM   12  C   UNL     1     -42.745  56.422 -54.731  1.00  0.00     0.046 C 
BRANCH  12  13
HETATM   13  C   UNL     1     -41.943  55.200 -54.354  1.00  0.00    -0.058 A 
HETATM   14  C   UNL     1     -42.190  54.540 -53.143  1.00  0.00     0.010 A 
HETATM   15  C   UNL     1     -41.457  53.403 -52.784  1.00  0.00     0.037 A 
HETATM   16  C   UNL     1     -40.469  52.910 -53.633  1.00  0.00     0.068 A 
HETATM   17  C   UNL     1     -40.209  53.576 -54.833  1.00  0.00     0.037 A 
HETATM   18  C   UNL     1     -40.937  54.713 -55.195  1.00  0.00     0.010 A 
BRANCH  16  19
HETATM   19  O   UNL     1     -39.693  51.807 -53.407  1.00  0.00    -0.356 OA
HETATM   20  C   UNL     1     -39.362  51.524 -52.053  1.00  0.00     0.210 C 
ENDBRANCH  16  19
ENDBRANCH  12  13
ENDBRANCH  11  12
ENDBRANCH   7  11
ENDBRANCH   1   5
BRANCH   2  21
HETATM   21  C   UNL     1     -45.589  60.594 -48.368  1.00  0.00     0.147 A 
HETATM   22  N   UNL     1     -46.228  59.808 -47.479  1.00  0.00    -0.169 NA
HETATM   23  N   UNL     1     -46.016  60.421 -46.297  1.00  0.00    -0.277 N 
HETATM   24  H   UNL     1     -46.395  59.991 -45.459  1.00  0.00     0.189 HD
HETATM   25  C   UNL     1     -45.254  61.558 -46.375  1.00  0.00     0.063 A 
HETATM   26  C   UNL     1     -44.978  61.697 -47.719  1.00  0.00     0.071 A 
BRANCH  25  27
HETATM   27  C   UNL     1     -44.831  62.356 -45.226  1.00  0.00    -0.008 A 
HETATM   28  C   UNL     1     -44.171  61.737 -44.158  1.00  0.00     0.016 A 
HETATM   29  C   UNL     1     -43.756  62.479 -43.049  1.00  0.00     0.037 A 
HETATM   30  C   UNL     1     -43.986  63.853 -42.986  1.00  0.00     0.068 A 
HETATM   31  C   UNL     1     -44.639  64.480 -44.047  1.00  0.00     0.037 A 
HETATM   32  C   UNL     1     -45.059  63.736 -45.160  1.00  0.00     0.016 A 
BRANCH  30  33
HETATM   33  O   UNL     1     -43.527  64.454 -41.848  1.00  0.00    -0.356 OA
HETATM   34  C   UNL     1     -43.924  63.881 -40.609  1.00  0.00     0.210 C 
ENDBRANCH  30  33
ENDBRANCH  25  27
ENDBRANCH   2  21
TORSDOF 8
ENDMDL
MODEL 5
REMARK VINA RESULT:      -7.9      2.134     11.768
REMARK  8 active torsions:
REMARK  status: ('A' for Active; 'I' for Inactive)
REMARK    1  A    between atoms: O_2  and  C_3 
REMARK    2  A    between atoms: C_6  and  C_7 
REMARK    3  A    between atoms: C_7  and  C_8 
REMARK    4  A    between atoms: C_8  and  C_9 
REMARK    5  A    between atoms: C_11  and  N_12 
REMARK       I    between atoms: N_12  and  C_13 
REMARK    6  A    between atoms: C_13  and  C_14 
REMARK    7  A    between atoms: C_18  and  C_19 
REMARK    8  A    between atoms: C_22  and  O_23 
ROOT
HETATM    1  N   UNL     1     -42.747  58.948 -52.872  1.00  0.00    -0.149 N 
HETATM    2  C   UNL     1     -41.479  58.642 -53.294  1.00  0.00     0.290 C 
HETATM    3  O   UNL     1     -40.513  59.396 -53.358  1.00  0.00    -0.265 OA
HETATM    4  H   UNL     1     -43.445  58.218 -52.891  1.00  0.00     0.188 HD
ENDROOT
BRANCH   1   5
HETATM    5  C   UNL     1     -43.155  60.178 -52.455  1.00  0.00     0.747 A 
HETATM    6  N   UNL     1     -43.475  60.358 -51.132  1.00  0.00    -0.046 NA
HETATM    7  C   UNL     1     -43.823  61.627 -51.065  1.00  0.00     0.140 A 
HETATM    8  N   UNL     1     -43.700  62.177 -52.308  1.00  0.00    -0.248 N 
HETATM    9  N   UNL     1     -43.293  61.273 -53.200  1.00  0.00     0.020 NA
HETATM   10  H   UNL     1     -43.879  63.127 -52.613  1.00  0.00     0.191 HD
BRANCH   7  11
HETATM   11  C   UNL     1     -44.264  62.417 -49.885  1.00  0.00     0.085 C 
BRANCH  11  12
HETATM   12  C   UNL     1     -45.169  61.595 -48.961  1.00  0.00     0.046 C 
BRANCH  12  13
HETATM   13  C   UNL     1     -45.047  62.021 -47.518  1.00  0.00    -0.058 A 
HETATM   14  C   UNL     1     -44.857  61.062 -46.513  1.00  0.00     0.010 A 
HETATM   15  C   UNL     1     -44.737  61.443 -45.172  1.00  0.00     0.037 A 
HETATM   16  C   UNL     1     -44.802  62.788 -44.819  1.00  0.00     0.068 A 
HETATM   17  C   UNL     1     -45.008  63.746 -45.816  1.00  0.00     0.037 A 
HETATM   18  C   UNL     1     -45.130  63.369 -47.156  1.00  0.00     0.010 A 
BRANCH  16  19
HETATM   19  O   UNL     1     -44.688  63.292 -43.552  1.00  0.00    -0.356 OA
HETATM   20  C   UNL     1     -43.609  62.806 -42.764  1.00  0.00     0.210 C 
ENDBRANCH  16  19
ENDBRANCH  12  13
ENDBRANCH  11  12
ENDBRANCH   7  11
ENDBRANCH   1   5
BRANCH   2  21
HETATM   21  C   UNL     1     -41.357  57.236 -53.721  1.00  0.00     0.147 A 
HETATM   22  N   UNL     1     -41.587  56.826 -54.984  1.00  0.00    -0.169 NA
HETATM   23  N   UNL     1     -41.345  55.500 -54.940  1.00  0.00    -0.277 N 
HETATM   24  H   UNL     1     -41.436  54.968 -55.799  1.00  0.00     0.189 HD
HETATM   25  C   UNL     1     -40.953  55.033 -53.712  1.00  0.00     0.063 A 
HETATM   26  C   UNL     1     -40.969  56.147 -52.899  1.00  0.00     0.071 A 
BRANCH  25  27
HETATM   27  C   UNL     1     -40.570  53.652 -53.431  1.00  0.00    -0.008 A 
HETATM   28  C   UNL     1     -40.269  53.269 -52.118  1.00  0.00     0.016 A 
HETATM   29  C   UNL     1     -39.902  51.954 -51.824  1.00  0.00     0.037 A 
HETATM   30  C   UNL     1     -39.831  50.993 -52.832  1.00  0.00     0.068 A 
HETATM   31  C   UNL     1     -40.133  51.362 -54.143  1.00  0.00     0.037 A 
HETATM   32  C   UNL     1     -40.499  52.684 -54.440  1.00  0.00     0.016 A 
BRANCH  30  33
HETATM   33  O   UNL     1     -39.462  49.748 -52.406  1.00  0.00    -0.356 OA
HETATM   34  C   UNL     1     -39.549  49.490 -51.011  1.00  0.00     0.210 C 
ENDBRANCH  30  33
ENDBRANCH  25  27
ENDBRANCH   2  21
TORSDOF 8
ENDMDL
MODEL 6
REMARK VINA RESULT:      -7.8      1.670      2.671
REMARK  8 active torsions:
REMARK  status: ('A' for Active; 'I' for Inactive)
REMARK    1  A    between atoms: O_2  and  C_3 
REMARK    2  A    between atoms: C_6  and  C_7 
REMARK    3  A    between atoms: C_7  and  C_8 
REMARK    4  A    between atoms: C_8  and  C_9 
REMARK    5  A    between atoms: C_11  and  N_12 
REMARK       I    between atoms: N_12  and  C_13 
REMARK    6  A    between atoms: C_13  and  C_14 
REMARK    7  A    between atoms: C_18  and  C_19 
REMARK    8  A    between atoms: C_22  and  O_23 
ROOT
HETATM    1  N   UNL     1     -43.792  58.499 -51.046  1.00  0.00    -0.149 N 
HETATM    2  C   UNL     1     -44.604  59.499 -51.518  1.00  0.00     0.290 C 
HETATM    3  O   UNL     1     -45.315  59.472 -52.517  1.00  0.00    -0.265 OA
HETATM    4  H   UNL     1     -43.252  58.679 -50.213  1.00  0.00     0.188 HD
ENDROOT
BRANCH   1   5
HETATM    5  C   UNL     1     -43.630  57.283 -51.635  1.00  0.00     0.747 A 
HETATM    6  N   UNL     1     -42.995  57.213 -52.850  1.00  0.00    -0.046 NA
HETATM    7  C   UNL     1     -43.006  55.927 -53.134  1.00  0.00     0.140 A 
HETATM    8  N   UNL     1     -43.618  55.262 -52.112  1.00  0.00    -0.248 N 
HETATM    9  N   UNL     1     -44.031  56.103 -51.164  1.00  0.00     0.020 NA
HETATM   10  H   UNL     1     -43.792  54.268 -52.001  1.00  0.00     0.191 HD
BRANCH   7  11
HETATM   11  C   UNL     1     -42.451  55.224 -54.322  1.00  0.00     0.085 C 
BRANCH  11  12
HETATM   12  C   UNL     1     -40.929  55.074 -54.230  1.00  0.00     0.046 C 
BRANCH  12  13
HETATM   13  C   UNL     1     -40.522  53.739 -53.656  1.00  0.00    -0.058 A 
HETATM   14  C   UNL     1     -40.359  53.586 -52.272  1.00  0.00     0.010 A 
HETATM   15  C   UNL     1     -39.987  52.353 -51.726  1.00  0.00     0.037 A 
HETATM   16  C   UNL     1     -39.776  51.255 -52.556  1.00  0.00     0.068 A 
HETATM   17  C   UNL     1     -39.922  51.408 -53.938  1.00  0.00     0.037 A 
HETATM   18  C   UNL     1     -40.291  52.639 -54.487  1.00  0.00     0.010 A 
BRANCH  16  19
HETATM   19  O   UNL     1     -39.423  49.997 -52.151  1.00  0.00    -0.356 OA
HETATM   20  C   UNL     1     -39.557  49.710 -50.765  1.00  0.00     0.210 C 
ENDBRANCH  16  19
ENDBRANCH  12  13
ENDBRANCH  11  12
ENDBRANCH   7  11
ENDBRANCH   1   5
BRANCH   2  21
HETATM   21  C   UNL     1     -44.537  60.713 -50.684  1.00  0.00     0.147 A 
HETATM   22  N   UNL     1     -44.255  61.934 -51.180  1.00  0.00    -0.169 NA
HETATM   23  N   UNL     1     -44.316  62.741 -50.102  1.00  0.00    -0.277 N 
HETATM   24  H   UNL     1     -44.155  63.734 -50.237  1.00  0.00     0.189 HD
HETATM   25  C   UNL     1     -44.640  62.104 -48.932  1.00  0.00     0.063 A 
HETATM   26  C   UNL     1     -44.774  60.778 -49.288  1.00  0.00     0.071 A 
BRANCH  25  27
HETATM   27  C   UNL     1     -44.834  62.772 -47.647  1.00  0.00    -0.008 A 
HETATM   28  C   UNL     1     -45.079  62.009 -46.499  1.00  0.00     0.016 A 
HETATM   29  C   UNL     1     -45.267  62.625 -45.259  1.00  0.00     0.037 A 
HETATM   30  C   UNL     1     -45.208  64.013 -45.139  1.00  0.00     0.068 A 
HETATM   31  C   UNL     1     -44.960  64.782 -46.275  1.00  0.00     0.037 A 
HETATM   32  C   UNL     1     -44.775  64.166 -47.522  1.00  0.00     0.016 A 
BRANCH  30  33
HETATM   33  O   UNL     1     -45.406  64.482 -43.871  1.00  0.00    -0.356 OA
HETATM   34  C   UNL     1     -44.313  64.386 -42.967  1.00  0.00     0.210 C 
ENDBRANCH  30  33
ENDBRANCH  25  27
ENDBRANCH   2  21
TORSDOF 8
ENDMDL
MODEL 7
REMARK VINA RESULT:      -7.8      1.769      2.600
REMARK  8 active torsions:
REMARK  status: ('A' for Active; 'I' for Inactive)
REMARK    1  A    between atoms: O_2  and  C_3 
REMARK    2  A    between atoms: C_6  and  C_7 
REMARK    3  A    between atoms: C_7  and  C_8 
REMARK    4  A    between atoms: C_8  and  C_9 
REMARK    5  A    between atoms: C_11  and  N_12 
REMARK       I    between atoms: N_12  and  C_13 
REMARK    6  A    between atoms: C_13  and  C_14 
REMARK    7  A    between atoms: C_18  and  C_19 
REMARK    8  A    between atoms: C_22  and  O_23 
ROOT
HETATM    1  N   UNL     1     -44.295  58.588 -52.116  1.00  0.00    -0.149 N 
HETATM    2  C   UNL     1     -45.072  59.652 -52.497  1.00  0.00     0.290 C 
HETATM    3  O   UNL     1     -45.448  59.931 -53.631  1.00  0.00    -0.265 OA
HETATM    4  H   UNL     1     -44.054  58.501 -51.139  1.00  0.00     0.188 HD
ENDROOT
BRANCH   1   5
HETATM    5  C   UNL     1     -43.789  57.649 -52.961  1.00  0.00     0.747 A 
HETATM    6  N   UNL     1     -42.428  57.497 -53.047  1.00  0.00    -0.046 NA
HETATM    7  C   UNL     1     -42.277  56.534 -53.932  1.00  0.00     0.140 A 
HETATM    8  N   UNL     1     -43.512  56.124 -54.343  1.00  0.00    -0.248 N 
HETATM    9  N   UNL     1     -44.478  56.827 -53.751  1.00  0.00     0.020 NA
HETATM   10  H   UNL     1     -43.763  55.401 -55.009  1.00  0.00     0.191 HD
BRANCH   7  11
HETATM   11  C   UNL     1     -41.023  55.915 -54.440  1.00  0.00     0.085 C 
BRANCH  11  12
HETATM   12  C   UNL     1     -41.257  54.479 -54.922  1.00  0.00     0.046 C 
BRANCH  12  13
HETATM   13  C   UNL     1     -40.694  53.457 -53.964  1.00  0.00    -0.058 A 
HETATM   14  C   UNL     1     -40.291  52.199 -54.431  1.00  0.00     0.010 A 
HETATM   15  C   UNL     1     -39.763  51.245 -53.555  1.00  0.00     0.037 A 
HETATM   16  C   UNL     1     -39.629  51.537 -52.200  1.00  0.00     0.068 A 
HETATM   17  C   UNL     1     -40.046  52.785 -51.728  1.00  0.00     0.037 A 
HETATM   18  C   UNL     1     -40.576  53.740 -52.600  1.00  0.00     0.010 A 
BRANCH  16  19
HETATM   19  O   UNL     1     -39.119  50.701 -51.245  1.00  0.00    -0.356 OA
HETATM   20  C   UNL     1     -39.843  49.504 -50.990  1.00  0.00     0.210 C 
ENDBRANCH  16  19
ENDBRANCH  12  13
ENDBRANCH  11  12
ENDBRANCH   7  11
ENDBRANCH   1   5
BRANCH   2  21
HETATM   21  C   UNL     1     -45.432  60.517 -51.359  1.00  0.00     0.147 A 
HETATM   22  N   UNL     1     -46.452  61.398 -51.394  1.00  0.00    -0.169 NA
HETATM   23  N   UNL     1     -46.441  61.951 -50.164  1.00  0.00    -0.277 N 
HETATM   24  H   UNL     1     -47.149  62.645 -49.945  1.00  0.00     0.189 HD
HETATM   25  C   UNL     1     -45.473  61.459 -49.327  1.00  0.00     0.063 A 
HETATM   26  C   UNL     1     -44.794  60.534 -50.092  1.00  0.00     0.071 A 
BRANCH  25  27
HETATM   27  C   UNL     1     -45.305  61.850 -47.930  1.00  0.00    -0.008 A 
HETATM   28  C   UNL     1     -45.317  63.207 -47.583  1.00  0.00     0.016 A 
HETATM   29  C   UNL     1     -45.160  63.605 -46.253  1.00  0.00     0.037 A 
HETATM   30  C   UNL     1     -44.993  62.659 -45.242  1.00  0.00     0.068 A 
HETATM   31  C   UNL     1     -44.984  61.305 -45.576  1.00  0.00     0.037 A 
HETATM   32  C   UNL     1     -45.138  60.903 -46.912  1.00  0.00     0.016 A 
BRANCH  30  33
HETATM   33  O   UNL     1     -44.853  63.185 -43.989  1.00  0.00    -0.356 OA
HETATM   34  C   UNL     1     -43.853  62.613 -43.155  1.00  0.00     0.210 C 
ENDBRANCH  30  33
ENDBRANCH  25  27
ENDBRANCH   2  21
TORSDOF 8
ENDMDL
MODEL 8
REMARK VINA RESULT:      -7.7      6.888     10.360
REMARK  8 active torsions:
REMARK  status: ('A' for Active; 'I' for Inactive)
REMARK    1  A    between atoms: O_2  and  C_3 
REMARK    2  A    between atoms: C_6  and  C_7 
REMARK    3  A    between atoms: C_7  and  C_8 
REMARK    4  A    between atoms: C_8  and  C_9 
REMARK    5  A    between atoms: C_11  and  N_12 
REMARK       I    between atoms: N_12  and  C_13 
REMARK    6  A    between atoms: C_13  and  C_14 
REMARK    7  A    between atoms: C_18  and  C_19 
REMARK    8  A    between atoms: C_22  and  O_23 
ROOT
HETATM    1  N   UNL     1     -42.418  58.958 -54.947  1.00  0.00    -0.149 N 
HETATM    2  C   UNL     1     -41.810  59.017 -53.719  1.00  0.00     0.290 C 
HETATM    3  O   UNL     1     -41.277  59.992 -53.198  1.00  0.00    -0.265 OA
HETATM    4  H   UNL     1     -42.800  58.073 -55.247  1.00  0.00     0.188 HD
ENDROOT
BRANCH   1   5
HETATM    5  C   UNL     1     -42.522  60.000 -55.817  1.00  0.00     0.747 A 
HETATM    6  N   UNL     1     -41.736  60.005 -56.942  1.00  0.00    -0.046 NA
HETATM    7  C   UNL     1     -42.071  61.123 -57.552  1.00  0.00     0.140 A 
HETATM    8  N   UNL     1     -43.033  61.749 -56.814  1.00  0.00    -0.248 N 
HETATM    9  N   UNL     1     -43.319  61.061 -55.708  1.00  0.00     0.020 NA
HETATM   10  H   UNL     1     -43.516  62.623 -56.992  1.00  0.00     0.191 HD
BRANCH   7  11
HETATM   11  C   UNL     1     -41.565  61.679 -58.835  1.00  0.00     0.085 C 
BRANCH  11  12
HETATM   12  C   UNL     1     -42.547  61.428 -59.985  1.00  0.00     0.046 C 
BRANCH  12  13
HETATM   13  C   UNL     1     -42.880  59.965 -60.141  1.00  0.00    -0.058 A 
HETATM   14  C   UNL     1     -44.212  59.534 -60.082  1.00  0.00     0.010 A 
HETATM   15  C   UNL     1     -44.536  58.181 -60.230  1.00  0.00     0.037 A 
HETATM   16  C   UNL     1     -43.531  57.241 -60.441  1.00  0.00     0.068 A 
HETATM   17  C   UNL     1     -42.200  57.664 -60.483  1.00  0.00     0.037 A 
HETATM   18  C   UNL     1     -41.873  59.015 -60.334  1.00  0.00     0.010 A 
BRANCH  16  19
HETATM   19  O   UNL     1     -43.713  55.896 -60.612  1.00  0.00    -0.356 OA
HETATM   20  C   UNL     1     -45.046  55.412 -60.512  1.00  0.00     0.210 C 
ENDBRANCH  16  19
ENDBRANCH  12  13
ENDBRANCH  11  12
ENDBRANCH   7  11
ENDBRANCH   1   5
BRANCH   2  21
HETATM   21  C   UNL     1     -41.823  57.716 -53.026  1.00  0.00     0.147 A 
HETATM   22  N   UNL     1     -42.724  57.393 -52.077  1.00  0.00    -0.169 NA
HETATM   23  N   UNL     1     -42.393  56.133 -51.734  1.00  0.00    -0.277 N 
HETATM   24  H   UNL     1     -42.957  55.662 -51.034  1.00  0.00     0.189 HD
HETATM   25  C   UNL     1     -41.329  55.615 -52.428  1.00  0.00     0.063 A 
HETATM   26  C   UNL     1     -40.933  56.638 -53.265  1.00  0.00     0.071 A 
BRANCH  25  27
HETATM   27  C   UNL     1     -40.827  54.251 -52.284  1.00  0.00    -0.008 A 
HETATM   28  C   UNL     1     -40.594  53.729 -51.006  1.00  0.00     0.016 A 
HETATM   29  C   UNL     1     -40.115  52.427 -50.843  1.00  0.00     0.037 A 
HETATM   30  C   UNL     1     -39.864  51.618 -51.950  1.00  0.00     0.068 A 
HETATM   31  C   UNL     1     -40.097  52.126 -53.228  1.00  0.00     0.037 A 
HETATM   32  C   UNL     1     -40.575  53.435 -53.394  1.00  0.00     0.016 A 
BRANCH  30  33
HETATM   33  O   UNL     1     -39.401  50.368 -51.648  1.00  0.00    -0.356 OA
HETATM   34  C   UNL     1     -39.582  49.356 -52.630  1.00  0.00     0.210 C 
ENDBRANCH  30  33
ENDBRANCH  25  27
ENDBRANCH   2  21
TORSDOF 8
ENDMDL
MODEL 9
REMARK VINA RESULT:      -7.7      2.798      3.983
REMARK  8 active torsions:
REMARK  status: ('A' for Active; 'I' for Inactive)
REMARK    1  A    between atoms: O_2  and  C_3 
REMARK    2  A    between atoms: C_6  and  C_7 
REMARK    3  A    between atoms: C_7  and  C_8 
REMARK    4  A    between atoms: C_8  and  C_9 
REMARK    5  A    between atoms: C_11  and  N_12 
REMARK       I    between atoms: N_12  and  C_13 
REMARK    6  A    between atoms: C_13  and  C_14 
REMARK    7  A    between atoms: C_18  and  C_19 
REMARK    8  A    between atoms: C_22  and  O_23 
ROOT
HETATM    1  N   UNL     1     -43.522  57.863 -52.860  1.00  0.00    -0.149 N 
HETATM    2  C   UNL     1     -42.741  58.986 -52.773  1.00  0.00     0.290 C 
HETATM    3  O   UNL     1     -41.909  59.380 -53.584  1.00  0.00    -0.265 OA
HETATM    4  H   UNL     1     -44.154  57.662 -52.099  1.00  0.00     0.188 HD
ENDROOT
BRANCH   1   5
HETATM    5  C   UNL     1     -43.492  56.969 -53.887  1.00  0.00     0.747 A 
HETATM    6  N   UNL     1     -42.714  55.845 -53.765  1.00  0.00    -0.046 NA
HETATM    7  C   UNL     1     -42.903  55.210 -54.904  1.00  0.00     0.140 A 
HETATM    8  N   UNL     1     -43.774  55.934 -55.665  1.00  0.00    -0.248 N 
HETATM    9  N   UNL     1     -44.145  57.054 -55.045  1.00  0.00     0.020 NA
HETATM   10  H   UNL     1     -44.140  55.736 -56.590  1.00  0.00     0.191 HD
BRANCH   7  11
HETATM   11  C   UNL     1     -42.332  53.915 -55.361  1.00  0.00     0.085 C 
BRANCH  11  12
HETATM   12  C   UNL     1     -40.808  53.882 -55.202  1.00  0.00     0.046 C 
BRANCH  12  13
HETATM   13  C   UNL     1     -40.368  52.911 -54.133  1.00  0.00    -0.058 A 
HETATM   14  C   UNL     1     -40.059  51.586 -54.469  1.00  0.00     0.010 A 
HETATM   15  C   UNL     1     -39.644  50.677 -53.490  1.00  0.00     0.037 A 
HETATM   16  C   UNL     1     -39.530  51.082 -52.162  1.00  0.00     0.068 A 
HETATM   17  C   UNL     1     -39.853  52.398 -51.822  1.00  0.00     0.037 A 
HETATM   18  C   UNL     1     -40.270  53.309 -52.797  1.00  0.00     0.010 A 
BRANCH  16  19
HETATM   19  O   UNL     1     -39.127  50.300 -51.115  1.00  0.00    -0.356 OA
HETATM   20  C   UNL     1     -40.141  49.839 -50.231  1.00  0.00     0.210 C 
ENDBRANCH  16  19
ENDBRANCH  12  13
ENDBRANCH  11  12
ENDBRANCH   7  11
ENDBRANCH   1   5
BRANCH   2  21
HETATM   21  C   UNL     1     -42.974  59.733 -51.523  1.00  0.00     0.147 A 
HETATM   22  N   UNL     1     -41.989  60.063 -50.665  1.00  0.00    -0.169 NA
HETATM   23  N   UNL     1     -42.625  60.742 -49.690  1.00  0.00    -0.277 N 
HETATM   24  H   UNL     1     -42.071  61.116 -48.926  1.00  0.00     0.189 HD
HETATM   25  C   UNL     1     -43.975  60.883 -49.883  1.00  0.00     0.063 A 
HETATM   26  C   UNL     1     -44.226  60.219 -51.065  1.00  0.00     0.071 A 
BRANCH  25  27
HETATM   27  C   UNL     1     -44.867  61.635 -49.003  1.00  0.00    -0.008 A 
HETATM   28  C   UNL     1     -45.486  62.799 -49.475  1.00  0.00     0.016 A 
HETATM   29  C   UNL     1     -46.344  63.535 -48.653  1.00  0.00     0.037 A 
HETATM   30  C   UNL     1     -46.605  63.122 -47.347  1.00  0.00     0.068 A 
HETATM   31  C   UNL     1     -45.997  61.961 -46.869  1.00  0.00     0.037 A 
HETATM   32  C   UNL     1     -45.132  61.223 -47.692  1.00  0.00     0.016 A 
BRANCH  30  33
HETATM   33  O   UNL     1     -47.462  63.931 -46.656  1.00  0.00    -0.356 OA
HETATM   34  C   UNL     1     -47.375  63.903 -45.237  1.00  0.00     0.210 C 
ENDBRANCH  30  33
ENDBRANCH  25  27
ENDBRANCH   2  21
TORSDOF 8
ENDMDL
MODEL 10
REMARK VINA RESULT:      -7.5      6.697     11.369
REMARK  8 active torsions:
REMARK  status: ('A' for Active; 'I' for Inactive)
REMARK    1  A    between atoms: O_2  and  C_3 
REMARK    2  A    between atoms: C_6  and  C_7 
REMARK    3  A    between atoms: C_7  and  C_8 
REMARK    4  A    between atoms: C_8  and  C_9 
REMARK    5  A    between atoms: C_11  and  N_12 
REMARK       I    between atoms: N_12  and  C_13 
REMARK    6  A    between atoms: C_13  and  C_14 
REMARK    7  A    between atoms: C_18  and  C_19 
REMARK    8  A    between atoms: C_22  and  O_23 
ROOT
HETATM    1  N   UNL     1     -42.749  57.838 -55.783  1.00  0.00    -0.149 N 
HETATM    2  C   UNL     1     -42.534  56.648 -56.429  1.00  0.00     0.290 C 
HETATM    3  O   UNL     1     -41.807  55.727 -56.071  1.00  0.00    -0.265 OA
HETATM    4  H   UNL     1     -43.368  58.509 -56.215  1.00  0.00     0.188 HD
ENDROOT
BRANCH   1   5
HETATM    5  C   UNL     1     -42.163  58.207 -54.611  1.00  0.00     0.747 A 
HETATM    6  N   UNL     1     -42.460  57.503 -53.471  1.00  0.00    -0.046 NA
HETATM    7  C   UNL     1     -41.748  58.103 -52.539  1.00  0.00     0.140 A 
HETATM    8  N   UNL     1     -41.046  59.120 -53.118  1.00  0.00    -0.248 N 
HETATM    9  N   UNL     1     -41.307  59.210 -54.422  1.00  0.00     0.020 NA
HETATM   10  H   UNL     1     -40.399  59.778 -52.696  1.00  0.00     0.191 HD
BRANCH   7  11
HETATM   11  C   UNL     1     -41.642  57.785 -51.090  1.00  0.00     0.085 C 
BRANCH  11  12
HETATM   12  C   UNL     1     -42.397  56.499 -50.737  1.00  0.00     0.046 C 
BRANCH  12  13
HETATM   13  C   UNL     1     -41.558  55.265 -50.964  1.00  0.00    -0.058 A 
HETATM   14  C   UNL     1     -40.528  54.938 -50.072  1.00  0.00     0.010 A 
HETATM   15  C   UNL     1     -39.746  53.795 -50.266  1.00  0.00     0.037 A 
HETATM   16  C   UNL     1     -39.985  52.961 -51.356  1.00  0.00     0.068 A 
HETATM   17  C   UNL     1     -41.000  53.293 -52.257  1.00  0.00     0.037 A 
HETATM   18  C   UNL     1     -41.782  54.436 -52.067  1.00  0.00     0.010 A 
BRANCH  16  19
HETATM   19  O   UNL     1     -39.305  51.813 -51.654  1.00  0.00    -0.356 OA
HETATM   20  C   UNL     1     -39.482  51.284 -52.962  1.00  0.00     0.210 C 
ENDBRANCH  16  19
ENDBRANCH  12  13
ENDBRANCH  11  12
ENDBRANCH   7  11
ENDBRANCH   1   5
BRANCH   2  21
HETATM   21  C   UNL     1     -43.280  56.558 -57.697  1.00  0.00     0.147 A 
HETATM   22  N   UNL     1     -42.949  55.707 -58.690  1.00  0.00    -0.169 NA
HETATM   23  N   UNL     1     -43.885  55.935 -59.633  1.00  0.00    -0.277 N 
HETATM   24  H   UNL     1     -43.851  55.383 -60.484  1.00  0.00     0.189 HD
HETATM   25  C   UNL     1     -44.818  56.880 -59.293  1.00  0.00     0.063 A 
HETATM   26  C   UNL     1     -44.432  57.310 -58.040  1.00  0.00     0.071 A 
BRANCH  25  27
HETATM   27  C   UNL     1     -45.966  57.250 -60.117  1.00  0.00    -0.008 A 
HETATM   28  C   UNL     1     -46.283  58.602 -60.299  1.00  0.00     0.016 A 
HETATM   29  C   UNL     1     -47.375  58.980 -61.083  1.00  0.00     0.037 A 
HETATM   30  C   UNL     1     -48.170  58.019 -61.706  1.00  0.00     0.068 A 
HETATM   31  C   UNL     1     -47.861  56.669 -61.536  1.00  0.00     0.037 A 
HETATM   32  C   UNL     1     -46.766  56.287 -60.745  1.00  0.00     0.016 A 
BRANCH  30  33
HETATM   33  O   UNL     1     -49.202  58.526 -62.444  1.00  0.00    -0.356 OA
HETATM   34  C   UNL     1     -49.357  59.939 -62.454  1.00  0.00     0.210 C 
ENDBRANCH  30  33
ENDBRANCH  25  27
ENDBRANCH   2  21
TORSDOF 8
ENDMDL
