MODEL 1
REMARK VINA RESULT:      -8.7      0.000      0.000
REMARK  5 active torsions:
REMARK  status: ('A' for Active; 'I' for Inactive)
REMARK    1  A    between atoms: C_6  and  O_7 
REMARK    2  A    between atoms: O_7  and  C_8 
REMARK    3  A    between atoms: C_8  and  C_9 
REMARK    4  A    between atoms: C_11  and  C_12 
REMARK       I    between atoms: C_12  and  N_13 
REMARK    5  A    between atoms: N_13  and  C_14 
ROOT
HETATM    1  C   UNL     1     -41.003  56.780 -51.293  1.00  0.00     0.078 A 
HETATM    2  O   UNL     1     -41.489  56.820 -52.564  1.00  0.00    -0.307 OA
HETATM    3  C   UNL     1     -41.439  58.119 -52.999  1.00  0.00     0.143 A 
HETATM    4  C   UNL     1     -40.926  58.909 -51.983  1.00  0.00     0.045 A 
HETATM    5  C   UNL     1     -40.648  58.048 -50.889  1.00  0.00     0.038 A 
ENDROOT
BRANCH   3   6
HETATM    6  C   UNL     1     -41.912  58.382 -54.350  1.00  0.00     0.279 C 
HETATM    7  N   UNL     1     -42.822  57.448 -54.836  1.00  0.00    -0.321 N 
HETATM    8  H   UNL     1     -43.068  56.691 -54.213  1.00  0.00     0.169 HD
HETATM    9  O   UNL     1     -41.523  59.349 -55.002  1.00  0.00    -0.265 OA
BRANCH   7  10
HETATM   10  C   UNL     1     -43.415  57.416 -56.118  1.00  0.00     0.035 A 
HETATM   11  C   UNL     1     -43.020  56.540 -57.133  1.00  0.00     0.039 A 
HETATM   12  C   UNL     1     -43.694  56.564 -58.345  1.00  0.00    -0.022 A 
HETATM   13  C   UNL     1     -44.753  57.442 -58.569  1.00  0.00    -0.025 A 
HETATM   14  C   UNL     1     -43.463  55.688 -59.527  1.00  0.00     0.274 C 
HETATM   15  C   UNL     1     -45.336  57.219 -59.923  1.00  0.00     0.273 C 
HETATM   16  C   UNL     1     -45.153  58.328 -57.586  1.00  0.00     0.012 A 
HETATM   17  N   UNL     1     -44.395  56.231 -60.606  1.00  0.00    -0.067 N 
HETATM   18  H   UNL     1     -43.805  56.785 -61.236  1.00  0.00     0.280 HD
HETATM   19  C   UNL     1     -45.082  55.176 -61.397  1.00  0.00     0.270 C 
HETATM   20  C   UNL     1     -44.475  58.313 -56.360  1.00  0.00     0.030 A 
ENDBRANCH   7  10
ENDBRANCH   3   6
BRANCH   1  21
HETATM   21  C   UNL     1     -40.959  55.446 -50.640  1.00  0.00     0.240 C 
BRANCH  21  22
HETATM   22  O   UNL     1     -41.746  54.579 -51.451  1.00  0.00    -0.344 OA
BRANCH  22  23
HETATM   23  C   UNL     1     -41.104  53.530 -52.058  1.00  0.00     0.075 A 
HETATM   24  C   UNL     1     -41.486  53.268 -53.384  1.00  0.00    -0.028 A 
HETATM   25  C   UNL     1     -40.898  52.193 -54.073  1.00  0.00     0.016 A 
HETATM   26  C   UNL     1     -42.556  54.076 -54.065  1.00  0.00     0.051 C 
HETATM   27  C   UNL     1     -39.930  51.388 -53.464  1.00  0.00    -0.061 A 
HETATM   28  C   UNL     1     -39.283  50.268 -54.222  1.00  0.00     0.048 C 
HETATM   29  C   UNL     1     -39.535  51.682 -52.157  1.00  0.00     0.009 A 
HETATM   30  C   UNL     1     -40.120  52.739 -51.456  1.00  0.00     0.038 A 
ENDBRANCH  22  23
ENDBRANCH  21  22
ENDBRANCH   1  21
TORSDOF 5
ENDMDL
MODEL 2
REMARK VINA RESULT:      -8.6      5.084      8.217
REMARK  5 active torsions:
REMARK  status: ('A' for Active; 'I' for Inactive)
REMARK    1  A    between atoms: C_6  and  O_7 
REMARK    2  A    between atoms: O_7  and  C_8 
REMARK    3  A    between atoms: C_8  and  C_9 
REMARK    4  A    between atoms: C_11  and  C_12 
REMARK       I    between atoms: C_12  and  N_13 
REMARK    5  A    between atoms: N_13  and  C_14 
ROOT
HETATM    1  C   UNL     1     -42.985  56.259 -51.807  1.00  0.00     0.078 A 
HETATM    2  O   UNL     1     -43.424  57.175 -50.901  1.00  0.00    -0.307 OA
HETATM    3  C   UNL     1     -44.380  57.949 -51.506  1.00  0.00     0.143 A 
HETATM    4  C   UNL     1     -44.534  57.522 -52.815  1.00  0.00     0.045 A 
HETATM    5  C   UNL     1     -43.638  56.438 -53.006  1.00  0.00     0.038 A 
ENDROOT
BRANCH   3   6
HETATM    6  C   UNL     1     -44.989  58.998 -50.700  1.00  0.00     0.279 C 
HETATM    7  N   UNL     1     -44.095  59.953 -50.223  1.00  0.00    -0.321 N 
HETATM    8  H   UNL     1     -43.126  59.833 -50.482  1.00  0.00     0.169 HD
HETATM    9  O   UNL     1     -46.193  59.020 -50.459  1.00  0.00    -0.265 OA
BRANCH   7  10
HETATM   10  C   UNL     1     -44.384  61.053 -49.386  1.00  0.00     0.035 A 
HETATM   11  C   UNL     1     -44.808  60.928 -48.060  1.00  0.00     0.039 A 
HETATM   12  C   UNL     1     -45.027  62.075 -47.311  1.00  0.00    -0.022 A 
HETATM   13  C   UNL     1     -44.835  63.344 -47.853  1.00  0.00    -0.025 A 
HETATM   14  C   UNL     1     -45.431  62.158 -45.880  1.00  0.00     0.274 C 
HETATM   15  C   UNL     1     -45.081  64.393 -46.823  1.00  0.00     0.273 C 
HETATM   16  C   UNL     1     -44.430  63.494 -49.167  1.00  0.00     0.012 A 
HETATM   17  N   UNL     1     -45.644  63.645 -45.618  1.00  0.00    -0.067 N 
HETATM   18  H   UNL     1     -46.658  63.793 -45.636  1.00  0.00     0.280 HD
HETATM   19  C   UNL     1     -45.115  64.108 -44.307  1.00  0.00     0.270 C 
HETATM   20  C   UNL     1     -44.209  62.341 -49.932  1.00  0.00     0.030 A 
ENDBRANCH   7  10
ENDBRANCH   3   6
BRANCH   1  21
HETATM   21  C   UNL     1     -41.947  55.304 -51.338  1.00  0.00     0.240 C 
BRANCH  21  22
HETATM   22  O   UNL     1     -41.006  55.185 -52.400  1.00  0.00    -0.344 OA
BRANCH  22  23
HETATM   23  C   UNL     1     -40.615  53.920 -52.755  1.00  0.00     0.075 A 
HETATM   24  C   UNL     1     -40.653  53.634 -54.130  1.00  0.00    -0.028 A 
HETATM   25  C   UNL     1     -40.295  52.351 -54.580  1.00  0.00     0.016 A 
HETATM   26  C   UNL     1     -41.129  54.653 -55.129  1.00  0.00     0.051 C 
HETATM   27  C   UNL     1     -39.889  51.358 -53.682  1.00  0.00    -0.061 A 
HETATM   28  C   UNL     1     -39.473  50.006 -54.177  1.00  0.00     0.048 C 
HETATM   29  C   UNL     1     -39.822  51.667 -52.322  1.00  0.00     0.009 A 
HETATM   30  C   UNL     1     -40.188  52.935 -51.860  1.00  0.00     0.038 A 
ENDBRANCH  22  23
ENDBRANCH  21  22
ENDBRANCH   1  21
TORSDOF 5
ENDMDL
MODEL 3
REMARK VINA RESULT:      -8.1      2.651      3.076
REMARK  5 active torsions:
REMARK  status: ('A' for Active; 'I' for Inactive)
REMARK    1  A    between atoms: C_6  and  O_7 
REMARK    2  A    between atoms: O_7  and  C_8 
REMARK    3  A    between atoms: C_8  and  C_9 
REMARK    4  A    between atoms: C_11  and  C_12 
REMARK       I    between atoms: C_12  and  N_13 
REMARK    5  A    between atoms: N_13  and  C_14 
ROOT
HETATM    1  C   UNL     1     -42.869  56.085 -51.611  1.00  0.00     0.078 A 
HETATM    2  O   UNL     1     -42.815  56.518 -52.901  1.00  0.00    -0.307 OA
HETATM    3  C   UNL     1     -43.891  57.339 -53.120  1.00  0.00     0.143 A 
HETATM    4  C   UNL     1     -44.638  57.413 -51.956  1.00  0.00     0.045 A 
HETATM    5  C   UNL     1     -43.981  56.607 -50.989  1.00  0.00     0.038 A 
ENDROOT
BRANCH   3   6
HETATM    6  C   UNL     1     -44.020  57.919 -54.449  1.00  0.00     0.279 C 
HETATM    7  N   UNL     1     -42.899  57.762 -55.260  1.00  0.00    -0.321 N 
HETATM    8  H   UNL     1     -42.117  57.265 -54.857  1.00  0.00     0.169 HD
HETATM    9  O   UNL     1     -45.037  58.505 -54.810  1.00  0.00    -0.265 OA
BRANCH   7  10
HETATM   10  C   UNL     1     -42.715  58.254 -56.571  1.00  0.00     0.035 A 
HETATM   11  C   UNL     1     -42.593  59.611 -56.880  1.00  0.00     0.039 A 
HETATM   12  C   UNL     1     -42.375  59.986 -58.198  1.00  0.00    -0.022 A 
HETATM   13  C   UNL     1     -42.279  59.039 -59.215  1.00  0.00    -0.025 A 
HETATM   14  C   UNL     1     -42.171  61.363 -58.726  1.00  0.00     0.274 C 
HETATM   15  C   UNL     1     -41.985  59.702 -60.518  1.00  0.00     0.273 C 
HETATM   16  C   UNL     1     -42.411  57.690 -58.937  1.00  0.00     0.012 A 
HETATM   17  N   UNL     1     -42.103  61.197 -60.240  1.00  0.00    -0.067 N 
HETATM   18  H   UNL     1     -43.020  61.485 -60.597  1.00  0.00     0.280 HD
HETATM   19  C   UNL     1     -41.054  62.027 -60.892  1.00  0.00     0.270 C 
HETATM   20  C   UNL     1     -42.634  57.303 -57.609  1.00  0.00     0.030 A 
ENDBRANCH   7  10
ENDBRANCH   3   6
BRANCH   1  21
HETATM   21  C   UNL     1     -41.771  55.187 -51.166  1.00  0.00     0.240 C 
BRANCH  21  22
HETATM   22  O   UNL     1     -40.877  55.073 -52.269  1.00  0.00    -0.344 OA
BRANCH  22  23
HETATM   23  C   UNL     1     -40.515  53.809 -52.657  1.00  0.00     0.075 A 
HETATM   24  C   UNL     1     -40.523  53.572 -54.042  1.00  0.00    -0.028 A 
HETATM   25  C   UNL     1     -40.191  52.294 -54.527  1.00  0.00     0.016 A 
HETATM   26  C   UNL     1     -40.938  54.639 -55.017  1.00  0.00     0.051 C 
HETATM   27  C   UNL     1     -39.841  51.259 -53.653  1.00  0.00    -0.061 A 
HETATM   28  C   UNL     1     -39.453  49.912 -54.185  1.00  0.00     0.048 C 
HETATM   29  C   UNL     1     -39.804  51.519 -52.282  1.00  0.00     0.009 A 
HETATM   30  C   UNL     1     -40.144  52.780 -51.786  1.00  0.00     0.038 A 
ENDBRANCH  22  23
ENDBRANCH  21  22
ENDBRANCH   1  21
TORSDOF 5
ENDMDL
MODEL 4
REMARK VINA RESULT:      -8.1      2.546      8.037
REMARK  5 active torsions:
REMARK  status: ('A' for Active; 'I' for Inactive)
REMARK    1  A    between atoms: C_6  and  O_7 
REMARK    2  A    between atoms: O_7  and  C_8 
REMARK    3  A    between atoms: C_8  and  C_9 
REMARK    4  A    between atoms: C_11  and  C_12 
REMARK       I    between atoms: C_12  and  N_13 
REMARK    5  A    between atoms: N_13  and  C_14 
ROOT
HETATM    1  C   UNL     1     -43.930  59.148 -55.962  1.00  0.00     0.078 A 
HETATM    2  O   UNL     1     -43.411  57.896 -55.831  1.00  0.00    -0.307 OA
HETATM    3  C   UNL     1     -43.896  57.353 -54.670  1.00  0.00     0.143 A 
HETATM    4  C   UNL     1     -44.720  58.281 -54.055  1.00  0.00     0.045 A 
HETATM    5  C   UNL     1     -44.740  59.432 -54.886  1.00  0.00     0.038 A 
ENDROOT
BRANCH   3   6
HETATM    6  C   UNL     1     -43.463  56.002 -54.341  1.00  0.00     0.279 C 
HETATM    7  N   UNL     1     -42.095  55.871 -54.120  1.00  0.00    -0.321 N 
HETATM    8  H   UNL     1     -41.542  56.713 -54.201  1.00  0.00     0.169 HD
HETATM    9  O   UNL     1     -44.251  55.061 -54.277  1.00  0.00    -0.265 OA
BRANCH   7  10
HETATM   10  C   UNL     1     -41.385  54.685 -53.830  1.00  0.00     0.035 A 
HETATM   11  C   UNL     1     -41.162  54.212 -52.534  1.00  0.00     0.039 A 
HETATM   12  C   UNL     1     -40.484  53.014 -52.360  1.00  0.00    -0.022 A 
HETATM   13  C   UNL     1     -40.022  52.277 -53.449  1.00  0.00    -0.025 A 
HETATM   14  C   UNL     1     -40.190  52.318 -51.077  1.00  0.00     0.274 C 
HETATM   15  C   UNL     1     -39.387  51.010 -52.988  1.00  0.00     0.273 C 
HETATM   16  C   UNL     1     -40.217  52.731 -54.741  1.00  0.00     0.012 A 
HETATM   17  N   UNL     1     -39.325  51.124 -51.468  1.00  0.00    -0.067 N 
HETATM   18  H   UNL     1     -38.361  51.386 -51.238  1.00  0.00     0.280 HD
HETATM   19  C   UNL     1     -39.666  49.870 -50.744  1.00  0.00     0.270 C 
HETATM   20  C   UNL     1     -40.897  53.942 -54.925  1.00  0.00     0.030 A 
ENDBRANCH   7  10
ENDBRANCH   3   6
BRANCH   1  21
HETATM   21  C   UNL     1     -43.535  59.907 -57.178  1.00  0.00     0.240 C 
BRANCH  21  22
HETATM   22  O   UNL     1     -44.613  59.772 -58.100  1.00  0.00    -0.344 OA
BRANCH  22  23
HETATM   23  C   UNL     1     -44.641  58.640 -58.872  1.00  0.00     0.075 A 
HETATM   24  C   UNL     1     -45.837  57.903 -58.830  1.00  0.00    -0.028 A 
HETATM   25  C   UNL     1     -45.942  56.712 -59.570  1.00  0.00     0.016 A 
HETATM   26  C   UNL     1     -46.987  58.327 -57.959  1.00  0.00     0.051 C 
HETATM   27  C   UNL     1     -44.880  56.257 -60.360  1.00  0.00    -0.061 A 
HETATM   28  C   UNL     1     -45.019  55.006 -61.175  1.00  0.00     0.048 C 
HETATM   29  C   UNL     1     -43.711  57.018 -60.420  1.00  0.00     0.009 A 
HETATM   30  C   UNL     1     -43.588  58.196 -59.679  1.00  0.00     0.038 A 
ENDBRANCH  22  23
ENDBRANCH  21  22
ENDBRANCH   1  21
TORSDOF 5
ENDMDL
MODEL 5
REMARK VINA RESULT:      -8.0      2.202      3.028
REMARK  5 active torsions:
REMARK  status: ('A' for Active; 'I' for Inactive)
REMARK    1  A    between atoms: C_6  and  O_7 
REMARK    2  A    between atoms: O_7  and  C_8 
REMARK    3  A    between atoms: C_8  and  C_9 
REMARK    4  A    between atoms: C_11  and  C_12 
REMARK       I    between atoms: C_12  and  N_13 
REMARK    5  A    between atoms: N_13  and  C_14 
ROOT
HETATM    1  C   UNL     1     -43.622  56.255 -52.708  1.00  0.00     0.078 A 
HETATM    2  O   UNL     1     -43.758  56.283 -54.063  1.00  0.00    -0.307 OA
HETATM    3  C   UNL     1     -44.185  57.535 -54.422  1.00  0.00     0.143 A 
HETATM    4  C   UNL     1     -44.333  58.301 -53.277  1.00  0.00     0.045 A 
HETATM    5  C   UNL     1     -43.971  57.477 -52.179  1.00  0.00     0.038 A 
ENDROOT
BRANCH   3   6
HETATM    6  C   UNL     1     -44.390  57.781 -55.843  1.00  0.00     0.279 C 
HETATM    7  N   UNL     1     -45.718  57.982 -56.209  1.00  0.00    -0.321 N 
HETATM    8  H   UNL     1     -46.401  57.944 -55.465  1.00  0.00     0.169 HD
HETATM    9  O   UNL     1     -43.459  57.797 -56.644  1.00  0.00    -0.265 OA
BRANCH   7  10
HETATM   10  C   UNL     1     -46.224  58.196 -57.510  1.00  0.00     0.035 A 
HETATM   11  C   UNL     1     -46.334  57.191 -58.474  1.00  0.00     0.039 A 
HETATM   12  C   UNL     1     -46.882  57.499 -59.711  1.00  0.00    -0.022 A 
HETATM   13  C   UNL     1     -47.322  58.787 -60.009  1.00  0.00    -0.025 A 
HETATM   14  C   UNL     1     -47.130  56.570 -60.848  1.00  0.00     0.274 C 
HETATM   15  C   UNL     1     -47.920  58.830 -61.374  1.00  0.00     0.273 C 
HETATM   16  C   UNL     1     -47.211  59.803 -59.077  1.00  0.00     0.012 A 
HETATM   17  N   UNL     1     -47.627  57.461 -61.981  1.00  0.00    -0.067 N 
HETATM   18  H   UNL     1     -46.827  57.591 -62.610  1.00  0.00     0.280 HD
HETATM   19  C   UNL     1     -48.756  56.880 -62.756  1.00  0.00     0.270 C 
HETATM   20  C   UNL     1     -46.655  59.501 -57.827  1.00  0.00     0.030 A 
ENDBRANCH   7  10
ENDBRANCH   3   6
BRANCH   1  21
HETATM   21  C   UNL     1     -43.148  54.978 -52.115  1.00  0.00     0.240 C 
BRANCH  21  22
HETATM   22  O   UNL     1     -41.742  54.930 -52.341  1.00  0.00    -0.344 OA
BRANCH  22  23
HETATM   23  C   UNL     1     -41.225  53.762 -52.839  1.00  0.00     0.075 A 
HETATM   24  C   UNL     1     -40.348  53.072 -51.986  1.00  0.00    -0.028 A 
HETATM   25  C   UNL     1     -39.749  51.879 -52.427  1.00  0.00     0.016 A 
HETATM   26  C   UNL     1     -39.986  53.614 -50.631  1.00  0.00     0.051 C 
HETATM   27  C   UNL     1     -40.023  51.361 -53.698  1.00  0.00    -0.061 A 
HETATM   28  C   UNL     1     -39.408  50.068 -54.143  1.00  0.00     0.048 C 
HETATM   29  C   UNL     1     -40.924  52.039 -54.522  1.00  0.00     0.009 A 
HETATM   30  C   UNL     1     -41.516  53.233 -54.100  1.00  0.00     0.038 A 
ENDBRANCH  22  23
ENDBRANCH  21  22
ENDBRANCH   1  21
TORSDOF 5
ENDMDL
MODEL 6
REMARK VINA RESULT:      -7.9      3.026      8.034
REMARK  5 active torsions:
REMARK  status: ('A' for Active; 'I' for Inactive)
REMARK    1  A    between atoms: C_6  and  O_7 
REMARK    2  A    between atoms: O_7  and  C_8 
REMARK    3  A    between atoms: C_8  and  C_9 
REMARK    4  A    between atoms: C_11  and  C_12 
REMARK       I    between atoms: C_12  and  N_13 
REMARK    5  A    between atoms: N_13  and  C_14 
ROOT
HETATM    1  C   UNL     1     -43.157  59.879 -54.244  1.00  0.00     0.078 A 
HETATM    2  O   UNL     1     -42.653  58.620 -54.129  1.00  0.00    -0.307 OA
HETATM    3  C   UNL     1     -43.414  57.937 -53.216  1.00  0.00     0.143 A 
HETATM    4  C   UNL     1     -44.403  58.783 -52.741  1.00  0.00     0.045 A 
HETATM    5  C   UNL     1     -44.236  60.029 -53.401  1.00  0.00     0.038 A 
ENDROOT
BRANCH   3   6
HETATM    6  C   UNL     1     -43.044  56.555 -52.948  1.00  0.00     0.279 C 
HETATM    7  N   UNL     1     -41.793  56.186 -53.437  1.00  0.00    -0.321 N 
HETATM    8  H   UNL     1     -41.269  56.903 -53.919  1.00  0.00     0.169 HD
HETATM    9  O   UNL     1     -43.787  55.784 -52.346  1.00  0.00    -0.265 OA
BRANCH   7  10
HETATM   10  C   UNL     1     -41.189  54.912 -53.369  1.00  0.00     0.035 A 
HETATM   11  C   UNL     1     -40.896  54.255 -52.171  1.00  0.00     0.039 A 
HETATM   12  C   UNL     1     -40.337  52.987 -52.215  1.00  0.00    -0.022 A 
HETATM   13  C   UNL     1     -40.062  52.357 -53.427  1.00  0.00    -0.025 A 
HETATM   14  C   UNL     1     -39.998  52.106 -51.063  1.00  0.00     0.274 C 
HETATM   15  C   UNL     1     -39.525  50.987 -53.192  1.00  0.00     0.273 C 
HETATM   16  C   UNL     1     -40.329  52.991 -54.627  1.00  0.00     0.012 A 
HETATM   17  N   UNL     1     -39.307  50.897 -51.684  1.00  0.00    -0.067 N 
HETATM   18  H   UNL     1     -38.302  51.035 -51.530  1.00  0.00     0.280 HD
HETATM   19  C   UNL     1     -39.709  49.597 -51.083  1.00  0.00     0.270 C 
HETATM   20  C   UNL     1     -40.890  54.274 -54.591  1.00  0.00     0.030 A 
ENDBRANCH   7  10
ENDBRANCH   3   6
BRANCH   1  21
HETATM   21  C   UNL     1     -42.474  60.783 -55.206  1.00  0.00     0.240 C 
BRANCH  21  22
HETATM   22  O   UNL     1     -41.671  59.949 -56.035  1.00  0.00    -0.344 OA
BRANCH  22  23
HETATM   23  C   UNL     1     -41.743  60.151 -57.389  1.00  0.00     0.075 A 
HETATM   24  C   UNL     1     -42.124  59.035 -58.152  1.00  0.00    -0.028 A 
HETATM   25  C   UNL     1     -42.197  59.146 -59.552  1.00  0.00     0.016 A 
HETATM   26  C   UNL     1     -42.398  57.703 -57.509  1.00  0.00     0.051 C 
HETATM   27  C   UNL     1     -41.908  60.355 -60.196  1.00  0.00    -0.061 A 
HETATM   28  C   UNL     1     -42.026  60.471 -61.686  1.00  0.00     0.048 C 
HETATM   29  C   UNL     1     -41.565  61.465 -59.422  1.00  0.00     0.009 A 
HETATM   30  C   UNL     1     -41.476  61.364 -58.031  1.00  0.00     0.038 A 
ENDBRANCH  22  23
ENDBRANCH  21  22
ENDBRANCH   1  21
TORSDOF 5
ENDMDL
MODEL 7
REMARK VINA RESULT:      -7.8     15.580     17.357
REMARK  5 active torsions:
REMARK  status: ('A' for Active; 'I' for Inactive)
REMARK    1  A    between atoms: C_6  and  O_7 
REMARK    2  A    between atoms: O_7  and  C_8 
REMARK    3  A    between atoms: C_8  and  C_9 
REMARK    4  A    between atoms: C_11  and  C_12 
REMARK       I    between atoms: C_12  and  N_13 
REMARK    5  A    between atoms: N_13  and  C_14 
ROOT
HETATM    1  C   UNL     1     -36.204  42.013 -55.058  1.00  0.00     0.078 A 
HETATM    2  O   UNL     1     -37.007  41.618 -56.084  1.00  0.00    -0.307 OA
HETATM    3  C   UNL     1     -36.313  41.780 -57.255  1.00  0.00     0.143 A 
HETATM    4  C   UNL     1     -35.061  42.298 -56.962  1.00  0.00     0.045 A 
HETATM    5  C   UNL     1     -34.994  42.447 -55.552  1.00  0.00     0.038 A 
ENDROOT
BRANCH   3   6
HETATM    6  C   UNL     1     -36.995  41.407 -58.485  1.00  0.00     0.279 C 
HETATM    7  N   UNL     1     -37.195  40.038 -58.643  1.00  0.00    -0.321 N 
HETATM    8  H   UNL     1     -36.858  39.444 -57.898  1.00  0.00     0.169 HD
HETATM    9  O   UNL     1     -37.352  42.241 -59.314  1.00  0.00    -0.265 OA
BRANCH   7  10
HETATM   10  C   UNL     1     -37.784  39.380 -59.745  1.00  0.00     0.035 A 
HETATM   11  C   UNL     1     -39.027  38.744 -59.695  1.00  0.00     0.039 A 
HETATM   12  C   UNL     1     -39.534  38.161 -60.847  1.00  0.00    -0.022 A 
HETATM   13  C   UNL     1     -38.828  38.194 -62.048  1.00  0.00    -0.025 A 
HETATM   14  C   UNL     1     -40.849  37.483 -61.016  1.00  0.00     0.274 C 
HETATM   15  C   UNL     1     -39.619  37.551 -63.135  1.00  0.00     0.273 C 
HETATM   16  C   UNL     1     -37.589  38.804 -62.120  1.00  0.00     0.012 A 
HETATM   17  N   UNL     1     -40.826  36.930 -62.438  1.00  0.00    -0.067 N 
HETATM   18  H   UNL     1     -40.622  35.929 -62.349  1.00  0.00     0.280 HD
HETATM   19  C   UNL     1     -42.110  37.095 -63.170  1.00  0.00     0.270 C 
HETATM   20  C   UNL     1     -37.069  39.394 -60.960  1.00  0.00     0.030 A 
ENDBRANCH   7  10
ENDBRANCH   3   6
BRANCH   1  21
HETATM   21  C   UNL     1     -36.771  41.899 -53.689  1.00  0.00     0.240 C 
BRANCH  21  22
HETATM   22  O   UNL     1     -36.444  40.592 -53.229  1.00  0.00    -0.344 OA
BRANCH  22  23
HETATM   23  C   UNL     1     -35.313  40.458 -52.465  1.00  0.00     0.075 A 
HETATM   24  C   UNL     1     -34.363  39.538 -52.939  1.00  0.00    -0.028 A 
HETATM   25  C   UNL     1     -33.186  39.319 -52.202  1.00  0.00     0.016 A 
HETATM   26  C   UNL     1     -34.605  38.736 -54.187  1.00  0.00     0.051 C 
HETATM   27  C   UNL     1     -32.939  40.011 -51.011  1.00  0.00    -0.061 A 
HETATM   28  C   UNL     1     -31.663  39.796 -50.255  1.00  0.00     0.048 C 
HETATM   29  C   UNL     1     -33.876  40.948 -50.571  1.00  0.00     0.009 A 
HETATM   30  C   UNL     1     -35.056  41.166 -51.287  1.00  0.00     0.038 A 
ENDBRANCH  22  23
ENDBRANCH  21  22
ENDBRANCH   1  21
TORSDOF 5
ENDMDL
MODEL 8
REMARK VINA RESULT:      -7.8      2.175      2.817
REMARK  5 active torsions:
REMARK  status: ('A' for Active; 'I' for Inactive)
REMARK    1  A    between atoms: C_6  and  O_7 
REMARK    2  A    between atoms: O_7  and  C_8 
REMARK    3  A    between atoms: C_8  and  C_9 
REMARK    4  A    between atoms: C_11  and  C_12 
REMARK       I    between atoms: C_12  and  N_13 
REMARK    5  A    between atoms: N_13  and  C_14 
ROOT
HETATM    1  C   UNL     1     -41.667  57.070 -52.822  1.00  0.00     0.078 A 
HETATM    2  O   UNL     1     -42.232  57.546 -53.965  1.00  0.00    -0.307 OA
HETATM    3  C   UNL     1     -41.702  58.784 -54.220  1.00  0.00     0.143 A 
HETATM    4  C   UNL     1     -40.801  59.097 -53.215  1.00  0.00     0.045 A 
HETATM    5  C   UNL     1     -40.780  57.996 -52.319  1.00  0.00     0.038 A 
ENDROOT
BRANCH   3   6
HETATM    6  C   UNL     1     -42.173  59.472 -55.413  1.00  0.00     0.279 C 
HETATM    7  N   UNL     1     -42.339  58.652 -56.526  1.00  0.00    -0.321 N 
HETATM    8  H   UNL     1     -42.126  57.672 -56.400  1.00  0.00     0.169 HD
HETATM    9  O   UNL     1     -42.393  60.681 -55.426  1.00  0.00    -0.265 OA
BRANCH   7  10
HETATM   10  C   UNL     1     -42.737  59.040 -57.824  1.00  0.00     0.035 A 
HETATM   11  C   UNL     1     -44.037  58.891 -58.314  1.00  0.00     0.039 A 
HETATM   12  C   UNL     1     -44.333  59.342 -59.592  1.00  0.00    -0.022 A 
HETATM   13  C   UNL     1     -43.362  59.937 -60.394  1.00  0.00    -0.025 A 
HETATM   14  C   UNL     1     -45.656  59.321 -60.276  1.00  0.00     0.274 C 
HETATM   15  C   UNL     1     -43.956  60.382 -61.687  1.00  0.00     0.273 C 
HETATM   16  C   UNL     1     -42.065  60.083 -59.938  1.00  0.00     0.012 A 
HETATM   17  N   UNL     1     -45.375  59.821 -61.689  1.00  0.00    -0.067 N 
HETATM   18  H   UNL     1     -45.353  58.986 -62.285  1.00  0.00     0.280 HD
HETATM   19  C   UNL     1     -46.404  60.757 -62.213  1.00  0.00     0.270 C 
HETATM   20  C   UNL     1     -41.757  59.627 -58.649  1.00  0.00     0.030 A 
ENDBRANCH   7  10
ENDBRANCH   3   6
BRANCH   1  21
HETATM   21  C   UNL     1     -42.101  55.720 -52.377  1.00  0.00     0.240 C 
BRANCH  21  22
HETATM   22  O   UNL     1     -40.924  55.046 -51.942  1.00  0.00    -0.344 OA
BRANCH  22  23
HETATM   23  C   UNL     1     -40.601  53.873 -52.575  1.00  0.00     0.075 A 
HETATM   24  C   UNL     1     -40.214  52.815 -51.735  1.00  0.00    -0.028 A 
HETATM   25  C   UNL     1     -39.838  51.584 -52.302  1.00  0.00     0.016 A 
HETATM   26  C   UNL     1     -40.132  52.989 -50.244  1.00  0.00     0.051 C 
HETATM   27  C   UNL     1     -39.857  51.392 -53.688  1.00  0.00    -0.061 A 
HETATM   28  C   UNL     1     -39.491  50.063 -54.278  1.00  0.00     0.048 C 
HETATM   29  C   UNL     1     -40.277  52.441 -54.508  1.00  0.00     0.009 A 
HETATM   30  C   UNL     1     -40.640  53.674 -53.958  1.00  0.00     0.038 A 
ENDBRANCH  22  23
ENDBRANCH  21  22
ENDBRANCH   1  21
TORSDOF 5
ENDMDL
MODEL 9
REMARK VINA RESULT:      -7.7     15.666     17.753
REMARK  5 active torsions:
REMARK  status: ('A' for Active; 'I' for Inactive)
REMARK    1  A    between atoms: C_6  and  O_7 
REMARK    2  A    between atoms: O_7  and  C_8 
REMARK    3  A    between atoms: C_8  and  C_9 
REMARK    4  A    between atoms: C_11  and  C_12 
REMARK       I    between atoms: C_12  and  N_13 
REMARK    5  A    between atoms: N_13  and  C_14 
ROOT
HETATM    1  C   UNL     1     -34.481  40.982 -55.755  1.00  0.00     0.078 A 
HETATM    2  O   UNL     1     -35.167  40.492 -56.825  1.00  0.00    -0.307 OA
HETATM    3  C   UNL     1     -35.865  41.525 -57.393  1.00  0.00     0.143 A 
HETATM    4  C   UNL     1     -35.626  42.678 -56.663  1.00  0.00     0.045 A 
HETATM    5  C   UNL     1     -34.738  42.327 -55.612  1.00  0.00     0.038 A 
ENDROOT
BRANCH   3   6
HETATM    6  C   UNL     1     -36.669  41.214 -58.566  1.00  0.00     0.279 C 
HETATM    7  N   UNL     1     -36.923  39.857 -58.750  1.00  0.00    -0.321 N 
HETATM    8  H   UNL     1     -36.537  39.229 -58.059  1.00  0.00     0.169 HD
HETATM    9  O   UNL     1     -37.075  42.086 -59.331  1.00  0.00    -0.265 OA
BRANCH   7  10
HETATM   10  C   UNL     1     -37.630  39.255 -59.813  1.00  0.00     0.035 A 
HETATM   11  C   UNL     1     -38.914  38.718 -59.686  1.00  0.00     0.039 A 
HETATM   12  C   UNL     1     -39.536  38.183 -60.805  1.00  0.00    -0.022 A 
HETATM   13  C   UNL     1     -38.906  38.169 -62.048  1.00  0.00    -0.025 A 
HETATM   14  C   UNL     1     -40.908  37.612 -60.892  1.00  0.00     0.274 C 
HETATM   15  C   UNL     1     -39.812  37.597 -63.084  1.00  0.00     0.273 C 
HETATM   16  C   UNL     1     -37.630  38.681 -62.197  1.00  0.00     0.012 A 
HETATM   17  N   UNL     1     -41.018  37.069 -62.312  1.00  0.00    -0.067 N 
HETATM   18  H   UNL     1     -40.889  36.054 -62.238  1.00  0.00     0.280 HD
HETATM   19  C   UNL     1     -42.328  37.339 -62.962  1.00  0.00     0.270 C 
HETATM   20  C   UNL     1     -36.993  39.220 -61.071  1.00  0.00     0.030 A 
ENDBRANCH   7  10
ENDBRANCH   3   6
BRANCH   1  21
HETATM   21  C   UNL     1     -33.641  40.012 -55.004  1.00  0.00     0.240 C 
BRANCH  21  22
HETATM   22  O   UNL     1     -34.386  39.654 -53.844  1.00  0.00    -0.344 OA
BRANCH  22  23
HETATM   23  C   UNL     1     -33.723  39.661 -52.644  1.00  0.00     0.075 A 
HETATM   24  C   UNL     1     -34.204  40.571 -51.688  1.00  0.00    -0.028 A 
HETATM   25  C   UNL     1     -33.566  40.664 -50.439  1.00  0.00     0.016 A 
HETATM   26  C   UNL     1     -35.352  41.495 -51.994  1.00  0.00     0.051 C 
HETATM   27  C   UNL     1     -32.467  39.856 -50.128  1.00  0.00    -0.061 A 
HETATM   28  C   UNL     1     -31.819  39.937 -48.779  1.00  0.00     0.048 C 
HETATM   29  C   UNL     1     -32.022  38.931 -51.075  1.00  0.00     0.009 A 
HETATM   30  C   UNL     1     -32.639  38.838 -52.325  1.00  0.00     0.038 A 
ENDBRANCH  22  23
ENDBRANCH  21  22
ENDBRANCH   1  21
TORSDOF 5
ENDMDL
MODEL 10
REMARK VINA RESULT:      -7.6      3.612      4.042
REMARK  5 active torsions:
REMARK  status: ('A' for Active; 'I' for Inactive)
REMARK    1  A    between atoms: C_6  and  O_7 
REMARK    2  A    between atoms: O_7  and  C_8 
REMARK    3  A    between atoms: C_8  and  C_9 
REMARK    4  A    between atoms: C_11  and  C_12 
REMARK       I    between atoms: C_12  and  N_13 
REMARK    5  A    between atoms: N_13  and  C_14 
ROOT
HETATM    1  C   UNL     1     -42.218  57.525 -52.835  1.00  0.00     0.078 A 
HETATM    2  O   UNL     1     -42.464  58.045 -54.068  1.00  0.00    -0.307 OA
HETATM    3  C   UNL     1     -42.222  59.394 -54.019  1.00  0.00     0.143 A 
HETATM    4  C   UNL     1     -41.832  59.728 -52.732  1.00  0.00     0.045 A 
HETATM    5  C   UNL     1     -41.830  58.528 -51.974  1.00  0.00     0.038 A 
ENDROOT
BRANCH   3   6
HETATM    6  C   UNL     1     -42.422  60.147 -55.249  1.00  0.00     0.279 C 
HETATM    7  N   UNL     1     -41.811  59.594 -56.371  1.00  0.00    -0.321 N 
HETATM    8  H   UNL     1     -41.300  58.734 -56.228  1.00  0.00     0.169 HD
HETATM    9  O   UNL     1     -43.071  61.189 -55.278  1.00  0.00    -0.265 OA
BRANCH   7  10
HETATM   10  C   UNL     1     -41.792  60.119 -57.681  1.00  0.00     0.035 A 
HETATM   11  C   UNL     1     -41.023  61.222 -58.064  1.00  0.00     0.039 A 
HETATM   12  C   UNL     1     -41.047  61.634 -59.388  1.00  0.00    -0.022 A 
HETATM   13  C   UNL     1     -41.822  60.974 -60.340  1.00  0.00    -0.025 A 
HETATM   14  C   UNL     1     -40.270  62.745 -60.005  1.00  0.00     0.274 C 
HETATM   15  C   UNL     1     -41.619  61.579 -61.687  1.00  0.00     0.273 C 
HETATM   16  C   UNL     1     -42.603  59.890 -59.984  1.00  0.00     0.012 A 
HETATM   17  N   UNL     1     -40.776  62.827 -61.441  1.00  0.00    -0.067 N 
HETATM   18  H   UNL     1     -41.423  63.622 -61.469  1.00  0.00     0.280 HD
HETATM   19  C   UNL     1     -39.702  63.050 -62.447  1.00  0.00     0.270 C 
HETATM   20  C   UNL     1     -42.587  59.469 -58.647  1.00  0.00     0.030 A 
ENDBRANCH   7  10
ENDBRANCH   3   6
BRANCH   1  21
HETATM   21  C   UNL     1     -42.408  56.059 -52.681  1.00  0.00     0.240 C 
BRANCH  21  22
HETATM   22  O   UNL     1     -41.151  55.536 -52.263  1.00  0.00    -0.344 OA
BRANCH  22  23
HETATM   23  C   UNL     1     -40.786  54.309 -52.753  1.00  0.00     0.075 A 
HETATM   24  C   UNL     1     -40.262  53.408 -51.811  1.00  0.00    -0.028 A 
HETATM   25  C   UNL     1     -39.836  52.136 -52.232  1.00  0.00     0.016 A 
HETATM   26  C   UNL     1     -40.088  53.797 -50.368  1.00  0.00     0.051 C 
HETATM   27  C   UNL     1     -39.938  51.748 -53.573  1.00  0.00    -0.061 A 
HETATM   28  C   UNL     1     -39.516  50.376 -54.003  1.00  0.00     0.048 C 
HETATM   29  C   UNL     1     -40.494  52.641 -54.492  1.00  0.00     0.009 A 
HETATM   30  C   UNL     1     -40.909  53.913 -54.088  1.00  0.00     0.038 A 
ENDBRANCH  22  23
ENDBRANCH  21  22
ENDBRANCH   1  21
TORSDOF 5
ENDMDL
