MODEL 1
REMARK VINA RESULT:      -8.2      0.000      0.000
REMARK  4 active torsions:
REMARK  status: ('A' for Active; 'I' for Inactive)
REMARK    1  A    between atoms: O_2  and  C_3 
REMARK    2  A    between atoms: C_4  and  N_5 
REMARK    3  A    between atoms: C_14  and  C_15 
REMARK       I    between atoms: C_15  and  N_16 
REMARK    4  A    between atoms: N_16  and  C_17 
ROOT
HETATM    1  N   UNL     1     -43.272  57.149 -54.263  1.00  0.00    -0.221 NA
HETATM    2  C   UNL     1     -42.482  56.116 -54.263  1.00  0.00     0.186 C 
HETATM    3  O   UNL     1     -41.885  55.670 -53.090  1.00  0.00    -0.290 OA
HETATM    4  C   UNL     1     -41.192  54.448 -53.041  1.00  0.00     0.088 A 
HETATM    5  C   UNL     1     -40.984  53.707 -54.197  1.00  0.00    -0.001 A 
HETATM    6  C   UNL     1     -40.746  54.009 -51.798  1.00  0.00     0.038 A 
HETATM    7  C   UNL     1     -40.077  52.789 -51.711  1.00  0.00     0.003 A 
HETATM    8  C   UNL     1     -39.859  52.029 -52.863  1.00  0.00     0.001 A 
HETATM    9  C   UNL     1     -40.309  52.489 -54.106  1.00  0.00     0.014 A 
HETATM   10  C   UNL     1     -42.175  55.376 -55.513  1.00  0.00     0.086 C 
HETATM   11  C   UNL     1     -41.468  54.233 -55.462  1.00  0.00     0.035 C 
ENDROOT
BRANCH  10  12
HETATM   12  C   UNL     1     -42.606  55.836 -56.884  1.00  0.00     0.260 C 
HETATM   13  N   UNL     1     -42.231  57.122 -57.205  1.00  0.00    -0.323 N 
HETATM   14  H   UNL     1     -41.728  57.641 -56.480  1.00  0.00     0.169 HD
HETATM   15  O   UNL     1     -43.234  55.076 -57.617  1.00  0.00    -0.267 OA
BRANCH  13  16
HETATM   16  C   UNL     1     -42.469  57.835 -58.397  1.00  0.00     0.035 A 
HETATM   17  C   UNL     1     -41.737  57.666 -59.573  1.00  0.00     0.029 A 
HETATM   18  C   UNL     1     -42.047  58.415 -60.712  1.00  0.00     0.002 A 
HETATM   19  C   UNL     1     -43.090  59.338 -60.685  1.00  0.00     0.000 A 
HETATM   20  C   UNL     1     -43.824  59.516 -59.516  1.00  0.00     0.002 A 
HETATM   21  C   UNL     1     -43.514  58.768 -58.377  1.00  0.00     0.029 A 
ENDBRANCH  13  16
ENDBRANCH  10  12
BRANCH   1  22
HETATM   22  C   UNL     1     -43.488  57.866 -53.071  1.00  0.00     0.093 A 
HETATM   23  C   UNL     1     -42.588  58.883 -52.694  1.00  0.00     0.097 A 
HETATM   24  C   UNL     1     -42.810  59.607 -51.516  1.00  0.00     0.039 A 
HETATM   25  C   UNL     1     -43.941  59.354 -50.738  1.00  0.00     0.003 A 
HETATM   26  C   UNL     1     -44.859  58.382 -51.131  1.00  0.00     0.002 A 
HETATM   27  C   UNL     1     -44.636  57.648 -52.296  1.00  0.00     0.034 A 
BRANCH  23  28
HETATM   28  O   UNL     1     -41.508  59.076 -53.522  1.00  0.00    -0.354 OA
HETATM   29  C   UNL     1     -40.235  58.782 -52.963  1.00  0.00     0.210 C 
ENDBRANCH  23  28
ENDBRANCH   1  22
TORSDOF 4
ENDMDL
MODEL 2
REMARK VINA RESULT:      -8.2      1.219      1.954
REMARK  4 active torsions:
REMARK  status: ('A' for Active; 'I' for Inactive)
REMARK    1  A    between atoms: O_2  and  C_3 
REMARK    2  A    between atoms: C_4  and  N_5 
REMARK    3  A    between atoms: C_14  and  C_15 
REMARK       I    between atoms: C_15  and  N_16 
REMARK    4  A    between atoms: N_16  and  C_17 
ROOT
HETATM    1  N   UNL     1     -41.967  57.115 -53.984  1.00  0.00    -0.221 NA
HETATM    2  C   UNL     1     -41.557  55.886 -54.092  1.00  0.00     0.186 C 
HETATM    3  O   UNL     1     -40.815  55.286 -53.081  1.00  0.00    -0.290 OA
HETATM    4  C   UNL     1     -40.537  53.909 -53.098  1.00  0.00     0.088 A 
HETATM    5  C   UNL     1     -40.897  53.128 -54.189  1.00  0.00    -0.001 A 
HETATM    6  C   UNL     1     -39.910  53.363 -51.981  1.00  0.00     0.038 A 
HETATM    7  C   UNL     1     -39.643  51.996 -51.955  1.00  0.00     0.003 A 
HETATM    8  C   UNL     1     -39.999  51.195 -53.043  1.00  0.00     0.001 A 
HETATM    9  C   UNL     1     -40.622  51.760 -54.160  1.00  0.00     0.014 A 
HETATM   10  C   UNL     1     -41.853  55.074 -55.300  1.00  0.00     0.086 C 
HETATM   11  C   UNL     1     -41.539  53.767 -55.325  1.00  0.00     0.035 C 
ENDROOT
BRANCH  10  12
HETATM   12  C   UNL     1     -42.496  55.633 -56.545  1.00  0.00     0.260 C 
HETATM   13  N   UNL     1     -42.099  56.910 -56.875  1.00  0.00    -0.323 N 
HETATM   14  H   UNL     1     -41.437  57.358 -56.235  1.00  0.00     0.169 HD
HETATM   15  O   UNL     1     -43.299  54.952 -57.180  1.00  0.00    -0.267 OA
BRANCH  13  16
HETATM   16  C   UNL     1     -42.501  57.699 -57.971  1.00  0.00     0.035 A 
HETATM   17  C   UNL     1     -41.886  57.678 -59.223  1.00  0.00     0.029 A 
HETATM   18  C   UNL     1     -42.358  58.495 -60.256  1.00  0.00     0.002 A 
HETATM   19  C   UNL     1     -43.447  59.337 -60.046  1.00  0.00     0.000 A 
HETATM   20  C   UNL     1     -44.066  59.368 -58.799  1.00  0.00     0.002 A 
HETATM   21  C   UNL     1     -43.594  58.553 -57.767  1.00  0.00     0.029 A 
ENDBRANCH  13  16
ENDBRANCH  10  12
BRANCH   1  22
HETATM   22  C   UNL     1     -41.611  57.876 -52.854  1.00  0.00     0.093 A 
HETATM   23  C   UNL     1     -42.497  57.959 -51.761  1.00  0.00     0.097 A 
HETATM   24  C   UNL     1     -42.139  58.704 -50.630  1.00  0.00     0.039 A 
HETATM   25  C   UNL     1     -40.892  59.328 -50.566  1.00  0.00     0.003 A 
HETATM   26  C   UNL     1     -39.994  59.210 -51.624  1.00  0.00     0.002 A 
HETATM   27  C   UNL     1     -40.350  58.481 -52.758  1.00  0.00     0.034 A 
BRANCH  23  28
HETATM   28  O   UNL     1     -43.698  57.306 -51.901  1.00  0.00    -0.354 OA
HETATM   29  C   UNL     1     -43.938  56.242 -50.989  1.00  0.00     0.210 C 
ENDBRANCH  23  28
ENDBRANCH   1  22
TORSDOF 4
ENDMDL
MODEL 3
REMARK VINA RESULT:      -8.2      1.775      6.213
REMARK  4 active torsions:
REMARK  status: ('A' for Active; 'I' for Inactive)
REMARK    1  A    between atoms: O_2  and  C_3 
REMARK    2  A    between atoms: C_4  and  N_5 
REMARK    3  A    between atoms: C_14  and  C_15 
REMARK       I    between atoms: C_15  and  N_16 
REMARK    4  A    between atoms: N_16  and  C_17 
ROOT
HETATM    1  N   UNL     1     -43.018  57.504 -54.143  1.00  0.00    -0.221 NA
HETATM    2  C   UNL     1     -43.170  57.034 -55.345  1.00  0.00     0.186 C 
HETATM    3  O   UNL     1     -43.602  57.851 -56.384  1.00  0.00    -0.290 OA
HETATM    4  C   UNL     1     -43.582  57.407 -57.718  1.00  0.00     0.088 A 
HETATM    5  C   UNL     1     -43.239  56.097 -58.022  1.00  0.00    -0.001 A 
HETATM    6  C   UNL     1     -43.897  58.333 -58.709  1.00  0.00     0.038 A 
HETATM    7  C   UNL     1     -43.862  57.933 -60.044  1.00  0.00     0.003 A 
HETATM    8  C   UNL     1     -43.519  56.618 -60.369  1.00  0.00     0.001 A 
HETATM    9  C   UNL     1     -43.211  55.700 -59.361  1.00  0.00     0.014 A 
HETATM   10  C   UNL     1     -42.900  55.608 -55.660  1.00  0.00     0.086 C 
HETATM   11  C   UNL     1     -42.932  55.183 -56.935  1.00  0.00     0.035 C 
ENDROOT
BRANCH  10  12
HETATM   12  C   UNL     1     -42.593  54.565 -54.614  1.00  0.00     0.260 C 
HETATM   13  N   UNL     1     -41.286  54.130 -54.600  1.00  0.00    -0.323 N 
HETATM   14  H   UNL     1     -40.669  54.531 -55.311  1.00  0.00     0.169 HD
HETATM   15  O   UNL     1     -43.479  54.178 -53.854  1.00  0.00    -0.267 OA
BRANCH  13  16
HETATM   16  C   UNL     1     -40.686  53.181 -53.750  1.00  0.00     0.035 A 
HETATM   17  C   UNL     1     -40.426  53.393 -52.395  1.00  0.00     0.029 A 
HETATM   18  C   UNL     1     -39.829  52.390 -51.624  1.00  0.00     0.002 A 
HETATM   19  C   UNL     1     -39.488  51.168 -52.200  1.00  0.00     0.000 A 
HETATM   20  C   UNL     1     -39.740  50.948 -53.552  1.00  0.00     0.002 A 
HETATM   21  C   UNL     1     -40.336  51.950 -54.322  1.00  0.00     0.029 A 
ENDBRANCH  13  16
ENDBRANCH  10  12
BRANCH   1  22
HETATM   22  C   UNL     1     -43.345  58.845 -53.866  1.00  0.00     0.093 A 
HETATM   23  C   UNL     1     -42.333  59.825 -53.864  1.00  0.00     0.097 A 
HETATM   24  C   UNL     1     -42.659  61.162 -53.603  1.00  0.00     0.039 A 
HETATM   25  C   UNL     1     -43.988  61.531 -53.389  1.00  0.00     0.003 A 
HETATM   26  C   UNL     1     -44.998  60.574 -53.436  1.00  0.00     0.002 A 
HETATM   27  C   UNL     1     -44.678  59.239 -53.682  1.00  0.00     0.034 A 
BRANCH  23  28
HETATM   28  O   UNL     1     -41.054  59.378 -54.097  1.00  0.00    -0.354 OA
HETATM   29  C   UNL     1     -40.305  59.008 -52.947  1.00  0.00     0.210 C 
ENDBRANCH  23  28
ENDBRANCH   1  22
TORSDOF 4
ENDMDL
MODEL 4
REMARK VINA RESULT:      -8.0      1.573      1.868
REMARK  4 active torsions:
REMARK  status: ('A' for Active; 'I' for Inactive)
REMARK    1  A    between atoms: O_2  and  C_3 
REMARK    2  A    between atoms: C_4  and  N_5 
REMARK    3  A    between atoms: C_14  and  C_15 
REMARK       I    between atoms: C_15  and  N_16 
REMARK    4  A    between atoms: N_16  and  C_17 
ROOT
HETATM    1  N   UNL     1     -43.890  57.015 -53.391  1.00  0.00    -0.221 NA
HETATM    2  C   UNL     1     -42.938  56.181 -53.090  1.00  0.00     0.186 C 
HETATM    3  O   UNL     1     -42.263  56.270 -51.879  1.00  0.00    -0.290 OA
HETATM    4  C   UNL     1     -41.375  55.264 -51.462  1.00  0.00     0.088 A 
HETATM    5  C   UNL     1     -41.059  54.206 -52.304  1.00  0.00    -0.001 A 
HETATM    6  C   UNL     1     -40.849  55.361 -50.176  1.00  0.00     0.038 A 
HETATM    7  C   UNL     1     -39.985  54.366 -49.722  1.00  0.00     0.003 A 
HETATM    8  C   UNL     1     -39.656  53.294 -50.555  1.00  0.00     0.001 A 
HETATM    9  C   UNL     1     -40.190  53.214 -51.846  1.00  0.00     0.014 A 
HETATM   10  C   UNL     1     -42.526  55.106 -54.028  1.00  0.00     0.086 C 
HETATM   11  C   UNL     1     -41.638  54.175 -53.636  1.00  0.00     0.035 C 
ENDROOT
BRANCH  10  12
HETATM   12  C   UNL     1     -43.042  54.986 -55.441  1.00  0.00     0.260 C 
HETATM   13  N   UNL     1     -42.984  56.149 -56.177  1.00  0.00    -0.323 N 
HETATM   14  H   UNL     1     -42.627  56.975 -55.690  1.00  0.00     0.169 HD
HETATM   15  O   UNL     1     -43.464  53.906 -55.850  1.00  0.00    -0.267 OA
BRANCH  13  16
HETATM   16  C   UNL     1     -43.375  56.362 -57.513  1.00  0.00     0.035 A 
HETATM   17  C   UNL     1     -42.955  55.580 -58.590  1.00  0.00     0.029 A 
HETATM   18  C   UNL     1     -43.399  55.863 -59.886  1.00  0.00     0.002 A 
HETATM   19  C   UNL     1     -44.266  56.930 -60.115  1.00  0.00     0.000 A 
HETATM   20  C   UNL     1     -44.688  57.718 -59.048  1.00  0.00     0.002 A 
HETATM   21  C   UNL     1     -44.244  57.436 -57.754  1.00  0.00     0.029 A 
ENDBRANCH  13  16
ENDBRANCH  10  12
BRANCH   1  22
HETATM   22  C   UNL     1     -44.210  58.062 -52.506  1.00  0.00     0.093 A 
HETATM   23  C   UNL     1     -43.686  59.351 -52.730  1.00  0.00     0.097 A 
HETATM   24  C   UNL     1     -44.015  60.397 -51.859  1.00  0.00     0.039 A 
HETATM   25  C   UNL     1     -44.893  60.176 -50.796  1.00  0.00     0.003 A 
HETATM   26  C   UNL     1     -45.450  58.915 -50.598  1.00  0.00     0.002 A 
HETATM   27  C   UNL     1     -45.115  57.866 -51.454  1.00  0.00     0.034 A 
BRANCH  23  28
HETATM   28  O   UNL     1     -42.841  59.485 -53.806  1.00  0.00    -0.354 OA
HETATM   29  C   UNL     1     -41.463  59.648 -53.498  1.00  0.00     0.210 C 
ENDBRANCH  23  28
ENDBRANCH   1  22
TORSDOF 4
ENDMDL
MODEL 5
REMARK VINA RESULT:      -7.9      1.760      1.993
REMARK  4 active torsions:
REMARK  status: ('A' for Active; 'I' for Inactive)
REMARK    1  A    between atoms: O_2  and  C_3 
REMARK    2  A    between atoms: C_4  and  N_5 
REMARK    3  A    between atoms: C_14  and  C_15 
REMARK       I    between atoms: C_15  and  N_16 
REMARK    4  A    between atoms: N_16  and  C_17 
ROOT
HETATM    1  N   UNL     1     -43.239  57.432 -54.246  1.00  0.00    -0.221 NA
HETATM    2  C   UNL     1     -42.487  56.372 -54.275  1.00  0.00     0.186 C 
HETATM    3  O   UNL     1     -41.884  55.887 -53.120  1.00  0.00    -0.290 OA
HETATM    4  C   UNL     1     -41.235  54.641 -53.103  1.00  0.00     0.088 A 
HETATM    5  C   UNL     1     -41.075  53.911 -54.273  1.00  0.00    -0.001 A 
HETATM    6  C   UNL     1     -40.781  54.168 -51.875  1.00  0.00     0.038 A 
HETATM    7  C   UNL     1     -40.155  52.924 -51.819  1.00  0.00     0.003 A 
HETATM    8  C   UNL     1     -39.986  52.174 -52.985  1.00  0.00     0.001 A 
HETATM    9  C   UNL     1     -40.443  52.668 -54.212  1.00  0.00     0.014 A 
HETATM   10  C   UNL     1     -42.230  55.640 -55.542  1.00  0.00     0.086 C 
HETATM   11  C   UNL     1     -41.564  54.472 -55.521  1.00  0.00     0.035 C 
ENDROOT
BRANCH  10  12
HETATM   12  C   UNL     1     -42.670  56.136 -56.898  1.00  0.00     0.260 C 
HETATM   13  N   UNL     1     -43.663  55.389 -57.491  1.00  0.00    -0.323 N 
HETATM   14  H   UNL     1     -43.980  54.565 -56.972  1.00  0.00     0.169 HD
HETATM   15  O   UNL     1     -42.150  57.140 -57.382  1.00  0.00    -0.267 OA
BRANCH  13  16
HETATM   16  C   UNL     1     -44.290  55.592 -58.736  1.00  0.00     0.035 A 
HETATM   17  C   UNL     1     -44.865  56.798 -59.139  1.00  0.00     0.029 A 
HETATM   18  C   UNL     1     -45.463  56.910 -60.398  1.00  0.00     0.002 A 
HETATM   19  C   UNL     1     -45.491  55.819 -61.264  1.00  0.00     0.000 A 
HETATM   20  C   UNL     1     -44.923  54.610 -60.870  1.00  0.00     0.002 A 
HETATM   21  C   UNL     1     -44.326  54.498 -59.611  1.00  0.00     0.029 A 
ENDBRANCH  13  16
ENDBRANCH  10  12
BRANCH   1  22
HETATM   22  C   UNL     1     -43.407  58.138 -53.039  1.00  0.00     0.093 A 
HETATM   23  C   UNL     1     -42.459  59.109 -52.660  1.00  0.00     0.097 A 
HETATM   24  C   UNL     1     -42.632  59.823 -51.468  1.00  0.00     0.039 A 
HETATM   25  C   UNL     1     -43.762  59.607 -50.678  1.00  0.00     0.003 A 
HETATM   26  C   UNL     1     -44.726  58.681 -51.071  1.00  0.00     0.002 A 
HETATM   27  C   UNL     1     -44.552  57.958 -52.251  1.00  0.00     0.034 A 
BRANCH  23  28
HETATM   28  O   UNL     1     -41.383  59.269 -53.502  1.00  0.00    -0.354 OA
HETATM   29  C   UNL     1     -40.113  58.932 -52.959  1.00  0.00     0.210 C 
ENDBRANCH  23  28
ENDBRANCH   1  22
TORSDOF 4
ENDMDL
MODEL 6
REMARK VINA RESULT:      -7.8      1.989      7.469
REMARK  4 active torsions:
REMARK  status: ('A' for Active; 'I' for Inactive)
REMARK    1  A    between atoms: O_2  and  C_3 
REMARK    2  A    between atoms: C_4  and  N_5 
REMARK    3  A    between atoms: C_14  and  C_15 
REMARK       I    between atoms: C_15  and  N_16 
REMARK    4  A    between atoms: N_16  and  C_17 
ROOT
HETATM    1  N   UNL     1     -42.954  56.271 -56.371  1.00  0.00    -0.221 NA
HETATM    2  C   UNL     1     -43.431  57.036 -55.434  1.00  0.00     0.186 C 
HETATM    3  O   UNL     1     -43.784  58.355 -55.696  1.00  0.00    -0.290 OA
HETATM    4  C   UNL     1     -44.479  59.127 -54.750  1.00  0.00     0.088 A 
HETATM    5  C   UNL     1     -44.730  58.629 -53.478  1.00  0.00    -0.001 A 
HETATM    6  C   UNL     1     -44.917  60.389 -55.143  1.00  0.00     0.038 A 
HETATM    7  C   UNL     1     -45.631  61.170 -54.237  1.00  0.00     0.003 A 
HETATM    8  C   UNL     1     -45.894  60.685 -52.953  1.00  0.00     0.001 A 
HETATM    9  C   UNL     1     -45.442  59.418 -52.572  1.00  0.00     0.014 A 
HETATM   10  C   UNL     1     -43.611  56.541 -54.046  1.00  0.00     0.086 C 
HETATM   11  C   UNL     1     -44.234  57.307 -53.133  1.00  0.00     0.035 C 
ENDROOT
BRANCH  10  12
HETATM   12  C   UNL     1     -43.118  55.197 -53.568  1.00  0.00     0.260 C 
HETATM   13  N   UNL     1     -41.765  54.990 -53.723  1.00  0.00    -0.323 N 
HETATM   14  H   UNL     1     -41.240  55.748 -54.167  1.00  0.00     0.169 HD
HETATM   15  O   UNL     1     -43.909  54.392 -53.079  1.00  0.00    -0.267 OA
BRANCH  13  16
HETATM   16  C   UNL     1     -41.005  53.858 -53.372  1.00  0.00     0.035 A 
HETATM   17  C   UNL     1     -40.513  53.607 -52.090  1.00  0.00     0.029 A 
HETATM   18  C   UNL     1     -39.768  52.452 -51.831  1.00  0.00     0.002 A 
HETATM   19  C   UNL     1     -39.511  51.538 -52.850  1.00  0.00     0.000 A 
HETATM   20  C   UNL     1     -39.994  51.780 -54.133  1.00  0.00     0.002 A 
HETATM   21  C   UNL     1     -40.737  52.935 -54.392  1.00  0.00     0.029 A 
ENDBRANCH  13  16
ENDBRANCH  10  12
BRANCH   1  22
HETATM   22  C   UNL     1     -42.735  56.793 -57.660  1.00  0.00     0.093 A 
HETATM   23  C   UNL     1     -43.242  56.112 -58.784  1.00  0.00     0.097 A 
HETATM   24  C   UNL     1     -43.038  56.637 -60.067  1.00  0.00     0.039 A 
HETATM   25  C   UNL     1     -42.373  57.853 -60.230  1.00  0.00     0.003 A 
HETATM   26  C   UNL     1     -41.910  58.554 -59.118  1.00  0.00     0.002 A 
HETATM   27  C   UNL     1     -42.099  58.029 -57.839  1.00  0.00     0.034 A 
BRANCH  23  28
HETATM   28  O   UNL     1     -43.896  54.929 -58.535  1.00  0.00    -0.354 OA
HETATM   29  C   UNL     1     -44.533  54.322 -59.651  1.00  0.00     0.210 C 
ENDBRANCH  23  28
ENDBRANCH   1  22
TORSDOF 4
ENDMDL
MODEL 7
REMARK VINA RESULT:      -7.7      1.844      5.815
REMARK  4 active torsions:
REMARK  status: ('A' for Active; 'I' for Inactive)
REMARK    1  A    between atoms: O_2  and  C_3 
REMARK    2  A    between atoms: C_4  and  N_5 
REMARK    3  A    between atoms: C_14  and  C_15 
REMARK       I    between atoms: C_15  and  N_16 
REMARK    4  A    between atoms: N_16  and  C_17 
ROOT
HETATM    1  N   UNL     1     -42.219  56.682 -54.453  1.00  0.00    -0.221 NA
HETATM    2  C   UNL     1     -41.769  55.666 -53.779  1.00  0.00     0.186 C 
HETATM    3  O   UNL     1     -41.517  54.448 -54.401  1.00  0.00    -0.290 OA
HETATM    4  C   UNL     1     -40.850  53.409 -53.730  1.00  0.00     0.088 A 
HETATM    5  C   UNL     1     -40.527  53.529 -52.385  1.00  0.00    -0.001 A 
HETATM    6  C   UNL     1     -40.514  52.277 -54.467  1.00  0.00     0.038 A 
HETATM    7  C   UNL     1     -39.829  51.239 -53.838  1.00  0.00     0.003 A 
HETATM    8  C   UNL     1     -39.495  51.342 -52.486  1.00  0.00     0.001 A 
HETATM    9  C   UNL     1     -39.845  52.484 -51.759  1.00  0.00     0.014 A 
HETATM   10  C   UNL     1     -41.513  55.756 -52.319  1.00  0.00     0.086 C 
HETATM   11  C   UNL     1     -40.918  54.736 -51.676  1.00  0.00     0.035 C 
ENDROOT
BRANCH  10  12
HETATM   12  C   UNL     1     -41.895  56.947 -51.476  1.00  0.00     0.260 C 
HETATM   13  N   UNL     1     -43.062  57.572 -51.856  1.00  0.00    -0.323 N 
HETATM   14  H   UNL     1     -43.533  57.188 -52.679  1.00  0.00     0.169 HD
HETATM   15  O   UNL     1     -41.184  57.283 -50.531  1.00  0.00    -0.267 OA
BRANCH  13  16
HETATM   16  C   UNL     1     -43.688  58.692 -51.274  1.00  0.00     0.035 A 
HETATM   17  C   UNL     1     -43.036  59.889 -50.974  1.00  0.00     0.029 A 
HETATM   18  C   UNL     1     -43.739  60.953 -50.400  1.00  0.00     0.002 A 
HETATM   19  C   UNL     1     -45.099  60.829 -50.122  1.00  0.00     0.000 A 
HETATM   20  C   UNL     1     -45.757  59.638 -50.414  1.00  0.00     0.002 A 
HETATM   21  C   UNL     1     -45.055  58.575 -50.987  1.00  0.00     0.029 A 
ENDBRANCH  13  16
ENDBRANCH  10  12
BRANCH   1  22
HETATM   22  C   UNL     1     -42.512  56.542 -55.823  1.00  0.00     0.093 A 
HETATM   23  C   UNL     1     -42.384  57.651 -56.682  1.00  0.00     0.097 A 
HETATM   24  C   UNL     1     -42.662  57.510 -58.047  1.00  0.00     0.039 A 
HETATM   25  C   UNL     1     -43.023  56.265 -58.565  1.00  0.00     0.003 A 
HETATM   26  C   UNL     1     -43.106  55.155 -57.728  1.00  0.00     0.002 A 
HETATM   27  C   UNL     1     -42.844  55.292 -56.365  1.00  0.00     0.034 A 
BRANCH  23  28
HETATM   28  O   UNL     1     -42.011  58.836 -56.093  1.00  0.00    -0.354 OA
HETATM   29  C   UNL     1     -42.029  59.982 -56.934  1.00  0.00     0.210 C 
ENDBRANCH  23  28
ENDBRANCH   1  22
TORSDOF 4
ENDMDL
MODEL 8
REMARK VINA RESULT:      -7.7      1.990      6.696
REMARK  4 active torsions:
REMARK  status: ('A' for Active; 'I' for Inactive)
REMARK    1  A    between atoms: O_2  and  C_3 
REMARK    2  A    between atoms: C_4  and  N_5 
REMARK    3  A    between atoms: C_14  and  C_15 
REMARK       I    between atoms: C_15  and  N_16 
REMARK    4  A    between atoms: N_16  and  C_17 
ROOT
HETATM    1  N   UNL     1     -43.323  56.250 -55.103  1.00  0.00    -0.221 NA
HETATM    2  C   UNL     1     -42.632  56.644 -54.075  1.00  0.00     0.186 C 
HETATM    3  O   UNL     1     -42.542  57.991 -53.744  1.00  0.00    -0.290 OA
HETATM    4  C   UNL     1     -41.966  58.409 -52.532  1.00  0.00     0.088 A 
HETATM    5  C   UNL     1     -41.364  57.491 -51.682  1.00  0.00    -0.001 A 
HETATM    6  C   UNL     1     -42.042  59.762 -52.214  1.00  0.00     0.038 A 
HETATM    7  C   UNL     1     -41.504  60.206 -51.008  1.00  0.00     0.003 A 
HETATM    8  C   UNL     1     -40.894  59.297 -50.140  1.00  0.00     0.001 A 
HETATM    9  C   UNL     1     -40.821  57.941 -50.477  1.00  0.00     0.014 A 
HETATM   10  C   UNL     1     -41.902  55.677 -53.216  1.00  0.00     0.086 C 
HETATM   11  C   UNL     1     -41.311  56.095 -52.082  1.00  0.00     0.035 C 
ENDROOT
BRANCH  10  12
HETATM   12  C   UNL     1     -41.762  54.210 -53.542  1.00  0.00     0.260 C 
HETATM   13  N   UNL     1     -40.670  53.594 -52.971  1.00  0.00    -0.323 N 
HETATM   14  H   UNL     1     -40.054  54.191 -52.414  1.00  0.00     0.169 HD
HETATM   15  O   UNL     1     -42.594  53.659 -54.260  1.00  0.00    -0.267 OA
BRANCH  13  16
HETATM   16  C   UNL     1     -40.270  52.247 -53.073  1.00  0.00     0.035 A 
HETATM   17  C   UNL     1     -40.235  51.525 -54.267  1.00  0.00     0.029 A 
HETATM   18  C   UNL     1     -39.819  50.190 -54.274  1.00  0.00     0.002 A 
HETATM   19  C   UNL     1     -39.435  49.566 -53.088  1.00  0.00     0.000 A 
HETATM   20  C   UNL     1     -39.470  50.277 -51.892  1.00  0.00     0.002 A 
HETATM   21  C   UNL     1     -39.886  51.610 -51.885  1.00  0.00     0.029 A 
ENDBRANCH  13  16
ENDBRANCH  10  12
BRANCH   1  22
HETATM   22  C   UNL     1     -43.948  57.201 -55.933  1.00  0.00     0.093 A 
HETATM   23  C   UNL     1     -43.698  57.189 -57.320  1.00  0.00     0.097 A 
HETATM   24  C   UNL     1     -44.330  58.124 -58.149  1.00  0.00     0.039 A 
HETATM   25  C   UNL     1     -45.238  59.038 -57.612  1.00  0.00     0.003 A 
HETATM   26  C   UNL     1     -45.525  59.023 -56.248  1.00  0.00     0.002 A 
HETATM   27  C   UNL     1     -44.888  58.103 -55.416  1.00  0.00     0.034 A 
BRANCH  23  28
HETATM   28  O   UNL     1     -42.800  56.249 -57.767  1.00  0.00    -0.354 OA
HETATM   29  C   UNL     1     -42.809  55.996 -59.166  1.00  0.00     0.210 C 
ENDBRANCH  23  28
ENDBRANCH   1  22
TORSDOF 4
ENDMDL
MODEL 9
REMARK VINA RESULT:      -7.2      2.008      5.064
REMARK  4 active torsions:
REMARK  status: ('A' for Active; 'I' for Inactive)
REMARK    1  A    between atoms: O_2  and  C_3 
REMARK    2  A    between atoms: C_4  and  N_5 
REMARK    3  A    between atoms: C_14  and  C_15 
REMARK       I    between atoms: C_15  and  N_16 
REMARK    4  A    between atoms: N_16  and  C_17 
ROOT
HETATM    1  N   UNL     1     -43.090  56.125 -53.851  1.00  0.00    -0.221 NA
HETATM    2  C   UNL     1     -43.305  57.363 -53.516  1.00  0.00     0.186 C 
HETATM    3  O   UNL     1     -42.933  57.842 -52.265  1.00  0.00    -0.290 OA
HETATM    4  C   UNL     1     -42.980  59.214 -51.964  1.00  0.00     0.088 A 
HETATM    5  C   UNL     1     -43.510  60.119 -52.874  1.00  0.00    -0.001 A 
HETATM    6  C   UNL     1     -42.460  59.624 -50.740  1.00  0.00     0.038 A 
HETATM    7  C   UNL     1     -42.467  60.980 -50.421  1.00  0.00     0.003 A 
HETATM    8  C   UNL     1     -42.996  61.906 -51.324  1.00  0.00     0.001 A 
HETATM    9  C   UNL     1     -43.519  61.477 -52.548  1.00  0.00     0.014 A 
HETATM   10  C   UNL     1     -43.962  58.315 -54.447  1.00  0.00     0.086 C 
HETATM   11  C   UNL     1     -44.045  59.619 -54.129  1.00  0.00     0.035 C 
ENDROOT
BRANCH  10  12
HETATM   12  C   UNL     1     -44.572  57.907 -55.766  1.00  0.00     0.260 C 
HETATM   13  N   UNL     1     -43.665  57.503 -56.721  1.00  0.00    -0.323 N 
HETATM   14  H   UNL     1     -42.678  57.546 -56.453  1.00  0.00     0.169 HD
HETATM   15  O   UNL     1     -45.791  57.946 -55.916  1.00  0.00    -0.267 OA
BRANCH  13  16
HETATM   16  C   UNL     1     -43.912  57.058 -58.034  1.00  0.00     0.035 A 
HETATM   17  C   UNL     1     -44.505  57.836 -59.029  1.00  0.00     0.029 A 
HETATM   18  C   UNL     1     -44.709  57.312 -60.310  1.00  0.00     0.002 A 
HETATM   19  C   UNL     1     -44.322  56.007 -60.605  1.00  0.00     0.000 A 
HETATM   20  C   UNL     1     -43.733  55.221 -59.618  1.00  0.00     0.002 A 
HETATM   21  C   UNL     1     -43.530  55.744 -58.339  1.00  0.00     0.029 A 
ENDBRANCH  13  16
ENDBRANCH  10  12
BRANCH   1  22
HETATM   22  C   UNL     1     -42.525  55.234 -52.919  1.00  0.00     0.093 A 
HETATM   23  C   UNL     1     -41.180  54.839 -53.058  1.00  0.00     0.097 A 
HETATM   24  C   UNL     1     -40.611  53.964 -52.124  1.00  0.00     0.039 A 
HETATM   25  C   UNL     1     -41.360  53.517 -51.034  1.00  0.00     0.003 A 
HETATM   26  C   UNL     1     -42.676  53.942 -50.866  1.00  0.00     0.002 A 
HETATM   27  C   UNL     1     -43.252  54.803 -51.800  1.00  0.00     0.034 A 
BRANCH  23  28
HETATM   28  O   UNL     1     -40.510  55.334 -54.152  1.00  0.00    -0.354 OA
HETATM   29  C   UNL     1     -40.089  54.374 -55.112  1.00  0.00     0.210 C 
ENDBRANCH  23  28
ENDBRANCH   1  22
TORSDOF 4
ENDMDL
MODEL 10
REMARK VINA RESULT:      -7.2      1.784      2.219
REMARK  4 active torsions:
REMARK  status: ('A' for Active; 'I' for Inactive)
REMARK    1  A    between atoms: O_2  and  C_3 
REMARK    2  A    between atoms: C_4  and  N_5 
REMARK    3  A    between atoms: C_14  and  C_15 
REMARK       I    between atoms: C_15  and  N_16 
REMARK    4  A    between atoms: N_16  and  C_17 
ROOT
HETATM    1  N   UNL     1     -43.848  57.937 -54.505  1.00  0.00    -0.221 NA
HETATM    2  C   UNL     1     -43.036  56.930 -54.637  1.00  0.00     0.186 C 
HETATM    3  O   UNL     1     -42.391  56.379 -53.536  1.00  0.00    -0.290 OA
HETATM    4  C   UNL     1     -41.670  55.177 -53.638  1.00  0.00     0.088 A 
HETATM    5  C   UNL     1     -41.484  54.567 -54.871  1.00  0.00    -0.001 A 
HETATM    6  C   UNL     1     -41.174  54.622 -52.461  1.00  0.00     0.038 A 
HETATM    7  C   UNL     1     -40.476  53.417 -52.524  1.00  0.00     0.003 A 
HETATM    8  C   UNL     1     -40.279  52.788 -53.756  1.00  0.00     0.001 A 
HETATM    9  C   UNL     1     -40.780  53.362 -54.929  1.00  0.00     0.014 A 
HETATM   10  C   UNL     1     -42.754  56.333 -55.967  1.00  0.00     0.086 C 
HETATM   11  C   UNL     1     -42.021  55.209 -56.058  1.00  0.00     0.035 C 
ENDROOT
BRANCH  10  12
HETATM   12  C   UNL     1     -43.240  56.923 -57.268  1.00  0.00     0.260 C 
HETATM   13  N   UNL     1     -44.596  57.157 -57.325  1.00  0.00    -0.323 N 
HETATM   14  H   UNL     1     -45.136  56.885 -56.499  1.00  0.00     0.169 HD
HETATM   15  O   UNL     1     -42.439  57.162 -58.170  1.00  0.00    -0.267 OA
BRANCH  13  16
HETATM   16  C   UNL     1     -45.349  57.703 -58.382  1.00  0.00     0.035 A 
HETATM   17  C   UNL     1     -45.585  59.067 -58.558  1.00  0.00     0.029 A 
HETATM   18  C   UNL     1     -46.343  59.521 -59.642  1.00  0.00     0.002 A 
HETATM   19  C   UNL     1     -46.870  58.615 -60.559  1.00  0.00     0.000 A 
HETATM   20  C   UNL     1     -46.644  57.251 -60.391  1.00  0.00     0.002 A 
HETATM   21  C   UNL     1     -45.888  56.798 -59.307  1.00  0.00     0.029 A 
ENDBRANCH  13  16
ENDBRANCH  10  12
BRANCH   1  22
HETATM   22  C   UNL     1     -44.041  58.520 -53.238  1.00  0.00     0.093 A 
HETATM   23  C   UNL     1     -43.437  59.757 -52.939  1.00  0.00     0.097 A 
HETATM   24  C   UNL     1     -43.639  60.346 -51.684  1.00  0.00     0.039 A 
HETATM   25  C   UNL     1     -44.471  59.732 -50.747  1.00  0.00     0.003 A 
HETATM   26  C   UNL     1     -45.108  58.532 -51.054  1.00  0.00     0.002 A 
HETATM   27  C   UNL     1     -44.900  57.934 -52.297  1.00  0.00     0.034 A 
BRANCH  23  28
HETATM   28  O   UNL     1     -42.644  60.300 -53.922  1.00  0.00    -0.354 OA
HETATM   29  C   UNL     1     -43.088  61.533 -54.471  1.00  0.00     0.210 C 
ENDBRANCH  23  28
ENDBRANCH   1  22
TORSDOF 4
ENDMDL
