MODEL 1
REMARK VINA RESULT:      -8.4      0.000      0.000
REMARK  3 active torsions:
REMARK  status: ('A' for Active; 'I' for Inactive)
REMARK    1  A    between atoms: C_7  and  C_8 
REMARK       I    between atoms: C_8  and  N_9 
REMARK    2  A    between atoms: N_9  and  C_10 
REMARK    3  A    between atoms: C_11  and  O_12 
ROOT
HETATM    1  C   UNL     1     -41.203  55.938 -54.410  1.00  0.00     0.252 C 
HETATM    2  N   UNL     1     -41.039  56.923 -53.464  1.00  0.00    -0.346 N 
HETATM    3  O   UNL     1     -41.715  56.153 -55.504  1.00  0.00    -0.268 OA
HETATM    4  H   UNL     1     -40.686  56.692 -52.546  1.00  0.00     0.163 HD
ENDROOT
BRANCH   1   5
HETATM    5  C   UNL     1     -40.755  54.575 -54.027  1.00  0.00     0.033 A 
HETATM    6  C   UNL     1     -40.370  53.700 -55.045  1.00  0.00     0.019 A 
HETATM    7  C   UNL     1     -39.968  52.394 -54.754  1.00  0.00     0.031 A 
HETATM    8  C   UNL     1     -39.952  52.006 -53.409  1.00  0.00     0.043 A 
HETATM    9  C   UNL     1     -40.305  52.861 -52.367  1.00  0.00    -0.001 A 
HETATM   10  N   UNL     1     -39.607  50.801 -52.844  1.00  0.00    -0.359 N 
HETATM   11  C   UNL     1     -40.144  52.134 -51.142  1.00  0.00    -0.027 A 
HETATM   12  C   UNL     1     -40.714  54.175 -52.682  1.00  0.00     0.031 A 
HETATM   13  C   UNL     1     -40.384  52.640 -49.762  1.00  0.00     0.051 C 
HETATM   14  C   UNL     1     -39.719  50.859 -51.478  1.00  0.00     0.012 A 
HETATM   15  C   UNL     1     -39.404  49.687 -50.620  1.00  0.00     0.068 C 
HETATM   16  H   UNL     1     -39.308  49.992 -53.369  1.00  0.00     0.166 HD
ENDBRANCH   1   5
BRANCH   2  17
HETATM   17  C   UNL     1     -41.583  58.252 -53.669  1.00  0.00     0.147 C 
HETATM   18  C   UNL     1     -40.746  59.409 -53.034  1.00  0.00     0.149 C 
HETATM   19  C   UNL     1     -41.345  59.664 -51.636  1.00  0.00     0.073 C 
HETATM   20  C   UNL     1     -42.757  59.198 -51.809  1.00  0.00    -0.047 A 
HETATM   21  C   UNL     1     -42.893  58.401 -52.950  1.00  0.00    -0.027 A 
HETATM   22  C   UNL     1     -43.837  59.438 -50.974  1.00  0.00     0.008 A 
HETATM   23  C   UNL     1     -44.112  57.829 -53.281  1.00  0.00     0.010 A 
HETATM   24  C   UNL     1     -45.207  58.073 -52.450  1.00  0.00     0.001 A 
HETATM   25  C   UNL     1     -45.070  58.873 -51.305  1.00  0.00     0.001 A 
BRANCH  18  26
HETATM   26  O   UNL     1     -39.349  59.150 -52.935  1.00  0.00    -0.393 OA
HETATM   27  H   UNL     1     -38.938  59.972 -52.591  1.00  0.00     0.210 HD
ENDBRANCH  18  26
ENDBRANCH   2  17
TORSDOF 3
ENDMDL
MODEL 2
REMARK VINA RESULT:      -8.2      2.181      3.674
REMARK  3 active torsions:
REMARK  status: ('A' for Active; 'I' for Inactive)
REMARK    1  A    between atoms: C_7  and  C_8 
REMARK       I    between atoms: C_8  and  N_9 
REMARK    2  A    between atoms: N_9  and  C_10 
REMARK    3  A    between atoms: C_11  and  O_12 
ROOT
HETATM    1  C   UNL     1     -41.470  56.910 -50.861  1.00  0.00     0.252 C 
HETATM    2  N   UNL     1     -42.636  57.289 -51.483  1.00  0.00    -0.346 N 
HETATM    3  O   UNL     1     -40.801  57.683 -50.183  1.00  0.00    -0.268 OA
HETATM    4  H   UNL     1     -43.117  56.646 -52.097  1.00  0.00     0.163 HD
ENDROOT
BRANCH   1   5
HETATM    5  C   UNL     1     -41.033  55.507 -51.078  1.00  0.00     0.033 A 
HETATM    6  C   UNL     1     -40.691  54.744 -49.958  1.00  0.00     0.019 A 
HETATM    7  C   UNL     1     -40.243  53.429 -50.097  1.00  0.00     0.031 A 
HETATM    8  C   UNL     1     -40.165  52.904 -51.392  1.00  0.00     0.043 A 
HETATM    9  C   UNL     1     -40.522  53.627 -52.529  1.00  0.00    -0.001 A 
HETATM   10  N   UNL     1     -39.764  51.659 -51.815  1.00  0.00    -0.359 N 
HETATM   11  C   UNL     1     -40.340  52.767 -53.660  1.00  0.00    -0.027 A 
HETATM   12  C   UNL     1     -40.967  54.957 -52.368  1.00  0.00     0.031 A 
HETATM   13  C   UNL     1     -40.610  53.095 -55.087  1.00  0.00     0.051 C 
HETATM   14  C   UNL     1     -39.859  51.559 -53.181  1.00  0.00     0.012 A 
HETATM   15  C   UNL     1     -39.487  50.313 -53.899  1.00  0.00     0.068 C 
HETATM   16  H   UNL     1     -39.448  50.923 -51.200  1.00  0.00     0.166 HD
ENDBRANCH   1   5
BRANCH   2  17
HETATM   17  C   UNL     1     -43.072  58.672 -51.471  1.00  0.00     0.147 C 
HETATM   18  C   UNL     1     -44.571  58.884 -51.086  1.00  0.00     0.149 C 
HETATM   19  C   UNL     1     -45.361  58.921 -52.409  1.00  0.00     0.073 C 
HETATM   20  C   UNL     1     -44.325  59.390 -53.382  1.00  0.00    -0.047 A 
HETATM   21  C   UNL     1     -43.036  59.248 -52.857  1.00  0.00    -0.027 A 
HETATM   22  C   UNL     1     -44.523  59.870 -54.666  1.00  0.00     0.008 A 
HETATM   23  C   UNL     1     -41.919  59.586 -53.607  1.00  0.00     0.010 A 
HETATM   24  C   UNL     1     -42.110  60.079 -54.899  1.00  0.00     0.001 A 
HETATM   25  C   UNL     1     -43.403  60.221 -55.424  1.00  0.00     0.001 A 
BRANCH  18  26
HETATM   26  O   UNL     1     -45.109  57.894 -50.214  1.00  0.00    -0.393 OA
HETATM   27  H   UNL     1     -44.890  57.025 -50.611  1.00  0.00     0.210 HD
ENDBRANCH  18  26
ENDBRANCH   2  17
TORSDOF 3
ENDMDL
MODEL 3
REMARK VINA RESULT:      -8.1      2.857      3.943
REMARK  3 active torsions:
REMARK  status: ('A' for Active; 'I' for Inactive)
REMARK    1  A    between atoms: C_7  and  C_8 
REMARK       I    between atoms: C_8  and  N_9 
REMARK    2  A    between atoms: N_9  and  C_10 
REMARK    3  A    between atoms: C_11  and  O_12 
ROOT
HETATM    1  C   UNL     1     -41.450  56.582 -54.185  1.00  0.00     0.252 C 
HETATM    2  N   UNL     1     -42.461  56.726 -55.106  1.00  0.00    -0.346 N 
HETATM    3  O   UNL     1     -40.944  57.538 -53.605  1.00  0.00    -0.268 OA
HETATM    4  H   UNL     1     -42.797  55.923 -55.621  1.00  0.00     0.163 HD
ENDROOT
BRANCH   1   5
HETATM    5  C   UNL     1     -40.970  55.198 -53.944  1.00  0.00     0.033 A 
HETATM    6  C   UNL     1     -40.613  54.423 -55.050  1.00  0.00     0.019 A 
HETATM    7  C   UNL     1     -40.182  53.104 -54.892  1.00  0.00     0.031 A 
HETATM    8  C   UNL     1     -40.108  52.598 -53.589  1.00  0.00     0.043 A 
HETATM    9  C   UNL     1     -40.430  53.351 -52.461  1.00  0.00    -0.001 A 
HETATM   10  N   UNL     1     -39.724  51.354 -53.148  1.00  0.00    -0.359 N 
HETATM   11  C   UNL     1     -40.210  52.521 -51.314  1.00  0.00    -0.027 A 
HETATM   12  C   UNL     1     -40.869  54.680 -52.643  1.00  0.00     0.031 A 
HETATM   13  C   UNL     1     -40.401  52.898 -49.886  1.00  0.00     0.051 C 
HETATM   14  C   UNL     1     -39.782  51.288 -51.779  1.00  0.00     0.012 A 
HETATM   15  C   UNL     1     -39.417  50.051 -51.042  1.00  0.00     0.068 C 
HETATM   16  H   UNL     1     -39.435  50.599 -53.754  1.00  0.00     0.166 HD
ENDBRANCH   1   5
BRANCH   2  17
HETATM   17  C   UNL     1     -42.897  58.041 -55.536  1.00  0.00     0.147 C 
HETATM   18  C   UNL     1     -44.306  58.468 -55.011  1.00  0.00     0.149 C 
HETATM   19  C   UNL     1     -45.318  58.065 -56.101  1.00  0.00     0.073 C 
HETATM   20  C   UNL     1     -44.474  58.082 -57.337  1.00  0.00    -0.047 A 
HETATM   21  C   UNL     1     -43.112  58.065 -57.021  1.00  0.00    -0.027 A 
HETATM   22  C   UNL     1     -44.901  58.069 -58.655  1.00  0.00     0.008 A 
HETATM   23  C   UNL     1     -42.148  58.038 -58.019  1.00  0.00     0.010 A 
HETATM   24  C   UNL     1     -42.569  58.034 -59.349  1.00  0.00     0.001 A 
HETATM   25  C   UNL     1     -43.936  58.051 -59.665  1.00  0.00     0.001 A 
BRANCH  18  26
HETATM   26  O   UNL     1     -44.674  57.900 -53.758  1.00  0.00    -0.393 OA
HETATM   27  H   UNL     1     -43.866  57.478 -53.395  1.00  0.00     0.210 HD
ENDBRANCH  18  26
ENDBRANCH   2  17
TORSDOF 3
ENDMDL
MODEL 4
REMARK VINA RESULT:      -7.9      3.201      7.727
REMARK  3 active torsions:
REMARK  status: ('A' for Active; 'I' for Inactive)
REMARK    1  A    between atoms: C_7  and  C_8 
REMARK       I    between atoms: C_8  and  N_9 
REMARK    2  A    between atoms: N_9  and  C_10 
REMARK    3  A    between atoms: C_11  and  O_12 
ROOT
HETATM    1  C   UNL     1     -43.387  56.321 -54.153  1.00  0.00     0.252 C 
HETATM    2  N   UNL     1     -42.487  55.686 -53.330  1.00  0.00    -0.346 N 
HETATM    3  O   UNL     1     -44.514  55.883 -54.364  1.00  0.00    -0.268 OA
HETATM    4  H   UNL     1     -41.543  56.035 -53.244  1.00  0.00     0.163 HD
ENDROOT
BRANCH   1   5
HETATM    5  C   UNL     1     -42.914  57.564 -54.813  1.00  0.00     0.033 A 
HETATM    6  C   UNL     1     -42.659  58.679 -54.011  1.00  0.00     0.019 A 
HETATM    7  C   UNL     1     -42.241  59.887 -54.573  1.00  0.00     0.031 A 
HETATM    8  C   UNL     1     -42.074  59.931 -55.963  1.00  0.00     0.043 A 
HETATM    9  C   UNL     1     -42.293  58.832 -56.790  1.00  0.00    -0.001 A 
HETATM   10  N   UNL     1     -41.679  60.972 -56.769  1.00  0.00    -0.359 N 
HETATM   11  C   UNL     1     -41.999  59.239 -58.132  1.00  0.00    -0.027 A 
HETATM   12  C   UNL     1     -42.721  57.621 -56.202  1.00  0.00     0.031 A 
HETATM   13  C   UNL     1     -42.070  58.398 -59.359  1.00  0.00     0.051 C 
HETATM   14  C   UNL     1     -41.631  60.574 -58.082  1.00  0.00     0.012 A 
HETATM   15  C   UNL     1     -41.231  61.508 -59.165  1.00  0.00     0.068 C 
HETATM   16  H   UNL     1     -41.453  61.897 -56.434  1.00  0.00     0.166 HD
ENDBRANCH   1   5
BRANCH   2  17
HETATM   17  C   UNL     1     -42.786  54.385 -52.762  1.00  0.00     0.147 C 
HETATM   18  C   UNL     1     -42.854  54.351 -51.201  1.00  0.00     0.149 C 
HETATM   19  C   UNL     1     -41.448  53.950 -50.712  1.00  0.00     0.073 C 
HETATM   20  C   UNL     1     -40.917  53.176 -51.878  1.00  0.00    -0.047 A 
HETATM   21  C   UNL     1     -41.667  53.422 -53.033  1.00  0.00    -0.027 A 
HETATM   22  C   UNL     1     -39.811  52.343 -51.910  1.00  0.00     0.008 A 
HETATM   23  C   UNL     1     -41.326  52.836 -54.244  1.00  0.00     0.010 A 
HETATM   24  C   UNL     1     -40.218  51.988 -54.283  1.00  0.00     0.001 A 
HETATM   25  C   UNL     1     -39.467  51.743 -53.124  1.00  0.00     0.001 A 
BRANCH  18  26
HETATM   26  O   UNL     1     -43.260  55.574 -50.594  1.00  0.00    -0.393 OA
HETATM   27  H   UNL     1     -43.684  55.335 -49.742  1.00  0.00     0.210 HD
ENDBRANCH  18  26
ENDBRANCH   2  17
TORSDOF 3
ENDMDL
MODEL 5
REMARK VINA RESULT:      -7.8      4.293      5.585
REMARK  3 active torsions:
REMARK  status: ('A' for Active; 'I' for Inactive)
REMARK    1  A    between atoms: C_7  and  C_8 
REMARK       I    between atoms: C_8  and  N_9 
REMARK    2  A    between atoms: N_9  and  C_10 
REMARK    3  A    between atoms: C_11  and  O_12 
ROOT
HETATM    1  C   UNL     1     -42.912  57.215 -55.851  1.00  0.00     0.252 C 
HETATM    2  N   UNL     1     -44.033  56.953 -56.603  1.00  0.00    -0.346 N 
HETATM    3  O   UNL     1     -42.307  58.281 -55.916  1.00  0.00    -0.268 OA
HETATM    4  H   UNL     1     -44.457  56.036 -56.581  1.00  0.00     0.163 HD
ENDROOT
BRANCH   1   5
HETATM    5  C   UNL     1     -42.440  56.120 -54.967  1.00  0.00     0.033 A 
HETATM    6  C   UNL     1     -42.371  54.829 -55.497  1.00  0.00     0.019 A 
HETATM    7  C   UNL     1     -41.964  53.751 -54.708  1.00  0.00     0.031 A 
HETATM    8  C   UNL     1     -41.616  54.016 -53.378  1.00  0.00     0.043 A 
HETATM    9  C   UNL     1     -41.647  55.294 -52.824  1.00  0.00    -0.001 A 
HETATM   10  N   UNL     1     -41.188  53.159 -52.393  1.00  0.00    -0.359 N 
HETATM   11  C   UNL     1     -41.204  55.185 -51.466  1.00  0.00    -0.027 A 
HETATM   12  C   UNL     1     -42.067  56.370 -53.636  1.00  0.00     0.031 A 
HETATM   13  C   UNL     1     -41.054  56.291 -50.481  1.00  0.00     0.051 C 
HETATM   14  C   UNL     1     -40.937  53.846 -51.231  1.00  0.00     0.012 A 
HETATM   15  C   UNL     1     -40.460  53.155 -50.005  1.00  0.00     0.068 C 
HETATM   16  H   UNL     1     -41.072  52.163 -52.516  1.00  0.00     0.166 HD
ENDBRANCH   1   5
BRANCH   2  17
HETATM   17  C   UNL     1     -44.487  57.888 -57.615  1.00  0.00     0.147 C 
HETATM   18  C   UNL     1     -45.764  58.703 -57.228  1.00  0.00     0.149 C 
HETATM   19  C   UNL     1     -46.968  57.919 -57.786  1.00  0.00     0.073 C 
HETATM   20  C   UNL     1     -46.356  57.175 -58.932  1.00  0.00    -0.047 A 
HETATM   21  C   UNL     1     -44.961  57.154 -58.836  1.00  0.00    -0.027 A 
HETATM   22  C   UNL     1     -47.009  56.525 -59.966  1.00  0.00     0.008 A 
HETATM   23  C   UNL     1     -44.191  56.483 -59.774  1.00  0.00     0.010 A 
HETATM   24  C   UNL     1     -44.840  55.833 -60.825  1.00  0.00     0.001 A 
HETATM   25  C   UNL     1     -46.240  55.855 -60.920  1.00  0.00     0.001 A 
BRANCH  18  26
HETATM   26  O   UNL     1     -45.926  58.932 -55.831  1.00  0.00    -0.393 OA
HETATM   27  H   UNL     1     -46.882  59.091 -55.684  1.00  0.00     0.210 HD
ENDBRANCH  18  26
ENDBRANCH   2  17
TORSDOF 3
ENDMDL
MODEL 6
REMARK VINA RESULT:      -7.7      4.124      5.536
REMARK  3 active torsions:
REMARK  status: ('A' for Active; 'I' for Inactive)
REMARK    1  A    between atoms: C_7  and  C_8 
REMARK       I    between atoms: C_8  and  N_9 
REMARK    2  A    between atoms: N_9  and  C_10 
REMARK    3  A    between atoms: C_11  and  O_12 
ROOT
HETATM    1  C   UNL     1     -43.651  56.496 -55.815  1.00  0.00     0.252 C 
HETATM    2  N   UNL     1     -43.643  56.366 -57.184  1.00  0.00    -0.346 N 
HETATM    3  O   UNL     1     -44.353  57.319 -55.234  1.00  0.00    -0.268 OA
HETATM    4  H   UNL     1     -42.994  55.732 -57.630  1.00  0.00     0.163 HD
ENDROOT
BRANCH   1   5
HETATM    5  C   UNL     1     -42.734  55.605 -55.062  1.00  0.00     0.033 A 
HETATM    6  C   UNL     1     -41.681  55.004 -55.757  1.00  0.00     0.019 A 
HETATM    7  C   UNL     1     -40.802  54.132 -55.113  1.00  0.00     0.031 A 
HETATM    8  C   UNL     1     -41.006  53.897 -53.748  1.00  0.00     0.043 A 
HETATM    9  C   UNL     1     -42.029  54.499 -53.017  1.00  0.00    -0.001 A 
HETATM   10  N   UNL     1     -40.305  53.097 -52.878  1.00  0.00    -0.359 N 
HETATM   11  C   UNL     1     -41.911  54.048 -51.663  1.00  0.00    -0.027 A 
HETATM   12  C   UNL     1     -42.911  55.373 -53.688  1.00  0.00     0.031 A 
HETATM   13  C   UNL     1     -42.773  54.436 -50.511  1.00  0.00     0.051 C 
HETATM   14  C   UNL     1     -40.838  53.173 -51.615  1.00  0.00     0.012 A 
HETATM   15  C   UNL     1     -40.266  52.404 -50.480  1.00  0.00     0.068 C 
HETATM   16  H   UNL     1     -39.505  52.537 -53.138  1.00  0.00     0.166 HD
ENDBRANCH   1   5
BRANCH   2  17
HETATM   17  C   UNL     1     -44.379  57.290 -58.026  1.00  0.00     0.147 C 
HETATM   18  C   UNL     1     -44.926  56.674 -59.354  1.00  0.00     0.149 C 
HETATM   19  C   UNL     1     -43.861  56.949 -60.434  1.00  0.00     0.073 C 
HETATM   20  C   UNL     1     -43.182  58.172 -59.903  1.00  0.00    -0.047 A 
HETATM   21  C   UNL     1     -43.470  58.365 -58.548  1.00  0.00    -0.027 A 
HETATM   22  C   UNL     1     -42.330  59.030 -60.580  1.00  0.00     0.008 A 
HETATM   23  C   UNL     1     -42.912  59.421 -57.843  1.00  0.00     0.010 A 
HETATM   24  C   UNL     1     -42.059  60.295 -58.518  1.00  0.00     0.001 A 
HETATM   25  C   UNL     1     -41.771  60.100 -59.878  1.00  0.00     0.001 A 
BRANCH  18  26
HETATM   26  O   UNL     1     -45.220  55.282 -59.290  1.00  0.00    -0.393 OA
HETATM   27  H   UNL     1     -44.724  54.858 -60.022  1.00  0.00     0.210 HD
ENDBRANCH  18  26
ENDBRANCH   2  17
TORSDOF 3
ENDMDL
MODEL 7
REMARK VINA RESULT:      -7.6      4.261      5.536
REMARK  3 active torsions:
REMARK  status: ('A' for Active; 'I' for Inactive)
REMARK    1  A    between atoms: C_7  and  C_8 
REMARK       I    between atoms: C_8  and  N_9 
REMARK    2  A    between atoms: N_9  and  C_10 
REMARK    3  A    between atoms: C_11  and  O_12 
ROOT
HETATM    1  C   UNL     1     -42.918  55.768 -57.322  1.00  0.00     0.252 C 
HETATM    2  N   UNL     1     -42.651  56.999 -57.872  1.00  0.00    -0.346 N 
HETATM    3  O   UNL     1     -43.591  54.919 -57.898  1.00  0.00    -0.268 OA
HETATM    4  H   UNL     1     -42.160  57.700 -57.335  1.00  0.00     0.163 HD
ENDROOT
BRANCH   1   5
HETATM    5  C   UNL     1     -42.372  55.520 -55.964  1.00  0.00     0.033 A 
HETATM    6  C   UNL     1     -42.409  56.566 -55.039  1.00  0.00     0.019 A 
HETATM    7  C   UNL     1     -41.885  56.406 -53.754  1.00  0.00     0.031 A 
HETATM    8  C   UNL     1     -41.338  55.159 -53.428  1.00  0.00     0.043 A 
HETATM    9  C   UNL     1     -41.308  54.086 -54.317  1.00  0.00    -0.001 A 
HETATM   10  N   UNL     1     -40.761  54.730 -52.257  1.00  0.00    -0.359 N 
HETATM   11  C   UNL     1     -40.706  52.980 -53.634  1.00  0.00    -0.027 A 
HETATM   12  C   UNL     1     -41.838  54.270 -55.613  1.00  0.00     0.031 A 
HETATM   13  C   UNL     1     -40.475  51.611 -54.175  1.00  0.00     0.051 C 
HETATM   14  C   UNL     1     -40.371  53.418 -52.363  1.00  0.00     0.012 A 
HETATM   15  C   UNL     1     -39.718  52.706 -51.235  1.00  0.00     0.068 C 
HETATM   16  H   UNL     1     -40.648  55.305 -51.434  1.00  0.00     0.166 HD
ENDBRANCH   1   5
BRANCH   2  17
HETATM   17  C   UNL     1     -43.265  57.407 -59.122  1.00  0.00     0.147 C 
HETATM   18  C   UNL     1     -42.299  57.432 -60.350  1.00  0.00     0.149 C 
HETATM   19  C   UNL     1     -41.758  58.872 -60.450  1.00  0.00     0.073 C 
HETATM   20  C   UNL     1     -42.851  59.665 -59.802  1.00  0.00    -0.047 A 
HETATM   21  C   UNL     1     -43.698  58.843 -59.052  1.00  0.00    -0.027 A 
HETATM   22  C   UNL     1     -43.045  61.036 -59.848  1.00  0.00     0.008 A 
HETATM   23  C   UNL     1     -44.758  59.376 -58.334  1.00  0.00     0.010 A 
HETATM   24  C   UNL     1     -44.967  60.755 -58.382  1.00  0.00     0.001 A 
HETATM   25  C   UNL     1     -44.116  61.579 -59.135  1.00  0.00     0.001 A 
BRANCH  18  26
HETATM   26  O   UNL     1     -41.223  56.502 -60.283  1.00  0.00    -0.393 OA
HETATM   27  H   UNL     1     -40.396  57.029 -60.312  1.00  0.00     0.210 HD
ENDBRANCH  18  26
ENDBRANCH   2  17
TORSDOF 3
ENDMDL
MODEL 8
REMARK VINA RESULT:      -7.6      3.775      7.809
REMARK  3 active torsions:
REMARK  status: ('A' for Active; 'I' for Inactive)
REMARK    1  A    between atoms: C_7  and  C_8 
REMARK       I    between atoms: C_8  and  N_9 
REMARK    2  A    between atoms: N_9  and  C_10 
REMARK    3  A    between atoms: C_11  and  O_12 
ROOT
HETATM    1  C   UNL     1     -43.209  55.870 -55.338  1.00  0.00     0.252 C 
HETATM    2  N   UNL     1     -42.238  54.999 -54.904  1.00  0.00    -0.346 N 
HETATM    3  O   UNL     1     -44.244  56.072 -54.711  1.00  0.00    -0.268 OA
HETATM    4  H   UNL     1     -41.437  54.799 -55.486  1.00  0.00     0.163 HD
ENDROOT
BRANCH   1   5
HETATM    5  C   UNL     1     -42.960  56.540 -56.639  1.00  0.00     0.033 A 
HETATM    6  C   UNL     1     -43.048  55.772 -57.803  1.00  0.00     0.019 A 
HETATM    7  C   UNL     1     -42.794  56.337 -59.055  1.00  0.00     0.031 A 
HETATM    8  C   UNL     1     -42.466  57.697 -59.099  1.00  0.00     0.043 A 
HETATM    9  C   UNL     1     -42.395  58.498 -57.961  1.00  0.00    -0.001 A 
HETATM   10  N   UNL     1     -42.172  58.498 -60.176  1.00  0.00    -0.359 N 
HETATM   11  C   UNL     1     -42.063  59.825 -58.390  1.00  0.00    -0.027 A 
HETATM   12  C   UNL     1     -42.649  57.908 -56.704  1.00  0.00     0.031 A 
HETATM   13  C   UNL     1     -41.896  61.029 -57.530  1.00  0.00     0.051 C 
HETATM   14  C   UNL     1     -41.923  59.784 -59.768  1.00  0.00     0.012 A 
HETATM   15  C   UNL     1     -41.579  60.857 -60.737  1.00  0.00     0.068 C 
HETATM   16  H   UNL     1     -42.149  58.177 -61.134  1.00  0.00     0.166 HD
ENDBRANCH   1   5
BRANCH   2  17
HETATM   17  C   UNL     1     -42.449  54.173 -53.730  1.00  0.00     0.147 C 
HETATM   18  C   UNL     1     -42.188  54.891 -52.367  1.00  0.00     0.149 C 
HETATM   19  C   UNL     1     -40.723  54.594 -51.990  1.00  0.00     0.073 C 
HETATM   20  C   UNL     1     -40.472  53.299 -52.699  1.00  0.00    -0.047 A 
HETATM   21  C   UNL     1     -41.440  53.062 -53.680  1.00  0.00    -0.027 A 
HETATM   22  C   UNL     1     -39.422  52.417 -52.505  1.00  0.00     0.008 A 
HETATM   23  C   UNL     1     -41.377  51.935 -54.486  1.00  0.00     0.010 A 
HETATM   24  C   UNL     1     -40.328  51.036 -54.292  1.00  0.00     0.001 A 
HETATM   25  C   UNL     1     -39.357  51.276 -53.307  1.00  0.00     0.001 A 
BRANCH  18  26
HETATM   26  O   UNL     1     -42.422  56.296 -52.377  1.00  0.00    -0.393 OA
HETATM   27  H   UNL     1     -43.367  56.423 -52.148  1.00  0.00     0.210 HD
ENDBRANCH  18  26
ENDBRANCH   2  17
TORSDOF 3
ENDMDL
MODEL 9
REMARK VINA RESULT:      -7.6      3.245      4.847
REMARK  3 active torsions:
REMARK  status: ('A' for Active; 'I' for Inactive)
REMARK    1  A    between atoms: C_7  and  C_8 
REMARK       I    between atoms: C_8  and  N_9 
REMARK    2  A    between atoms: N_9  and  C_10 
REMARK    3  A    between atoms: C_11  and  O_12 
ROOT
HETATM    1  C   UNL     1     -43.997  56.380 -54.683  1.00  0.00     0.252 C 
HETATM    2  N   UNL     1     -43.506  56.434 -55.966  1.00  0.00    -0.346 N 
HETATM    3  O   UNL     1     -45.004  56.990 -54.335  1.00  0.00    -0.268 OA
HETATM    4  H   UNL     1     -42.630  55.983 -56.194  1.00  0.00     0.163 HD
ENDROOT
BRANCH   1   5
HETATM    5  C   UNL     1     -43.223  55.565 -53.713  1.00  0.00     0.033 A 
HETATM    6  C   UNL     1     -43.377  55.838 -52.352  1.00  0.00     0.019 A 
HETATM    7  C   UNL     1     -42.654  55.127 -51.391  1.00  0.00     0.031 A 
HETATM    8  C   UNL     1     -41.787  54.126 -51.843  1.00  0.00     0.043 A 
HETATM    9  C   UNL     1     -41.628  53.809 -53.191  1.00  0.00    -0.001 A 
HETATM   10  N   UNL     1     -40.965  53.285 -51.131  1.00  0.00    -0.359 N 
HETATM   11  C   UNL     1     -40.690  52.728 -53.270  1.00  0.00    -0.027 A 
HETATM   12  C   UNL     1     -42.363  54.543 -54.147  1.00  0.00     0.031 A 
HETATM   13  C   UNL     1     -40.219  52.039 -54.503  1.00  0.00     0.051 C 
HETATM   14  C   UNL     1     -40.294  52.437 -51.975  1.00  0.00     0.012 A 
HETATM   15  C   UNL     1     -39.338  51.422 -51.461  1.00  0.00     0.068 C 
HETATM   16  H   UNL     1     -40.878  53.293 -50.125  1.00  0.00     0.166 HD
ENDBRANCH   1   5
BRANCH   2  17
HETATM   17  C   UNL     1     -44.089  57.324 -56.951  1.00  0.00     0.147 C 
HETATM   18  C   UNL     1     -44.030  56.802 -58.423  1.00  0.00     0.149 C 
HETATM   19  C   UNL     1     -42.745  57.386 -59.042  1.00  0.00     0.073 C 
HETATM   20  C   UNL     1     -42.540  58.627 -58.230  1.00  0.00    -0.047 A 
HETATM   21  C   UNL     1     -43.293  58.593 -57.052  1.00  0.00    -0.027 A 
HETATM   22  C   UNL     1     -41.701  59.694 -58.510  1.00  0.00     0.008 A 
HETATM   23  C   UNL     1     -43.224  59.627 -56.131  1.00  0.00     0.010 A 
HETATM   24  C   UNL     1     -42.388  60.710 -56.408  1.00  0.00     0.001 A 
HETATM   25  C   UNL     1     -41.633  60.743 -57.591  1.00  0.00     0.001 A 
BRANCH  18  26
HETATM   26  O   UNL     1     -44.044  55.384 -58.555  1.00  0.00    -0.393 OA
HETATM   27  H   UNL     1     -44.683  55.049 -57.890  1.00  0.00     0.210 HD
ENDBRANCH  18  26
ENDBRANCH   2  17
TORSDOF 3
ENDMDL
MODEL 10
REMARK VINA RESULT:      -7.5      3.464      5.082
REMARK  3 active torsions:
REMARK  status: ('A' for Active; 'I' for Inactive)
REMARK    1  A    between atoms: C_7  and  C_8 
REMARK       I    between atoms: C_8  and  N_9 
REMARK    2  A    between atoms: N_9  and  C_10 
REMARK    3  A    between atoms: C_11  and  O_12 
ROOT
HETATM    1  C   UNL     1     -42.034  58.166 -54.510  1.00  0.00     0.252 C 
HETATM    2  N   UNL     1     -43.139  57.951 -55.299  1.00  0.00    -0.346 N 
HETATM    3  O   UNL     1     -41.360  59.190 -54.581  1.00  0.00    -0.268 OA
HETATM    4  H   UNL     1     -43.621  57.064 -55.268  1.00  0.00     0.163 HD
ENDROOT
BRANCH   1   5
HETATM    5  C   UNL     1     -41.668  57.073 -53.575  1.00  0.00     0.033 A 
HETATM    6  C   UNL     1     -41.733  57.329 -52.204  1.00  0.00     0.019 A 
HETATM    7  C   UNL     1     -41.372  56.352 -51.273  1.00  0.00     0.031 A 
HETATM    8  C   UNL     1     -40.961  55.109 -51.766  1.00  0.00     0.043 A 
HETATM    9  C   UNL     1     -40.908  54.809 -53.127  1.00  0.00    -0.001 A 
HETATM   10  N   UNL     1     -40.555  53.984 -51.089  1.00  0.00    -0.359 N 
HETATM   11  C   UNL     1     -40.472  53.450 -53.250  1.00  0.00    -0.027 A 
HETATM   12  C   UNL     1     -41.271  55.813 -54.051  1.00  0.00     0.031 A 
HETATM   13  C   UNL     1     -40.284  52.681 -54.512  1.00  0.00     0.051 C 
HETATM   14  C   UNL     1     -40.254  52.973 -51.968  1.00  0.00     0.012 A 
HETATM   15  C   UNL     1     -39.789  51.643 -51.497  1.00  0.00     0.068 C 
HETATM   16  H   UNL     1     -40.495  53.916 -50.083  1.00  0.00     0.166 HD
ENDBRANCH   1   5
BRANCH   2  17
HETATM   17  C   UNL     1     -43.493  58.881 -56.356  1.00  0.00     0.147 C 
HETATM   18  C   UNL     1     -44.995  59.312 -56.374  1.00  0.00     0.149 C 
HETATM   19  C   UNL     1     -45.714  58.349 -57.339  1.00  0.00     0.073 C 
HETATM   20  C   UNL     1     -44.604  57.932 -58.253  1.00  0.00    -0.047 A 
HETATM   21  C   UNL     1     -43.354  58.227 -57.700  1.00  0.00    -0.027 A 
HETATM   22  C   UNL     1     -44.709  57.291 -59.477  1.00  0.00     0.008 A 
HETATM   23  C   UNL     1     -42.183  57.890 -58.363  1.00  0.00     0.010 A 
HETATM   24  C   UNL     1     -42.279  57.253 -59.601  1.00  0.00     0.001 A 
HETATM   25  C   UNL     1     -43.535  56.957 -60.154  1.00  0.00     0.001 A 
BRANCH  18  26
HETATM   26  O   UNL     1     -45.633  59.306 -55.100  1.00  0.00    -0.393 OA
HETATM   27  H   UNL     1     -45.047  58.801 -54.497  1.00  0.00     0.210 HD
ENDBRANCH  18  26
ENDBRANCH   2  17
TORSDOF 3
ENDMDL
