MODEL 1
REMARK VINA RESULT:      -7.7      0.000      0.000
REMARK  8 active torsions:
REMARK  status: ('A' for Active; 'I' for Inactive)
REMARK    1  A    between atoms: C_2  and  C_3 
REMARK    2  A    between atoms: C_3  and  O_4 
REMARK    3  A    between atoms: O_4  and  C_5 
REMARK    4  A    between atoms: C_6  and  O_7 
REMARK    5  A    between atoms: O_7  and  C_8 
REMARK    6  A    between atoms: C_8  and  C_9 
REMARK    7  A    between atoms: C_12  and  N_13 
REMARK       I    between atoms: N_13  and  C_14 
REMARK    8  A    between atoms: C_14  and  C_15 
ROOT
HETATM    1  N   UNL     1     -42.131  55.849 -55.150  1.00  0.00    -0.322 N 
HETATM    2  C   UNL     1     -42.823  55.032 -54.279  1.00  0.00     0.277 C 
HETATM    3  O   UNL     1     -43.983  54.662 -54.343  1.00  0.00    -0.266 OA
HETATM    4  H   UNL     1     -41.205  56.118 -54.825  1.00  0.00     0.169 HD
ENDROOT
BRANCH   1   5
HETATM    5  C   UNL     1     -42.590  56.433 -56.342  1.00  0.00     0.037 A 
HETATM    6  C   UNL     1     -42.756  55.734 -57.540  1.00  0.00     0.069 A 
HETATM    7  C   UNL     1     -43.231  56.384 -58.689  1.00  0.00     0.104 A 
HETATM    8  C   UNL     1     -43.545  57.756 -58.638  1.00  0.00     0.102 A 
HETATM    9  C   UNL     1     -43.363  58.456 -57.443  1.00  0.00     0.042 A 
HETATM   10  C   UNL     1     -42.891  57.798 -56.305  1.00  0.00     0.032 A 
BRANCH   7  11
HETATM   11  O   UNL     1     -43.434  55.769 -59.901  1.00  0.00    -0.348 OA
BRANCH  11  12
HETATM   12  C   UNL     1     -44.511  54.843 -60.011  1.00  0.00     0.175 C 
BRANCH  12  13
HETATM   13  C   UNL     1     -45.515  55.373 -61.032  1.00  0.00     0.022 C 
HETATM   14  C   UNL     1     -46.684  56.098 -60.379  1.00  0.00     0.007 C 
ENDBRANCH  12  13
ENDBRANCH  11  12
ENDBRANCH   7  11
BRANCH   8  15
HETATM   15  O   UNL     1     -44.005  58.318 -59.802  1.00  0.00    -0.348 OA
BRANCH  15  16
HETATM   16  C   UNL     1     -43.557  59.632 -60.126  1.00  0.00     0.175 C 
BRANCH  16  17
HETATM   17  C   UNL     1     -42.188  59.512 -60.788  1.00  0.00     0.022 C 
HETATM   18  C   UNL     1     -41.753  60.819 -61.427  1.00  0.00     0.007 C 
ENDBRANCH  16  17
ENDBRANCH  15  16
ENDBRANCH   8  15
ENDBRANCH   1   5
BRANCH   2  19
HETATM   19  C   UNL     1     -41.950  54.606 -53.097  1.00  0.00     0.156 A 
HETATM   20  N   UNL     1     -41.953  55.421 -52.077  1.00  0.00    -0.166 NA
HETATM   21  N   UNL     1     -41.198  55.094 -50.993  1.00  0.00    -0.242 N 
HETATM   22  C   UNL     1     -40.421  53.967 -50.858  1.00  0.00     0.272 A 
HETATM   23  H   UNL     1     -41.241  55.721 -50.195  1.00  0.00     0.192 HD
HETATM   24  O   UNL     1     -39.784  53.731 -49.838  1.00  0.00    -0.266 OA
HETATM   25  C   UNL     1     -40.386  53.062 -52.018  1.00  0.00     0.046 A 
HETATM   26  C   UNL     1     -41.139  53.370 -53.151  1.00  0.00     0.016 A 
HETATM   27  C   UNL     1     -39.585  51.913 -51.983  1.00  0.00     0.018 A 
HETATM   28  C   UNL     1     -41.075  52.526 -54.266  1.00  0.00     0.015 A 
HETATM   29  C   UNL     1     -40.277  51.378 -54.231  1.00  0.00     0.001 A 
HETATM   30  C   UNL     1     -39.535  51.071 -53.092  1.00  0.00     0.001 A 
ENDBRANCH   2  19
TORSDOF 8
ENDMDL
MODEL 2
REMARK VINA RESULT:      -7.6      1.971      2.381
REMARK  8 active torsions:
REMARK  status: ('A' for Active; 'I' for Inactive)
REMARK    1  A    between atoms: C_2  and  C_3 
REMARK    2  A    between atoms: C_3  and  O_4 
REMARK    3  A    between atoms: O_4  and  C_5 
REMARK    4  A    between atoms: C_6  and  O_7 
REMARK    5  A    between atoms: O_7  and  C_8 
REMARK    6  A    between atoms: C_8  and  C_9 
REMARK    7  A    between atoms: C_12  and  N_13 
REMARK       I    between atoms: N_13  and  C_14 
REMARK    8  A    between atoms: C_14  and  C_15 
ROOT
HETATM    1  N   UNL     1     -42.663  55.856 -54.106  1.00  0.00    -0.322 N 
HETATM    2  C   UNL     1     -41.459  56.193 -53.523  1.00  0.00     0.277 C 
HETATM    3  O   UNL     1     -40.679  57.075 -53.841  1.00  0.00    -0.266 OA
HETATM    4  H   UNL     1     -43.082  55.004 -53.741  1.00  0.00     0.169 HD
ENDROOT
BRANCH   1   5
HETATM    5  C   UNL     1     -43.300  56.471 -55.198  1.00  0.00     0.037 A 
HETATM    6  C   UNL     1     -42.821  56.423 -56.509  1.00  0.00     0.069 A 
HETATM    7  C   UNL     1     -43.519  57.054 -57.550  1.00  0.00     0.104 A 
HETATM    8  C   UNL     1     -44.716  57.743 -57.274  1.00  0.00     0.102 A 
HETATM    9  C   UNL     1     -45.185  57.801 -55.959  1.00  0.00     0.042 A 
HETATM   10  C   UNL     1     -44.482  57.168 -54.931  1.00  0.00     0.032 A 
BRANCH   7  11
HETATM   11  O   UNL     1     -43.124  57.045 -58.866  1.00  0.00    -0.348 OA
BRANCH  11  12
HETATM   12  C   UNL     1     -42.880  55.785 -59.485  1.00  0.00     0.175 C 
BRANCH  12  13
HETATM   13  C   UNL     1     -44.152  55.328 -60.194  1.00  0.00     0.022 C 
HETATM   14  C   UNL     1     -44.735  54.060 -59.588  1.00  0.00     0.007 C 
ENDBRANCH  12  13
ENDBRANCH  11  12
ENDBRANCH   7  11
BRANCH   8  15
HETATM   15  O   UNL     1     -45.340  58.330 -58.345  1.00  0.00    -0.348 OA
BRANCH  15  16
HETATM   16  C   UNL     1     -46.617  57.824 -58.727  1.00  0.00     0.175 C 
BRANCH  16  17
HETATM   17  C   UNL     1     -46.763  58.009 -60.235  1.00  0.00     0.022 C 
HETATM   18  C   UNL     1     -47.359  56.780 -60.899  1.00  0.00     0.007 C 
ENDBRANCH  16  17
ENDBRANCH  15  16
ENDBRANCH   8  15
ENDBRANCH   1   5
BRANCH   2  19
HETATM   19  C   UNL     1     -41.127  55.268 -52.350  1.00  0.00     0.156 A 
HETATM   20  N   UNL     1     -41.301  55.783 -51.164  1.00  0.00    -0.166 NA
HETATM   21  N   UNL     1     -41.025  55.007 -50.081  1.00  0.00    -0.242 N 
HETATM   22  C   UNL     1     -40.581  53.706 -50.110  1.00  0.00     0.272 A 
HETATM   23  H   UNL     1     -41.200  55.413 -49.166  1.00  0.00     0.192 HD
HETATM   24  O   UNL     1     -40.376  53.062 -49.087  1.00  0.00    -0.266 OA
HETATM   25  C   UNL     1     -40.351  53.129 -51.444  1.00  0.00     0.046 A 
HETATM   26  C   UNL     1     -40.612  53.900 -52.578  1.00  0.00     0.016 A 
HETATM   27  C   UNL     1     -39.856  51.824 -51.566  1.00  0.00     0.018 A 
HETATM   28  C   UNL     1     -40.357  53.362 -53.844  1.00  0.00     0.015 A 
HETATM   29  C   UNL     1     -39.864  52.058 -53.967  1.00  0.00     0.001 A 
HETATM   30  C   UNL     1     -39.616  51.290 -52.830  1.00  0.00     0.001 A 
ENDBRANCH   2  19
TORSDOF 8
ENDMDL
MODEL 3
REMARK VINA RESULT:      -7.4      2.019      3.030
REMARK  8 active torsions:
REMARK  status: ('A' for Active; 'I' for Inactive)
REMARK    1  A    between atoms: C_2  and  C_3 
REMARK    2  A    between atoms: C_3  and  O_4 
REMARK    3  A    between atoms: O_4  and  C_5 
REMARK    4  A    between atoms: C_6  and  O_7 
REMARK    5  A    between atoms: O_7  and  C_8 
REMARK    6  A    between atoms: C_8  and  C_9 
REMARK    7  A    between atoms: C_12  and  N_13 
REMARK       I    between atoms: N_13  and  C_14 
REMARK    8  A    between atoms: C_14  and  C_15 
ROOT
HETATM    1  N   UNL     1     -42.651  55.883 -54.285  1.00  0.00    -0.322 N 
HETATM    2  C   UNL     1     -41.587  56.382 -53.561  1.00  0.00     0.277 C 
HETATM    3  O   UNL     1     -40.764  57.217 -53.895  1.00  0.00    -0.266 OA
HETATM    4  H   UNL     1     -43.130  55.103 -53.842  1.00  0.00     0.169 HD
ENDROOT
BRANCH   1   5
HETATM    5  C   UNL     1     -43.062  56.242 -55.580  1.00  0.00     0.037 A 
HETATM    6  C   UNL     1     -43.781  57.403 -55.878  1.00  0.00     0.069 A 
HETATM    7  C   UNL     1     -44.148  57.698 -57.199  1.00  0.00     0.104 A 
HETATM    8  C   UNL     1     -43.790  56.819 -58.239  1.00  0.00     0.102 A 
HETATM    9  C   UNL     1     -43.085  55.652 -57.937  1.00  0.00     0.042 A 
HETATM   10  C   UNL     1     -42.724  55.368 -56.618  1.00  0.00     0.032 A 
BRANCH   7  11
HETATM   11  O   UNL     1     -44.843  58.822 -57.578  1.00  0.00    -0.348 OA
BRANCH  11  12
HETATM   12  C   UNL     1     -46.067  59.112 -56.910  1.00  0.00     0.175 C 
BRANCH  12  13
HETATM   13  C   UNL     1     -47.226  58.588 -57.756  1.00  0.00     0.022 C 
HETATM   14  C   UNL     1     -47.403  59.370 -59.050  1.00  0.00     0.007 C 
ENDBRANCH  12  13
ENDBRANCH  11  12
ENDBRANCH   7  11
BRANCH   8  15
HETATM   15  O   UNL     1     -44.183  57.181 -59.503  1.00  0.00    -0.348 OA
BRANCH  15  16
HETATM   16  C   UNL     1     -44.689  56.158 -60.357  1.00  0.00     0.175 C 
BRANCH  16  17
HETATM   17  C   UNL     1     -46.152  55.923 -59.993  1.00  0.00     0.022 C 
HETATM   18  C   UNL     1     -47.088  56.347 -61.111  1.00  0.00     0.007 C 
ENDBRANCH  16  17
ENDBRANCH  15  16
ENDBRANCH   8  15
ENDBRANCH   1   5
BRANCH   2  19
HETATM   19  C   UNL     1     -41.490  55.722 -52.184  1.00  0.00     0.156 A 
HETATM   20  N   UNL     1     -41.894  56.455 -51.183  1.00  0.00    -0.166 NA
HETATM   21  N   UNL     1     -41.835  55.921 -49.932  1.00  0.00    -0.242 N 
HETATM   22  C   UNL     1     -41.391  54.660 -49.611  1.00  0.00     0.272 A 
HETATM   23  H   UNL     1     -42.187  56.493 -49.169  1.00  0.00     0.192 HD
HETATM   24  O   UNL     1     -41.389  54.241 -48.459  1.00  0.00    -0.266 OA
HETATM   25  C   UNL     1     -40.902  53.840 -50.732  1.00  0.00     0.046 A 
HETATM   26  C   UNL     1     -40.937  54.359 -52.026  1.00  0.00     0.016 A 
HETATM   27  C   UNL     1     -40.391  52.559 -50.489  1.00  0.00     0.018 A 
HETATM   28  C   UNL     1     -40.438  53.591 -53.085  1.00  0.00     0.015 A 
HETATM   29  C   UNL     1     -39.928  52.311 -52.844  1.00  0.00     0.001 A 
HETATM   30  C   UNL     1     -39.906  51.795 -51.549  1.00  0.00     0.001 A 
ENDBRANCH   2  19
TORSDOF 8
ENDMDL
MODEL 4
REMARK VINA RESULT:      -7.4      2.436      9.056
REMARK  8 active torsions:
REMARK  status: ('A' for Active; 'I' for Inactive)
REMARK    1  A    between atoms: C_2  and  C_3 
REMARK    2  A    between atoms: C_3  and  O_4 
REMARK    3  A    between atoms: O_4  and  C_5 
REMARK    4  A    between atoms: C_6  and  O_7 
REMARK    5  A    between atoms: O_7  and  C_8 
REMARK    6  A    between atoms: C_8  and  C_9 
REMARK    7  A    between atoms: C_12  and  N_13 
REMARK       I    between atoms: N_13  and  C_14 
REMARK    8  A    between atoms: C_14  and  C_15 
ROOT
HETATM    1  N   UNL     1     -41.244  56.685 -55.115  1.00  0.00    -0.322 N 
HETATM    2  C   UNL     1     -42.442  57.137 -55.630  1.00  0.00     0.277 C 
HETATM    3  O   UNL     1     -43.534  56.594 -55.604  1.00  0.00    -0.266 OA
HETATM    4  H   UNL     1     -40.440  57.256 -55.364  1.00  0.00     0.169 HD
ENDROOT
BRANCH   1   5
HETATM    5  C   UNL     1     -40.997  55.497 -54.408  1.00  0.00     0.037 A 
HETATM    6  C   UNL     1     -41.197  55.351 -53.032  1.00  0.00     0.069 A 
HETATM    7  C   UNL     1     -40.938  54.128 -52.397  1.00  0.00     0.104 A 
HETATM    8  C   UNL     1     -40.471  53.033 -53.150  1.00  0.00     0.102 A 
HETATM    9  C   UNL     1     -40.257  53.186 -54.521  1.00  0.00     0.042 A 
HETATM   10  C   UNL     1     -40.520  54.408 -55.143  1.00  0.00     0.032 A 
BRANCH   7  11
HETATM   11  O   UNL     1     -41.120  53.896 -51.055  1.00  0.00    -0.348 OA
BRANCH  11  12
HETATM   12  C   UNL     1     -41.638  54.956 -50.255  1.00  0.00     0.175 C 
BRANCH  12  13
HETATM   13  C   UNL     1     -41.100  54.811 -48.834  1.00  0.00     0.022 C 
HETATM   14  C   UNL     1     -40.336  53.510 -48.629  1.00  0.00     0.007 C 
ENDBRANCH  12  13
ENDBRANCH  11  12
ENDBRANCH   7  11
BRANCH   8  15
HETATM   15  O   UNL     1     -40.243  51.871 -52.455  1.00  0.00    -0.348 OA
BRANCH  15  16
HETATM   16  C   UNL     1     -39.629  50.791 -53.154  1.00  0.00     0.175 C 
BRANCH  16  17
HETATM   17  C   UNL     1     -39.595  49.586 -52.219  1.00  0.00     0.022 C 
HETATM   18  C   UNL     1     -39.707  49.999 -50.762  1.00  0.00     0.007 C 
ENDBRANCH  16  17
ENDBRANCH  15  16
ENDBRANCH   8  15
ENDBRANCH   1   5
BRANCH   2  19
HETATM   19  C   UNL     1     -42.277  58.487 -56.329  1.00  0.00     0.156 A 
HETATM   20  N   UNL     1     -42.231  59.525 -55.539  1.00  0.00    -0.166 NA
HETATM   21  N   UNL     1     -42.081  60.755 -56.103  1.00  0.00    -0.242 N 
HETATM   22  C   UNL     1     -41.964  61.019 -57.447  1.00  0.00     0.272 A 
HETATM   23  H   UNL     1     -42.011  61.547 -55.470  1.00  0.00     0.192 HD
HETATM   24  O   UNL     1     -41.810  62.156 -57.878  1.00  0.00    -0.266 OA
HETATM   25  C   UNL     1     -42.050  59.857 -58.347  1.00  0.00     0.046 A 
HETATM   26  C   UNL     1     -42.215  58.582 -57.804  1.00  0.00     0.016 A 
HETATM   27  C   UNL     1     -41.986  60.041 -59.733  1.00  0.00     0.018 A 
HETATM   28  C   UNL     1     -42.332  57.484 -58.663  1.00  0.00     0.015 A 
HETATM   29  C   UNL     1     -42.267  57.666 -60.048  1.00  0.00     0.001 A 
HETATM   30  C   UNL     1     -42.092  58.942 -60.583  1.00  0.00     0.001 A 
ENDBRANCH   2  19
TORSDOF 8
ENDMDL
MODEL 5
REMARK VINA RESULT:      -7.3      1.351      3.233
REMARK  8 active torsions:
REMARK  status: ('A' for Active; 'I' for Inactive)
REMARK    1  A    between atoms: C_2  and  C_3 
REMARK    2  A    between atoms: C_3  and  O_4 
REMARK    3  A    between atoms: O_4  and  C_5 
REMARK    4  A    between atoms: C_6  and  O_7 
REMARK    5  A    between atoms: O_7  and  C_8 
REMARK    6  A    between atoms: C_8  and  C_9 
REMARK    7  A    between atoms: C_12  and  N_13 
REMARK       I    between atoms: N_13  and  C_14 
REMARK    8  A    between atoms: C_14  and  C_15 
ROOT
HETATM    1  N   UNL     1     -41.988  55.839 -55.063  1.00  0.00    -0.322 N 
HETATM    2  C   UNL     1     -42.719  55.101 -54.155  1.00  0.00     0.277 C 
HETATM    3  O   UNL     1     -43.907  54.828 -54.177  1.00  0.00    -0.266 OA
HETATM    4  H   UNL     1     -41.034  56.037 -54.771  1.00  0.00     0.169 HD
ENDROOT
BRANCH   1   5
HETATM    5  C   UNL     1     -42.433  56.433 -56.256  1.00  0.00     0.037 A 
HETATM    6  C   UNL     1     -42.432  57.811 -56.490  1.00  0.00     0.069 A 
HETATM    7  C   UNL     1     -42.883  58.330 -57.712  1.00  0.00     0.104 A 
HETATM    8  C   UNL     1     -43.342  57.457 -58.718  1.00  0.00     0.102 A 
HETATM    9  C   UNL     1     -43.356  56.081 -58.476  1.00  0.00     0.042 A 
HETATM   10  C   UNL     1     -42.903  55.576 -57.255  1.00  0.00     0.032 A 
BRANCH   7  11
HETATM   11  O   UNL     1     -42.904  59.668 -58.027  1.00  0.00    -0.348 OA
BRANCH  11  12
HETATM   12  C   UNL     1     -41.736  60.439 -57.759  1.00  0.00     0.175 C 
BRANCH  12  13
HETATM   13  C   UNL     1     -41.525  61.428 -58.902  1.00  0.00     0.022 C 
HETATM   14  C   UNL     1     -40.265  62.264 -58.724  1.00  0.00     0.007 C 
ENDBRANCH  12  13
ENDBRANCH  11  12
ENDBRANCH   7  11
BRANCH   8  15
HETATM   15  O   UNL     1     -43.764  58.042 -59.885  1.00  0.00    -0.348 OA
BRANCH  15  16
HETATM   16  C   UNL     1     -45.069  57.715 -60.356  1.00  0.00     0.175 C 
BRANCH  16  17
HETATM   17  C   UNL     1     -46.071  58.584 -59.604  1.00  0.00     0.022 C 
HETATM   18  C   UNL     1     -46.886  57.775 -58.609  1.00  0.00     0.007 C 
ENDBRANCH  16  17
ENDBRANCH  15  16
ENDBRANCH   8  15
ENDBRANCH   1   5
BRANCH   2  19
HETATM   19  C   UNL     1     -41.849  54.631 -52.987  1.00  0.00     0.156 A 
HETATM   20  N   UNL     1     -41.827  55.424 -51.951  1.00  0.00    -0.166 NA
HETATM   21  N   UNL     1     -41.073  55.057 -50.879  1.00  0.00    -0.242 N 
HETATM   22  C   UNL     1     -40.324  53.909 -50.772  1.00  0.00     0.272 A 
HETATM   23  H   UNL     1     -41.096  55.668 -50.068  1.00  0.00     0.192 HD
HETATM   24  O   UNL     1     -39.686  53.637 -49.761  1.00  0.00    -0.266 OA
HETATM   25  C   UNL     1     -40.317  53.027 -51.950  1.00  0.00     0.046 A 
HETATM   26  C   UNL     1     -41.069  53.377 -53.072  1.00  0.00     0.016 A 
HETATM   27  C   UNL     1     -39.544  51.858 -51.944  1.00  0.00     0.018 A 
HETATM   28  C   UNL     1     -41.033  52.555 -54.204  1.00  0.00     0.015 A 
HETATM   29  C   UNL     1     -40.262  51.387 -54.198  1.00  0.00     0.001 A 
HETATM   30  C   UNL     1     -39.521  51.038 -53.070  1.00  0.00     0.001 A 
ENDBRANCH   2  19
TORSDOF 8
ENDMDL
MODEL 6
REMARK VINA RESULT:      -7.3      1.042      1.254
REMARK  8 active torsions:
REMARK  status: ('A' for Active; 'I' for Inactive)
REMARK    1  A    between atoms: C_2  and  C_3 
REMARK    2  A    between atoms: C_3  and  O_4 
REMARK    3  A    between atoms: O_4  and  C_5 
REMARK    4  A    between atoms: C_6  and  O_7 
REMARK    5  A    between atoms: O_7  and  C_8 
REMARK    6  A    between atoms: C_8  and  C_9 
REMARK    7  A    between atoms: C_12  and  N_13 
REMARK       I    between atoms: N_13  and  C_14 
REMARK    8  A    between atoms: C_14  and  C_15 
ROOT
HETATM    1  N   UNL     1     -42.273  56.357 -54.481  1.00  0.00    -0.322 N 
HETATM    2  C   UNL     1     -42.918  55.250 -53.969  1.00  0.00     0.277 C 
HETATM    3  O   UNL     1     -43.959  54.735 -54.342  1.00  0.00    -0.266 OA
HETATM    4  H   UNL     1     -41.480  56.672 -53.928  1.00  0.00     0.169 HD
ENDROOT
BRANCH   1   5
HETATM    5  C   UNL     1     -42.647  57.148 -55.581  1.00  0.00     0.037 A 
HETATM    6  C   UNL     1     -42.441  56.779 -56.913  1.00  0.00     0.069 A 
HETATM    7  C   UNL     1     -42.852  57.617 -57.960  1.00  0.00     0.104 A 
HETATM    8  C   UNL     1     -43.480  58.844 -57.669  1.00  0.00     0.102 A 
HETATM    9  C   UNL     1     -43.671  59.217 -56.337  1.00  0.00     0.042 A 
HETATM   10  C   UNL     1     -43.259  58.373 -55.303  1.00  0.00     0.032 A 
BRANCH   7  11
HETATM   11  O   UNL     1     -42.699  57.326 -59.294  1.00  0.00    -0.348 OA
BRANCH  11  12
HETATM   12  C   UNL     1     -42.766  55.960 -59.694  1.00  0.00     0.175 C 
BRANCH  12  13
HETATM   13  C   UNL     1     -44.201  55.634 -60.098  1.00  0.00     0.022 C 
HETATM   14  C   UNL     1     -44.612  54.222 -59.704  1.00  0.00     0.007 C 
ENDBRANCH  12  13
ENDBRANCH  11  12
ENDBRANCH   7  11
BRANCH   8  15
HETATM   15  O   UNL     1     -43.855  59.605 -58.747  1.00  0.00    -0.348 OA
BRANCH  15  16
HETATM   16  C   UNL     1     -43.361  60.941 -58.819  1.00  0.00     0.175 C 
BRANCH  16  17
HETATM   17  C   UNL     1     -41.922  60.884 -59.323  1.00  0.00     0.022 C 
HETATM   18  C   UNL     1     -41.848  60.413 -60.765  1.00  0.00     0.007 C 
ENDBRANCH  16  17
ENDBRANCH  15  16
ENDBRANCH   8  15
ENDBRANCH   1   5
BRANCH   2  19
HETATM   19  C   UNL     1     -42.173  54.677 -52.762  1.00  0.00     0.156 A 
HETATM   20  N   UNL     1     -42.392  55.286 -51.629  1.00  0.00    -0.166 NA
HETATM   21  N   UNL     1     -41.760  54.819 -50.517  1.00  0.00    -0.242 N 
HETATM   22  C   UNL     1     -40.902  53.746 -50.465  1.00  0.00     0.272 A 
HETATM   23  H   UNL     1     -41.970  55.283 -49.638  1.00  0.00     0.192 HD
HETATM   24  O   UNL     1     -40.387  53.372 -49.418  1.00  0.00    -0.266 OA
HETATM   25  C   UNL     1     -40.623  53.076 -51.746  1.00  0.00     0.046 A 
HETATM   26  C   UNL     1     -41.246  53.534 -52.908  1.00  0.00     0.016 A 
HETATM   27  C   UNL     1     -39.727  52.001 -51.791  1.00  0.00     0.018 A 
HETATM   28  C   UNL     1     -40.951  52.918 -54.129  1.00  0.00     0.015 A 
HETATM   29  C   UNL     1     -40.056  51.844 -54.176  1.00  0.00     0.001 A 
HETATM   30  C   UNL     1     -39.447  51.385 -53.009  1.00  0.00     0.001 A 
ENDBRANCH   2  19
TORSDOF 8
ENDMDL
MODEL 7
REMARK VINA RESULT:      -7.2      2.302      3.134
REMARK  8 active torsions:
REMARK  status: ('A' for Active; 'I' for Inactive)
REMARK    1  A    between atoms: C_2  and  C_3 
REMARK    2  A    between atoms: C_3  and  O_4 
REMARK    3  A    between atoms: O_4  and  C_5 
REMARK    4  A    between atoms: C_6  and  O_7 
REMARK    5  A    between atoms: O_7  and  C_8 
REMARK    6  A    between atoms: C_8  and  C_9 
REMARK    7  A    between atoms: C_12  and  N_13 
REMARK       I    between atoms: N_13  and  C_14 
REMARK    8  A    between atoms: C_14  and  C_15 
ROOT
HETATM    1  N   UNL     1     -42.076  54.567 -54.755  1.00  0.00    -0.322 N 
HETATM    2  C   UNL     1     -40.725  54.482 -54.487  1.00  0.00     0.277 C 
HETATM    3  O   UNL     1     -39.806  55.096 -55.002  1.00  0.00    -0.266 OA
HETATM    4  H   UNL     1     -42.641  53.867 -54.281  1.00  0.00     0.169 HD
ENDROOT
BRANCH   1   5
HETATM    5  C   UNL     1     -42.726  55.409 -55.673  1.00  0.00     0.037 A 
HETATM    6  C   UNL     1     -42.771  55.176 -57.050  1.00  0.00     0.069 A 
HETATM    7  C   UNL     1     -43.450  56.059 -57.903  1.00  0.00     0.104 A 
HETATM    8  C   UNL     1     -44.095  57.191 -57.370  1.00  0.00     0.102 A 
HETATM    9  C   UNL     1     -44.036  57.430 -55.995  1.00  0.00     0.042 A 
HETATM   10  C   UNL     1     -43.358  56.544 -55.155  1.00  0.00     0.032 A 
BRANCH   7  11
HETATM   11  O   UNL     1     -43.553  55.897 -59.264  1.00  0.00    -0.348 OA
BRANCH  11  12
HETATM   12  C   UNL     1     -44.303  54.789 -59.753  1.00  0.00     0.175 C 
BRANCH  12  13
HETATM   13  C   UNL     1     -45.037  55.212 -61.024  1.00  0.00     0.022 C 
HETATM   14  C   UNL     1     -46.330  55.958 -60.729  1.00  0.00     0.007 C 
ENDBRANCH  12  13
ENDBRANCH  11  12
ENDBRANCH   7  11
BRANCH   8  15
HETATM   15  O   UNL     1     -44.739  58.003 -58.269  1.00  0.00    -0.348 OA
BRANCH  15  16
HETATM   16  C   UNL     1     -45.653  58.968 -57.755  1.00  0.00     0.175 C 
BRANCH  16  17
HETATM   17  C   UNL     1     -47.023  58.691 -58.367  1.00  0.00     0.022 C 
HETATM   18  C   UNL     1     -48.036  59.758 -57.991  1.00  0.00     0.007 C 
ENDBRANCH  16  17
ENDBRANCH  15  16
ENDBRANCH   8  15
ENDBRANCH   1   5
BRANCH   2  19
HETATM   19  C   UNL     1     -40.433  53.435 -53.410  1.00  0.00     0.156 A 
HETATM   20  N   UNL     1     -40.072  52.261 -53.854  1.00  0.00    -0.166 NA
HETATM   21  N   UNL     1     -39.796  51.288 -52.943  1.00  0.00    -0.242 N 
HETATM   22  C   UNL     1     -39.852  51.421 -51.576  1.00  0.00     0.272 A 
HETATM   23  H   UNL     1     -39.482  50.393 -53.306  1.00  0.00     0.192 HD
HETATM   24  O   UNL     1     -39.566  50.501 -50.818  1.00  0.00    -0.266 OA
HETATM   25  C   UNL     1     -40.291  52.731 -51.069  1.00  0.00     0.046 A 
HETATM   26  C   UNL     1     -40.594  53.749 -51.974  1.00  0.00     0.016 A 
HETATM   27  C   UNL     1     -40.419  52.940 -49.690  1.00  0.00     0.018 A 
HETATM   28  C   UNL     1     -41.046  54.982 -51.490  1.00  0.00     0.015 A 
HETATM   29  C   UNL     1     -41.173  55.192 -50.113  1.00  0.00     0.001 A 
HETATM   30  C   UNL     1     -40.859  54.174 -49.215  1.00  0.00     0.001 A 
ENDBRANCH   2  19
TORSDOF 8
ENDMDL
MODEL 8
REMARK VINA RESULT:      -7.1      2.556      9.013
REMARK  8 active torsions:
REMARK  status: ('A' for Active; 'I' for Inactive)
REMARK    1  A    between atoms: C_2  and  C_3 
REMARK    2  A    between atoms: C_3  and  O_4 
REMARK    3  A    between atoms: O_4  and  C_5 
REMARK    4  A    between atoms: C_6  and  O_7 
REMARK    5  A    between atoms: O_7  and  C_8 
REMARK    6  A    between atoms: C_8  and  C_9 
REMARK    7  A    between atoms: C_12  and  N_13 
REMARK       I    between atoms: N_13  and  C_14 
REMARK    8  A    between atoms: C_14  and  C_15 
ROOT
HETATM    1  N   UNL     1     -43.519  55.978 -55.554  1.00  0.00    -0.322 N 
HETATM    2  C   UNL     1     -43.118  56.881 -56.517  1.00  0.00     0.277 C 
HETATM    3  O   UNL     1     -42.013  57.365 -56.694  1.00  0.00    -0.266 OA
HETATM    4  H   UNL     1     -44.522  55.811 -55.528  1.00  0.00     0.169 HD
ENDROOT
BRANCH   1   5
HETATM    5  C   UNL     1     -42.738  55.372 -54.555  1.00  0.00     0.037 A 
HETATM    6  C   UNL     1     -42.315  56.023 -53.392  1.00  0.00     0.069 A 
HETATM    7  C   UNL     1     -41.545  55.348 -52.434  1.00  0.00     0.104 A 
HETATM    8  C   UNL     1     -41.193  54.000 -52.642  1.00  0.00     0.102 A 
HETATM    9  C   UNL     1     -41.604  53.357 -53.811  1.00  0.00     0.042 A 
HETATM   10  C   UNL     1     -42.371  54.039 -54.758  1.00  0.00     0.032 A 
BRANCH   7  11
HETATM   11  O   UNL     1     -41.100  55.908 -51.261  1.00  0.00    -0.348 OA
BRANCH  11  12
HETATM   12  C   UNL     1     -41.648  57.163 -50.866  1.00  0.00     0.175 C 
BRANCH  12  13
HETATM   13  C   UNL     1     -40.537  58.210 -50.872  1.00  0.00     0.022 C 
HETATM   14  C   UNL     1     -40.928  59.479 -50.128  1.00  0.00     0.007 C 
ENDBRANCH  12  13
ENDBRANCH  11  12
ENDBRANCH   7  11
BRANCH   8  15
HETATM   15  O   UNL     1     -40.441  53.410 -51.657  1.00  0.00    -0.348 OA
BRANCH  15  16
HETATM   16  C   UNL     1     -39.871  52.133 -51.934  1.00  0.00     0.175 C 
BRANCH  16  17
HETATM   17  C   UNL     1     -40.053  51.259 -50.697  1.00  0.00     0.022 C 
HETATM   18  C   UNL     1     -39.640  49.821 -50.956  1.00  0.00     0.007 C 
ENDBRANCH  16  17
ENDBRANCH  15  16
ENDBRANCH   8  15
ENDBRANCH   1   5
BRANCH   2  19
HETATM   19  C   UNL     1     -44.285  57.294 -57.417  1.00  0.00     0.156 A 
HETATM   20  N   UNL     1     -44.988  58.308 -56.992  1.00  0.00    -0.166 NA
HETATM   21  N   UNL     1     -46.038  58.724 -57.752  1.00  0.00    -0.242 N 
HETATM   22  C   UNL     1     -46.436  58.178 -58.949  1.00  0.00     0.272 A 
HETATM   23  H   UNL     1     -46.552  59.536 -57.423  1.00  0.00     0.192 HD
HETATM   24  O   UNL     1     -47.382  58.623 -59.588  1.00  0.00    -0.266 OA
HETATM   25  C   UNL     1     -45.669  57.012 -59.418  1.00  0.00     0.046 A 
HETATM   26  C   UNL     1     -44.593  56.551 -58.659  1.00  0.00     0.016 A 
HETATM   27  C   UNL     1     -46.034  56.367 -60.606  1.00  0.00     0.018 A 
HETATM   28  C   UNL     1     -43.887  55.421 -59.088  1.00  0.00     0.015 A 
HETATM   29  C   UNL     1     -44.251  54.776 -60.275  1.00  0.00     0.001 A 
HETATM   30  C   UNL     1     -45.321  55.249 -61.034  1.00  0.00     0.001 A 
ENDBRANCH   2  19
TORSDOF 8
ENDMDL
MODEL 9
REMARK VINA RESULT:      -6.9      1.941      8.884
REMARK  8 active torsions:
REMARK  status: ('A' for Active; 'I' for Inactive)
REMARK    1  A    between atoms: C_2  and  C_3 
REMARK    2  A    between atoms: C_3  and  O_4 
REMARK    3  A    between atoms: O_4  and  C_5 
REMARK    4  A    between atoms: C_6  and  O_7 
REMARK    5  A    between atoms: O_7  and  C_8 
REMARK    6  A    between atoms: C_8  and  C_9 
REMARK    7  A    between atoms: C_12  and  N_13 
REMARK       I    between atoms: N_13  and  C_14 
REMARK    8  A    between atoms: C_14  and  C_15 
ROOT
HETATM    1  N   UNL     1     -41.467  55.394 -55.623  1.00  0.00    -0.322 N 
HETATM    2  C   UNL     1     -42.694  55.996 -55.816  1.00  0.00     0.277 C 
HETATM    3  O   UNL     1     -43.667  55.995 -55.081  1.00  0.00    -0.266 OA
HETATM    4  H   UNL     1     -40.851  55.431 -56.431  1.00  0.00     0.169 HD
ENDROOT
BRANCH   1   5
HETATM    5  C   UNL     1     -41.031  54.653 -54.512  1.00  0.00     0.037 A 
HETATM    6  C   UNL     1     -41.323  54.988 -53.187  1.00  0.00     0.069 A 
HETATM    7  C   UNL     1     -40.860  54.192 -52.129  1.00  0.00     0.104 A 
HETATM    8  C   UNL     1     -40.092  53.043 -52.401  1.00  0.00     0.102 A 
HETATM    9  C   UNL     1     -39.789  52.719 -53.725  1.00  0.00     0.042 A 
HETATM   10  C   UNL     1     -40.256  53.518 -54.771  1.00  0.00     0.032 A 
BRANCH   7  11
HETATM   11  O   UNL     1     -41.112  54.442 -50.801  1.00  0.00    -0.348 OA
BRANCH  11  12
HETATM   12  C   UNL     1     -40.433  55.531 -50.183  1.00  0.00     0.175 C 
BRANCH  12  13
HETATM   13  C   UNL     1     -41.372  56.734 -50.134  1.00  0.00     0.022 C 
HETATM   14  C   UNL     1     -40.762  57.976 -50.768  1.00  0.00     0.007 C 
ENDBRANCH  12  13
ENDBRANCH  11  12
ENDBRANCH   7  11
BRANCH   8  15
HETATM   15  O   UNL     1     -39.679  52.316 -51.312  1.00  0.00    -0.348 OA
BRANCH  15  16
HETATM   16  C   UNL     1     -40.424  51.148 -50.974  1.00  0.00     0.175 C 
BRANCH  16  17
HETATM   17  C   UNL     1     -39.494  49.946 -51.103  1.00  0.00     0.022 C 
HETATM   18  C   UNL     1     -39.582  49.310 -52.480  1.00  0.00     0.007 C 
ENDBRANCH  16  17
ENDBRANCH  15  16
ENDBRANCH   8  15
ENDBRANCH   1   5
BRANCH   2  19
HETATM   19  C   UNL     1     -42.759  56.711 -57.168  1.00  0.00     0.156 A 
HETATM   20  N   UNL     1     -42.270  57.921 -57.185  1.00  0.00    -0.166 NA
HETATM   21  N   UNL     1     -42.297  58.607 -58.360  1.00  0.00    -0.242 N 
HETATM   22  C   UNL     1     -42.790  58.142 -59.557  1.00  0.00     0.272 A 
HETATM   23  H   UNL     1     -41.879  59.533 -58.363  1.00  0.00     0.192 HD
HETATM   24  O   UNL     1     -42.759  58.814 -60.581  1.00  0.00    -0.266 OA
HETATM   25  C   UNL     1     -43.374  56.791 -59.537  1.00  0.00     0.046 A 
HETATM   26  C   UNL     1     -43.374  56.063 -58.347  1.00  0.00     0.016 A 
HETATM   27  C   UNL     1     -43.940  56.258 -60.702  1.00  0.00     0.018 A 
HETATM   28  C   UNL     1     -43.963  54.794 -58.322  1.00  0.00     0.015 A 
HETATM   29  C   UNL     1     -44.527  54.259 -59.485  1.00  0.00     0.001 A 
HETATM   30  C   UNL     1     -44.514  54.988 -60.673  1.00  0.00     0.001 A 
ENDBRANCH   2  19
TORSDOF 8
ENDMDL
MODEL 10
REMARK VINA RESULT:      -6.8      1.266      2.659
REMARK  8 active torsions:
REMARK  status: ('A' for Active; 'I' for Inactive)
REMARK    1  A    between atoms: C_2  and  C_3 
REMARK    2  A    between atoms: C_3  and  O_4 
REMARK    3  A    between atoms: O_4  and  C_5 
REMARK    4  A    between atoms: C_6  and  O_7 
REMARK    5  A    between atoms: O_7  and  C_8 
REMARK    6  A    between atoms: C_8  and  C_9 
REMARK    7  A    between atoms: C_12  and  N_13 
REMARK       I    between atoms: N_13  and  C_14 
REMARK    8  A    between atoms: C_14  and  C_15 
ROOT
HETATM    1  N   UNL     1     -42.376  55.914 -54.901  1.00  0.00    -0.322 N 
HETATM    2  C   UNL     1     -42.958  54.968 -54.081  1.00  0.00     0.277 C 
HETATM    3  O   UNL     1     -44.078  54.491 -54.145  1.00  0.00    -0.266 OA
HETATM    4  H   UNL     1     -41.471  56.247 -54.579  1.00  0.00     0.169 HD
ENDROOT
BRANCH   1   5
HETATM    5  C   UNL     1     -42.929  56.539 -56.032  1.00  0.00     0.037 A 
HETATM    6  C   UNL     1     -43.584  57.773 -55.999  1.00  0.00     0.069 A 
HETATM    7  C   UNL     1     -44.101  58.339 -57.174  1.00  0.00     0.104 A 
HETATM    8  C   UNL     1     -43.961  57.661 -58.400  1.00  0.00     0.102 A 
HETATM    9  C   UNL     1     -43.319  56.421 -58.427  1.00  0.00     0.042 A 
HETATM   10  C   UNL     1     -42.806  55.867 -57.251  1.00  0.00     0.032 A 
BRANCH   7  11
HETATM   11  O   UNL     1     -44.747  59.551 -57.232  1.00  0.00    -0.348 OA
BRANCH  11  12
HETATM   12  C   UNL     1     -44.248  60.617 -56.428  1.00  0.00     0.175 C 
BRANCH  12  13
HETATM   13  C   UNL     1     -43.794  61.753 -57.341  1.00  0.00     0.022 C 
HETATM   14  C   UNL     1     -44.849  62.130 -58.372  1.00  0.00     0.007 C 
ENDBRANCH  12  13
ENDBRANCH  11  12
ENDBRANCH   7  11
BRANCH   8  15
HETATM   15  O   UNL     1     -44.491  58.282 -59.502  1.00  0.00    -0.348 OA
BRANCH  15  16
HETATM   16  C   UNL     1     -43.621  58.536 -60.603  1.00  0.00     0.175 C 
BRANCH  16  17
HETATM   17  C   UNL     1     -42.699  59.688 -60.216  1.00  0.00     0.022 C 
HETATM   18  C   UNL     1     -41.929  60.221 -61.412  1.00  0.00     0.007 C 
ENDBRANCH  16  17
ENDBRANCH  15  16
ENDBRANCH   8  15
ENDBRANCH   1   5
BRANCH   2  19
HETATM   19  C   UNL     1     -42.009  54.542 -52.959  1.00  0.00     0.156 A 
HETATM   20  N   UNL     1     -41.992  55.325 -51.914  1.00  0.00    -0.166 NA
HETATM   21  N   UNL     1     -41.170  54.996 -50.880  1.00  0.00    -0.242 N 
HETATM   22  C   UNL     1     -40.346  53.897 -50.820  1.00  0.00     0.272 A 
HETATM   23  H   UNL     1     -41.197  55.596 -50.061  1.00  0.00     0.192 HD
HETATM   24  O   UNL     1     -39.648  53.656 -49.842  1.00  0.00    -0.266 OA
HETATM   25  C   UNL     1     -40.334  53.029 -52.009  1.00  0.00     0.046 A 
HETATM   26  C   UNL     1     -41.156  53.342 -53.092  1.00  0.00     0.016 A 
HETATM   27  C   UNL     1     -39.490  51.913 -52.051  1.00  0.00     0.018 A 
HETATM   28  C   UNL     1     -41.116  52.536 -54.236  1.00  0.00     0.015 A 
HETATM   29  C   UNL     1     -40.274  51.420 -54.279  1.00  0.00     0.001 A 
HETATM   30  C   UNL     1     -39.464  51.108 -53.188  1.00  0.00     0.001 A 
ENDBRANCH   2  19
TORSDOF 8
ENDMDL
