MODEL 1
REMARK VINA RESULT:      -7.9      0.000      0.000
REMARK  6 active torsions:
REMARK  status: ('A' for Active; 'I' for Inactive)
REMARK    1  A    between atoms: C_2  and  N_3 
REMARK    2  A    between atoms: C_2  and  C_25 
REMARK    3  A    between atoms: C_7  and  N_8 
REMARK       I    between atoms: N_8  and  C_9 
REMARK       I    between atoms: C_9  and  N_10 
REMARK    4  A    between atoms: N_10  and  C_11 
REMARK    5  A    between atoms: C_11  and  C_12 
REMARK    6  A    between atoms: C_20  and  O_21 
ROOT
HETATM    1  N   UNL     1     -42.645  56.647 -51.791  1.00  0.00    -0.293 N 
HETATM    2  C   UNL     1     -43.164  55.923 -50.690  1.00  0.00     0.322 C 
HETATM    3  N   UNL     1     -42.253  55.679 -49.711  1.00  0.00    -0.337 N 
HETATM    4  O   UNL     1     -44.333  55.594 -50.597  1.00  0.00    -0.247 OA
HETATM    5  H   UNL     1     -41.725  57.046 -51.699  1.00  0.00     0.172 HD
HETATM    6  H   UNL     1     -42.669  55.114 -48.980  1.00  0.00     0.164 HD
ENDROOT
BRANCH   3   7
HETATM    7  C   UNL     1     -40.830  55.520 -49.887  1.00  0.00     0.181 C 
BRANCH   7   8
HETATM    8  C   UNL     1     -40.526  54.167 -50.418  1.00  0.00     0.028 A 
HETATM    9  N   UNL     1     -40.559  53.030 -49.642  1.00  0.00    -0.357 N 
HETATM   10  H   UNL     1     -40.782  53.003 -48.656  1.00  0.00     0.166 HD
HETATM   11  C   UNL     1     -40.250  51.923 -50.397  1.00  0.00     0.043 A 
HETATM   12  C   UNL     1     -40.055  52.358 -51.706  1.00  0.00    -0.005 A 
HETATM   13  C   UNL     1     -40.147  50.579 -50.029  1.00  0.00     0.033 A 
HETATM   14  C   UNL     1     -40.228  53.768 -51.707  1.00  0.00     0.040 A 
HETATM   15  C   UNL     1     -39.763  51.405 -52.699  1.00  0.00     0.050 A 
HETATM   16  C   UNL     1     -39.685  50.047 -52.361  1.00  0.00     0.069 A 
HETATM   17  C   UNL     1     -39.860  49.648 -51.036  1.00  0.00     0.039 A 
BRANCH  16  18
HETATM   18  O   UNL     1     -39.422  49.216 -53.416  1.00  0.00    -0.356 OA
HETATM   19  C   UNL     1     -39.618  49.757 -54.718  1.00  0.00     0.210 C 
ENDBRANCH  16  18
ENDBRANCH   7   8
ENDBRANCH   3   7
BRANCH   1  20
HETATM   20  C   UNL     1     -43.358  56.902 -52.957  1.00  0.00     0.129 A 
HETATM   21  N   UNL     1     -43.332  56.160 -54.123  1.00  0.00    -0.249 N 
HETATM   22  N   UNL     1     -44.154  56.648 -55.077  1.00  0.00    -0.183 NA
HETATM   23  C   UNL     1     -44.708  57.719 -54.511  1.00  0.00     0.142 A 
HETATM   24  C   UNL     1     -44.252  57.922 -53.198  1.00  0.00     0.071 A 
BRANCH  21  25
HETATM   25  C   UNL     1     -42.534  54.975 -54.451  1.00  0.00     0.111 C 
HETATM   26  C   UNL     1     -43.380  53.975 -55.246  1.00  0.00     0.035 C 
BRANCH  25  27
HETATM   27  C   UNL     1     -41.175  55.323 -55.117  1.00  0.00     0.002 C 
HETATM   28  C   UNL     1     -40.410  56.392 -54.326  1.00  0.00     0.011 C 
HETATM   29  C   UNL     1     -40.281  54.087 -55.269  1.00  0.00     0.011 C 
ENDBRANCH  25  27
ENDBRANCH  21  25
ENDBRANCH   1  20
TORSDOF 6
ENDMDL
MODEL 2
REMARK VINA RESULT:      -7.5      2.034      3.154
REMARK  6 active torsions:
REMARK  status: ('A' for Active; 'I' for Inactive)
REMARK    1  A    between atoms: C_2  and  N_3 
REMARK    2  A    between atoms: C_2  and  C_25 
REMARK    3  A    between atoms: C_7  and  N_8 
REMARK       I    between atoms: N_8  and  C_9 
REMARK       I    between atoms: C_9  and  N_10 
REMARK    4  A    between atoms: N_10  and  C_11 
REMARK    5  A    between atoms: C_11  and  C_12 
REMARK    6  A    between atoms: C_20  and  O_21 
ROOT
HETATM    1  N   UNL     1     -42.549  58.203 -54.132  1.00  0.00    -0.293 N 
HETATM    2  C   UNL     1     -43.591  58.187 -53.173  1.00  0.00     0.322 C 
HETATM    3  N   UNL     1     -43.235  58.699 -51.965  1.00  0.00    -0.337 N 
HETATM    4  O   UNL     1     -44.719  57.802 -53.418  1.00  0.00    -0.247 OA
HETATM    5  H   UNL     1     -41.710  58.715 -53.908  1.00  0.00     0.172 HD
HETATM    6  H   UNL     1     -44.003  58.610 -51.309  1.00  0.00     0.164 HD
ENDROOT
BRANCH   3   7
HETATM    7  C   UNL     1     -41.915  58.684 -51.383  1.00  0.00     0.181 C 
BRANCH   7   8
HETATM    8  C   UNL     1     -41.536  57.299 -51.006  1.00  0.00     0.028 A 
HETATM    9  N   UNL     1     -41.482  56.864 -49.700  1.00  0.00    -0.357 N 
HETATM   10  H   UNL     1     -41.684  57.431 -48.887  1.00  0.00     0.166 HD
HETATM   11  C   UNL     1     -41.117  55.539 -49.649  1.00  0.00     0.043 A 
HETATM   12  C   UNL     1     -40.974  55.100 -50.963  1.00  0.00    -0.005 A 
HETATM   13  C   UNL     1     -40.921  54.698 -48.551  1.00  0.00     0.033 A 
HETATM   14  C   UNL     1     -41.237  56.213 -51.806  1.00  0.00     0.040 A 
HETATM   15  C   UNL     1     -40.640  53.753 -51.194  1.00  0.00     0.050 A 
HETATM   16  C   UNL     1     -40.470  52.881 -50.109  1.00  0.00     0.069 A 
HETATM   17  C   UNL     1     -40.594  53.359 -48.805  1.00  0.00     0.039 A 
BRANCH  16  18
HETATM   18  O   UNL     1     -40.173  51.592 -50.461  1.00  0.00    -0.356 OA
HETATM   19  C   UNL     1     -39.516  51.408 -51.710  1.00  0.00     0.210 C 
ENDBRANCH  16  18
ENDBRANCH   7   8
ENDBRANCH   3   7
BRANCH   1  20
HETATM   20  C   UNL     1     -42.645  57.621 -55.392  1.00  0.00     0.129 A 
HETATM   21  N   UNL     1     -42.641  56.270 -55.683  1.00  0.00    -0.249 N 
HETATM   22  N   UNL     1     -42.774  56.014 -57.002  1.00  0.00    -0.183 NA
HETATM   23  C   UNL     1     -42.860  57.220 -57.559  1.00  0.00     0.142 A 
HETATM   24  C   UNL     1     -42.787  58.252 -56.609  1.00  0.00     0.071 A 
BRANCH  21  25
HETATM   25  C   UNL     1     -42.487  55.127 -54.777  1.00  0.00     0.111 C 
HETATM   26  C   UNL     1     -43.848  54.473 -54.521  1.00  0.00     0.035 C 
BRANCH  25  27
HETATM   27  C   UNL     1     -41.384  54.134 -55.236  1.00  0.00     0.002 C 
HETATM   28  C   UNL     1     -39.976  54.686 -54.977  1.00  0.00     0.011 C 
HETATM   29  C   UNL     1     -41.517  52.774 -54.541  1.00  0.00     0.011 C 
ENDBRANCH  25  27
ENDBRANCH  21  25
ENDBRANCH   1  20
TORSDOF 6
ENDMDL
MODEL 3
REMARK VINA RESULT:      -7.3      2.825      3.763
REMARK  6 active torsions:
REMARK  status: ('A' for Active; 'I' for Inactive)
REMARK    1  A    between atoms: C_2  and  N_3 
REMARK    2  A    between atoms: C_2  and  C_25 
REMARK    3  A    between atoms: C_7  and  N_8 
REMARK       I    between atoms: N_8  and  C_9 
REMARK       I    between atoms: C_9  and  N_10 
REMARK    4  A    between atoms: N_10  and  C_11 
REMARK    5  A    between atoms: C_11  and  C_12 
REMARK    6  A    between atoms: C_20  and  O_21 
ROOT
HETATM    1  N   UNL     1     -42.902  57.741 -54.730  1.00  0.00    -0.293 N 
HETATM    2  C   UNL     1     -41.786  58.520 -54.338  1.00  0.00     0.322 C 
HETATM    3  N   UNL     1     -41.090  58.000 -53.293  1.00  0.00    -0.337 N 
HETATM    4  O   UNL     1     -41.443  59.535 -54.916  1.00  0.00    -0.247 OA
HETATM    5  H   UNL     1     -42.999  56.822 -54.327  1.00  0.00     0.172 HD
HETATM    6  H   UNL     1     -40.340  58.627 -53.027  1.00  0.00     0.164 HD
ENDROOT
BRANCH   3   7
HETATM    7  C   UNL     1     -41.624  57.182 -52.230  1.00  0.00     0.181 C 
BRANCH   7   8
HETATM    8  C   UNL     1     -41.220  55.766 -52.421  1.00  0.00     0.028 A 
HETATM    9  N   UNL     1     -40.955  55.220 -53.657  1.00  0.00    -0.357 N 
HETATM   10  H   UNL     1     -41.012  55.714 -54.537  1.00  0.00     0.166 HD
HETATM   11  C   UNL     1     -40.593  53.899 -53.532  1.00  0.00     0.043 A 
HETATM   12  C   UNL     1     -40.584  53.601 -52.171  1.00  0.00    -0.005 A 
HETATM   13  C   UNL     1     -40.257  52.958 -54.509  1.00  0.00     0.033 A 
HETATM   14  C   UNL     1     -40.982  54.779 -51.483  1.00  0.00     0.040 A 
HETATM   15  C   UNL     1     -40.203  52.310 -51.764  1.00  0.00     0.050 A 
HETATM   16  C   UNL     1     -39.831  51.357 -52.723  1.00  0.00     0.069 A 
HETATM   17  C   UNL     1     -39.877  51.680 -54.079  1.00  0.00     0.039 A 
BRANCH  16  18
HETATM   18  O   UNL     1     -39.457  50.148 -52.204  1.00  0.00    -0.356 OA
HETATM   19  C   UNL     1     -39.583  49.993 -50.794  1.00  0.00     0.210 C 
ENDBRANCH  16  18
ENDBRANCH   7   8
ENDBRANCH   3   7
BRANCH   1  20
HETATM   20  C   UNL     1     -43.827  58.138 -55.690  1.00  0.00     0.129 A 
HETATM   21  N   UNL     1     -43.868  57.741 -57.013  1.00  0.00    -0.249 N 
HETATM   22  N   UNL     1     -44.902  58.280 -57.694  1.00  0.00    -0.183 NA
HETATM   23  C   UNL     1     -45.525  59.035 -56.791  1.00  0.00     0.142 A 
HETATM   24  C   UNL     1     -44.903  58.983 -55.532  1.00  0.00     0.071 A 
BRANCH  21  25
HETATM   25  C   UNL     1     -42.950  56.866 -57.748  1.00  0.00     0.111 C 
HETATM   26  C   UNL     1     -42.955  55.463 -57.132  1.00  0.00     0.035 C 
BRANCH  25  27
HETATM   27  C   UNL     1     -43.193  56.882 -59.282  1.00  0.00     0.002 C 
HETATM   28  C   UNL     1     -41.973  57.415 -60.046  1.00  0.00     0.011 C 
HETATM   29  C   UNL     1     -43.541  55.489 -59.820  1.00  0.00     0.011 C 
ENDBRANCH  25  27
ENDBRANCH  21  25
ENDBRANCH   1  20
TORSDOF 6
ENDMDL
MODEL 4
REMARK VINA RESULT:      -7.3      3.742      5.188
REMARK  6 active torsions:
REMARK  status: ('A' for Active; 'I' for Inactive)
REMARK    1  A    between atoms: C_2  and  N_3 
REMARK    2  A    between atoms: C_2  and  C_25 
REMARK    3  A    between atoms: C_7  and  N_8 
REMARK       I    between atoms: N_8  and  C_9 
REMARK       I    between atoms: C_9  and  N_10 
REMARK    4  A    between atoms: N_10  and  C_11 
REMARK    5  A    between atoms: C_11  and  C_12 
REMARK    6  A    between atoms: C_20  and  O_21 
ROOT
HETATM    1  N   UNL     1     -42.834  57.187 -57.043  1.00  0.00    -0.293 N 
HETATM    2  C   UNL     1     -42.915  58.077 -55.944  1.00  0.00     0.322 C 
HETATM    3  N   UNL     1     -43.107  57.460 -54.748  1.00  0.00    -0.337 N 
HETATM    4  O   UNL     1     -42.773  59.281 -56.048  1.00  0.00    -0.247 OA
HETATM    5  H   UNL     1     -42.767  56.201 -56.846  1.00  0.00     0.172 HD
HETATM    6  H   UNL     1     -43.211  58.150 -54.013  1.00  0.00     0.164 HD
ENDROOT
BRANCH   3   7
HETATM    7  C   UNL     1     -43.793  56.209 -54.529  1.00  0.00     0.181 C 
BRANCH   7   8
HETATM    8  C   UNL     1     -42.824  55.156 -54.133  1.00  0.00     0.028 A 
HETATM    9  N   UNL     1     -42.225  55.115 -52.893  1.00  0.00    -0.357 N 
HETATM   10  H   UNL     1     -42.376  55.783 -52.149  1.00  0.00     0.166 HD
HETATM   11  C   UNL     1     -41.389  54.027 -52.800  1.00  0.00     0.043 A 
HETATM   12  C   UNL     1     -41.487  53.326 -53.999  1.00  0.00    -0.005 A 
HETATM   13  C   UNL     1     -40.573  53.603 -51.747  1.00  0.00     0.033 A 
HETATM   14  C   UNL     1     -42.389  54.045 -54.829  1.00  0.00     0.040 A 
HETATM   15  C   UNL     1     -40.754  52.136 -54.149  1.00  0.00     0.050 A 
HETATM   16  C   UNL     1     -39.953  51.672 -53.096  1.00  0.00     0.069 A 
HETATM   17  C   UNL     1     -39.856  52.412 -51.918  1.00  0.00     0.039 A 
BRANCH  16  18
HETATM   18  O   UNL     1     -39.309  50.492 -53.352  1.00  0.00    -0.356 OA
HETATM   19  C   UNL     1     -39.632  49.843 -54.577  1.00  0.00     0.210 C 
ENDBRANCH  16  18
ENDBRANCH   7   8
ENDBRANCH   3   7
BRANCH   1  20
HETATM   20  C   UNL     1     -42.763  57.596 -58.370  1.00  0.00     0.129 A 
HETATM   21  N   UNL     1     -43.777  57.543 -59.308  1.00  0.00    -0.249 N 
HETATM   22  N   UNL     1     -43.411  58.039 -60.510  1.00  0.00    -0.183 NA
HETATM   23  C   UNL     1     -42.143  58.408 -60.335  1.00  0.00     0.142 A 
HETATM   24  C   UNL     1     -41.691  58.159 -59.028  1.00  0.00     0.071 A 
BRANCH  21  25
HETATM   25  C   UNL     1     -45.136  57.011 -59.175  1.00  0.00     0.111 C 
HETATM   26  C   UNL     1     -46.093  58.119 -58.723  1.00  0.00     0.035 C 
BRANCH  25  27
HETATM   27  C   UNL     1     -45.613  56.241 -60.438  1.00  0.00     0.002 C 
HETATM   28  C   UNL     1     -45.059  54.811 -60.476  1.00  0.00     0.011 C 
HETATM   29  C   UNL     1     -47.143  56.180 -60.525  1.00  0.00     0.011 C 
ENDBRANCH  25  27
ENDBRANCH  21  25
ENDBRANCH   1  20
TORSDOF 6
ENDMDL
MODEL 5
REMARK VINA RESULT:      -7.1      3.765      7.062
REMARK  6 active torsions:
REMARK  status: ('A' for Active; 'I' for Inactive)
REMARK    1  A    between atoms: C_2  and  N_3 
REMARK    2  A    between atoms: C_2  and  C_25 
REMARK    3  A    between atoms: C_7  and  N_8 
REMARK       I    between atoms: N_8  and  C_9 
REMARK       I    between atoms: C_9  and  N_10 
REMARK    4  A    between atoms: N_10  and  C_11 
REMARK    5  A    between atoms: C_11  and  C_12 
REMARK    6  A    between atoms: C_20  and  O_21 
ROOT
HETATM    1  N   UNL     1     -41.974  58.137 -52.665  1.00  0.00    -0.293 N 
HETATM    2  C   UNL     1     -41.088  59.011 -53.342  1.00  0.00     0.322 C 
HETATM    3  N   UNL     1     -41.712  60.009 -54.023  1.00  0.00    -0.337 N 
HETATM    4  O   UNL     1     -39.877  58.916 -53.280  1.00  0.00    -0.247 OA
HETATM    5  H   UNL     1     -42.944  58.401 -52.609  1.00  0.00     0.172 HD
HETATM    6  H   UNL     1     -41.032  60.565 -54.527  1.00  0.00     0.164 HD
ENDROOT
BRANCH   3   7
HETATM    7  C   UNL     1     -43.029  59.952 -54.610  1.00  0.00     0.181 C 
BRANCH   7   8
HETATM    8  C   UNL     1     -43.006  59.124 -55.842  1.00  0.00     0.028 A 
HETATM    9  N   UNL     1     -42.232  59.431 -56.939  1.00  0.00    -0.357 N 
HETATM   10  H   UNL     1     -41.621  60.233 -57.016  1.00  0.00     0.166 HD
HETATM   11  C   UNL     1     -42.398  58.487 -57.925  1.00  0.00     0.043 A 
HETATM   12  C   UNL     1     -43.272  57.522 -57.429  1.00  0.00    -0.005 A 
HETATM   13  C   UNL     1     -41.833  58.403 -59.200  1.00  0.00     0.033 A 
HETATM   14  C   UNL     1     -43.649  57.934 -56.122  1.00  0.00     0.040 A 
HETATM   15  C   UNL     1     -43.582  56.411 -58.234  1.00  0.00     0.050 A 
HETATM   16  C   UNL     1     -43.003  56.288 -59.504  1.00  0.00     0.069 A 
HETATM   17  C   UNL     1     -42.152  57.284 -59.982  1.00  0.00     0.039 A 
BRANCH  16  18
HETATM   18  O   UNL     1     -43.359  55.153 -60.181  1.00  0.00    -0.356 OA
HETATM   19  C   UNL     1     -44.749  54.971 -60.431  1.00  0.00     0.210 C 
ENDBRANCH  16  18
ENDBRANCH   7   8
ENDBRANCH   3   7
BRANCH   1  20
HETATM   20  C   UNL     1     -41.570  56.979 -52.009  1.00  0.00     0.129 A 
HETATM   21  N   UNL     1     -41.343  55.741 -52.579  1.00  0.00    -0.249 N 
HETATM   22  N   UNL     1     -40.934  54.815 -51.685  1.00  0.00    -0.183 NA
HETATM   23  C   UNL     1     -40.906  55.473 -50.528  1.00  0.00     0.142 A 
HETATM   24  C   UNL     1     -41.288  56.817 -50.670  1.00  0.00     0.071 A 
BRANCH  21  25
HETATM   25  C   UNL     1     -41.511  55.316 -53.973  1.00  0.00     0.111 C 
HETATM   26  C   UNL     1     -40.150  55.273 -54.677  1.00  0.00     0.035 C 
BRANCH  25  27
HETATM   27  C   UNL     1     -42.337  54.008 -54.114  1.00  0.00     0.002 C 
HETATM   28  C   UNL     1     -43.320  54.079 -55.289  1.00  0.00     0.011 C 
HETATM   29  C   UNL     1     -41.435  52.782 -54.299  1.00  0.00     0.011 C 
ENDBRANCH  25  27
ENDBRANCH  21  25
ENDBRANCH   1  20
TORSDOF 6
ENDMDL
MODEL 6
REMARK VINA RESULT:      -7.1      2.912      5.411
REMARK  6 active torsions:
REMARK  status: ('A' for Active; 'I' for Inactive)
REMARK    1  A    between atoms: C_2  and  N_3 
REMARK    2  A    between atoms: C_2  and  C_25 
REMARK    3  A    between atoms: C_7  and  N_8 
REMARK       I    between atoms: N_8  and  C_9 
REMARK       I    between atoms: C_9  and  N_10 
REMARK    4  A    between atoms: N_10  and  C_11 
REMARK    5  A    between atoms: C_11  and  C_12 
REMARK    6  A    between atoms: C_20  and  O_21 
ROOT
HETATM    1  N   UNL     1     -43.499  59.306 -55.320  1.00  0.00    -0.293 N 
HETATM    2  C   UNL     1     -42.572  59.184 -56.384  1.00  0.00     0.322 C 
HETATM    3  N   UNL     1     -42.929  58.270 -57.325  1.00  0.00    -0.337 N 
HETATM    4  O   UNL     1     -41.571  59.870 -56.480  1.00  0.00    -0.247 OA
HETATM    5  H   UNL     1     -44.390  58.845 -55.418  1.00  0.00     0.172 HD
HETATM    6  H   UNL     1     -42.203  58.191 -58.027  1.00  0.00     0.164 HD
ENDROOT
BRANCH   3   7
HETATM    7  C   UNL     1     -43.720  57.082 -57.109  1.00  0.00     0.181 C 
BRANCH   7   8
HETATM    8  C   UNL     1     -43.032  56.174 -56.157  1.00  0.00     0.028 A 
HETATM    9  N   UNL     1     -41.837  55.553 -56.442  1.00  0.00    -0.357 N 
HETATM   10  H   UNL     1     -41.322  55.645 -57.308  1.00  0.00     0.166 HD
HETATM   11  C   UNL     1     -41.428  54.785 -55.377  1.00  0.00     0.043 A 
HETATM   12  C   UNL     1     -42.367  54.953 -54.362  1.00  0.00    -0.005 A 
HETATM   13  C   UNL     1     -40.299  53.975 -55.227  1.00  0.00     0.033 A 
HETATM   14  C   UNL     1     -43.371  55.826 -54.864  1.00  0.00     0.040 A 
HETATM   15  C   UNL     1     -42.161  54.300 -53.134  1.00  0.00     0.050 A 
HETATM   16  C   UNL     1     -41.020  53.508 -52.948  1.00  0.00     0.069 A 
HETATM   17  C   UNL     1     -40.112  53.339 -53.993  1.00  0.00     0.039 A 
BRANCH  16  18
HETATM   18  O   UNL     1     -40.917  52.946 -51.704  1.00  0.00    -0.356 OA
HETATM   19  C   UNL     1     -39.838  52.040 -51.502  1.00  0.00     0.210 C 
ENDBRANCH  16  18
ENDBRANCH   7   8
ENDBRANCH   3   7
BRANCH   1  20
HETATM   20  C   UNL     1     -43.284  60.084 -54.188  1.00  0.00     0.129 A 
HETATM   21  N   UNL     1     -42.560  59.730 -53.065  1.00  0.00    -0.249 N 
HETATM   22  N   UNL     1     -42.510  60.712 -52.139  1.00  0.00    -0.183 NA
HETATM   23  C   UNL     1     -43.216  61.703 -52.679  1.00  0.00     0.142 A 
HETATM   24  C   UNL     1     -43.717  61.370 -53.948  1.00  0.00     0.071 A 
BRANCH  21  25
HETATM   25  C   UNL     1     -41.892  58.463 -52.754  1.00  0.00     0.111 C 
HETATM   26  C   UNL     1     -40.396  58.566 -53.071  1.00  0.00     0.035 C 
BRANCH  25  27
HETATM   27  C   UNL     1     -42.200  57.951 -51.320  1.00  0.00     0.002 C 
HETATM   28  C   UNL     1     -43.545  57.216 -51.255  1.00  0.00     0.011 C 
HETATM   29  C   UNL     1     -41.101  57.015 -50.801  1.00  0.00     0.011 C 
ENDBRANCH  25  27
ENDBRANCH  21  25
ENDBRANCH   1  20
TORSDOF 6
ENDMDL
MODEL 7
REMARK VINA RESULT:      -7.1     13.508     16.040
REMARK  6 active torsions:
REMARK  status: ('A' for Active; 'I' for Inactive)
REMARK    1  A    between atoms: C_2  and  N_3 
REMARK    2  A    between atoms: C_2  and  C_25 
REMARK    3  A    between atoms: C_7  and  N_8 
REMARK       I    between atoms: N_8  and  C_9 
REMARK       I    between atoms: C_9  and  N_10 
REMARK    4  A    between atoms: N_10  and  C_11 
REMARK    5  A    between atoms: C_11  and  C_12 
REMARK    6  A    between atoms: C_20  and  O_21 
ROOT
HETATM    1  N   UNL     1     -35.469  40.798 -52.282  1.00  0.00    -0.293 N 
HETATM    2  C   UNL     1     -35.867  42.054 -52.801  1.00  0.00     0.322 C 
HETATM    3  N   UNL     1     -37.154  42.088 -53.237  1.00  0.00    -0.337 N 
HETATM    4  O   UNL     1     -35.145  43.034 -52.810  1.00  0.00    -0.247 OA
HETATM    5  H   UNL     1     -36.182  40.103 -52.133  1.00  0.00     0.172 HD
HETATM    6  H   UNL     1     -37.361  42.992 -53.644  1.00  0.00     0.164 HD
ENDROOT
BRANCH   3   7
HETATM    7  C   UNL     1     -37.908  40.978 -53.769  1.00  0.00     0.181 C 
BRANCH   7   8
HETATM    8  C   UNL     1     -37.724  40.891 -55.240  1.00  0.00     0.028 A 
HETATM    9  N   UNL     1     -37.581  41.999 -56.045  1.00  0.00    -0.357 N 
HETATM   10  H   UNL     1     -37.592  42.959 -55.725  1.00  0.00     0.166 HD
HETATM   11  C   UNL     1     -37.415  41.622 -57.357  1.00  0.00     0.043 A 
HETATM   12  C   UNL     1     -37.408  40.229 -57.388  1.00  0.00    -0.005 A 
HETATM   13  C   UNL     1     -37.253  42.399 -58.507  1.00  0.00     0.033 A 
HETATM   14  C   UNL     1     -37.605  39.781 -56.054  1.00  0.00     0.040 A 
HETATM   15  C   UNL     1     -37.210  39.580 -58.620  1.00  0.00     0.050 A 
HETATM   16  C   UNL     1     -37.013  40.338 -59.783  1.00  0.00     0.069 A 
HETATM   17  C   UNL     1     -37.052  41.730 -59.722  1.00  0.00     0.039 A 
BRANCH  16  18
HETATM   18  O   UNL     1     -36.806  39.595 -60.914  1.00  0.00    -0.356 OA
HETATM   19  C   UNL     1     -37.959  39.017 -61.516  1.00  0.00     0.210 C 
ENDBRANCH  16  18
ENDBRANCH   7   8
ENDBRANCH   3   7
BRANCH   1  20
HETATM   20  C   UNL     1     -34.167  40.496 -51.894  1.00  0.00     0.129 A 
HETATM   21  N   UNL     1     -33.181  39.928 -52.677  1.00  0.00    -0.249 N 
HETATM   22  N   UNL     1     -32.009  39.779 -52.024  1.00  0.00    -0.183 NA
HETATM   23  C   UNL     1     -32.255  40.255 -50.805  1.00  0.00     0.142 A 
HETATM   24  C   UNL     1     -33.575  40.714 -50.669  1.00  0.00     0.071 A 
BRANCH  21  25
HETATM   25  C   UNL     1     -33.253  39.460 -54.065  1.00  0.00     0.111 C 
HETATM   26  C   UNL     1     -34.624  38.830 -54.335  1.00  0.00     0.035 C 
BRANCH  25  27
HETATM   27  C   UNL     1     -32.843  40.547 -55.095  1.00  0.00     0.002 C 
HETATM   28  C   UNL     1     -31.784  40.030 -56.078  1.00  0.00     0.011 C 
HETATM   29  C   UNL     1     -34.048  41.060 -55.893  1.00  0.00     0.011 C 
ENDBRANCH  25  27
ENDBRANCH  21  25
ENDBRANCH   1  20
TORSDOF 6
ENDMDL
MODEL 8
REMARK VINA RESULT:      -7.0      3.793      5.593
REMARK  6 active torsions:
REMARK  status: ('A' for Active; 'I' for Inactive)
REMARK    1  A    between atoms: C_2  and  N_3 
REMARK    2  A    between atoms: C_2  and  C_25 
REMARK    3  A    between atoms: C_7  and  N_8 
REMARK       I    between atoms: N_8  and  C_9 
REMARK       I    between atoms: C_9  and  N_10 
REMARK    4  A    between atoms: N_10  and  C_11 
REMARK    5  A    between atoms: C_11  and  C_12 
REMARK    6  A    between atoms: C_20  and  O_21 
ROOT
HETATM    1  N   UNL     1     -44.243  56.770 -57.141  1.00  0.00    -0.293 N 
HETATM    2  C   UNL     1     -42.835  56.738 -56.996  1.00  0.00     0.322 C 
HETATM    3  N   UNL     1     -42.345  55.520 -56.642  1.00  0.00    -0.337 N 
HETATM    4  O   UNL     1     -42.117  57.695 -57.221  1.00  0.00    -0.247 OA
HETATM    5  H   UNL     1     -44.738  55.893 -57.127  1.00  0.00     0.172 HD
HETATM    6  H   UNL     1     -41.343  55.574 -56.503  1.00  0.00     0.164 HD
ENDROOT
BRANCH   3   7
HETATM    7  C   UNL     1     -43.028  54.515 -55.864  1.00  0.00     0.181 C 
BRANCH   7   8
HETATM    8  C   UNL     1     -42.309  54.279 -54.587  1.00  0.00     0.028 A 
HETATM    9  N   UNL     1     -41.502  53.183 -54.371  1.00  0.00    -0.357 N 
HETATM   10  H   UNL     1     -41.327  52.446 -55.040  1.00  0.00     0.166 HD
HETATM   11  C   UNL     1     -40.956  53.230 -53.110  1.00  0.00     0.043 A 
HETATM   12  C   UNL     1     -41.390  54.412 -52.515  1.00  0.00    -0.005 A 
HETATM   13  C   UNL     1     -40.102  52.333 -52.462  1.00  0.00     0.033 A 
HETATM   14  C   UNL     1     -42.241  55.061 -53.450  1.00  0.00     0.040 A 
HETATM   15  C   UNL     1     -40.937  54.724 -51.220  1.00  0.00     0.050 A 
HETATM   16  C   UNL     1     -40.055  53.856 -50.561  1.00  0.00     0.069 A 
HETATM   17  C   UNL     1     -39.660  52.668 -51.175  1.00  0.00     0.039 A 
BRANCH  16  18
HETATM   18  O   UNL     1     -39.665  54.281 -49.320  1.00  0.00    -0.356 OA
HETATM   19  C   UNL     1     -40.422  53.798 -48.215  1.00  0.00     0.210 C 
ENDBRANCH  16  18
ENDBRANCH   7   8
ENDBRANCH   3   7
BRANCH   1  20
HETATM   20  C   UNL     1     -44.972  57.931 -57.376  1.00  0.00     0.129 A 
HETATM   21  N   UNL     1     -45.456  58.373 -58.592  1.00  0.00    -0.249 N 
HETATM   22  N   UNL     1     -46.150  59.528 -58.496  1.00  0.00    -0.183 NA
HETATM   23  C   UNL     1     -46.102  59.827 -57.199  1.00  0.00     0.142 A 
HETATM   24  C   UNL     1     -45.387  58.872 -56.458  1.00  0.00     0.071 A 
BRANCH  21  25
HETATM   25  C   UNL     1     -45.293  57.784 -59.925  1.00  0.00     0.111 C 
HETATM   26  C   UNL     1     -43.836  57.918 -60.382  1.00  0.00     0.035 C 
BRANCH  25  27
HETATM   27  C   UNL     1     -45.856  56.340 -60.023  1.00  0.00     0.002 C 
HETATM   28  C   UNL     1     -47.192  56.300 -60.776  1.00  0.00     0.011 C 
HETATM   29  C   UNL     1     -44.871  55.390 -60.716  1.00  0.00     0.011 C 
ENDBRANCH  25  27
ENDBRANCH  21  25
ENDBRANCH   1  20
TORSDOF 6
ENDMDL
MODEL 9
REMARK VINA RESULT:      -7.0      3.460      7.171
REMARK  6 active torsions:
REMARK  status: ('A' for Active; 'I' for Inactive)
REMARK    1  A    between atoms: C_2  and  N_3 
REMARK    2  A    between atoms: C_2  and  C_25 
REMARK    3  A    between atoms: C_7  and  N_8 
REMARK       I    between atoms: N_8  and  C_9 
REMARK       I    between atoms: C_9  and  N_10 
REMARK    4  A    between atoms: N_10  and  C_11 
REMARK    5  A    between atoms: C_11  and  C_12 
REMARK    6  A    between atoms: C_20  and  O_21 
ROOT
HETATM    1  N   UNL     1     -41.911  55.216 -52.457  1.00  0.00    -0.293 N 
HETATM    2  C   UNL     1     -43.279  54.852 -52.494  1.00  0.00     0.322 C 
HETATM    3  N   UNL     1     -44.023  55.592 -53.358  1.00  0.00    -0.337 N 
HETATM    4  O   UNL     1     -43.742  53.927 -51.853  1.00  0.00    -0.247 OA
HETATM    5  H   UNL     1     -41.576  55.858 -53.158  1.00  0.00     0.172 HD
HETATM    6  H   UNL     1     -44.998  55.321 -53.298  1.00  0.00     0.164 HD
ENDROOT
BRANCH   3   7
HETATM    7  C   UNL     1     -43.780  56.961 -53.743  1.00  0.00     0.181 C 
BRANCH   7   8
HETATM    8  C   UNL     1     -43.383  57.029 -55.172  1.00  0.00     0.028 A 
HETATM    9  N   UNL     1     -43.660  56.029 -56.077  1.00  0.00    -0.357 N 
HETATM   10  H   UNL     1     -44.145  55.167 -55.865  1.00  0.00     0.166 HD
HETATM   11  C   UNL     1     -43.190  56.365 -57.325  1.00  0.00     0.043 A 
HETATM   12  C   UNL     1     -42.632  57.638 -57.226  1.00  0.00    -0.005 A 
HETATM   13  C   UNL     1     -43.230  55.655 -58.528  1.00  0.00     0.033 A 
HETATM   14  C   UNL     1     -42.757  58.044 -55.870  1.00  0.00     0.040 A 
HETATM   15  C   UNL     1     -42.109  58.239 -58.385  1.00  0.00     0.050 A 
HETATM   16  C   UNL     1     -42.166  57.560 -59.610  1.00  0.00     0.069 A 
HETATM   17  C   UNL     1     -42.707  56.276 -59.669  1.00  0.00     0.039 A 
BRANCH  16  18
HETATM   18  O   UNL     1     -41.650  58.257 -60.668  1.00  0.00    -0.356 OA
HETATM   19  C   UNL     1     -42.001  59.633 -60.757  1.00  0.00     0.210 C 
ENDBRANCH  16  18
ENDBRANCH   7   8
ENDBRANCH   3   7
BRANCH   1  20
HETATM   20  C   UNL     1     -40.989  54.683 -51.562  1.00  0.00     0.129 A 
HETATM   21  N   UNL     1     -40.289  53.500 -51.701  1.00  0.00    -0.249 N 
HETATM   22  N   UNL     1     -39.447  53.261 -50.673  1.00  0.00    -0.183 NA
HETATM   23  C   UNL     1     -39.618  54.306 -49.865  1.00  0.00     0.142 A 
HETATM   24  C   UNL     1     -40.560  55.219 -50.367  1.00  0.00     0.071 A 
BRANCH  21  25
HETATM   25  C   UNL     1     -40.364  52.498 -52.768  1.00  0.00     0.111 C 
HETATM   26  C   UNL     1     -40.264  53.179 -54.137  1.00  0.00     0.035 C 
BRANCH  25  27
HETATM   27  C   UNL     1     -39.365  51.325 -52.571  1.00  0.00     0.002 C 
HETATM   28  C   UNL     1     -39.736  50.457 -51.362  1.00  0.00     0.011 C 
HETATM   29  C   UNL     1     -39.283  50.430 -53.814  1.00  0.00     0.011 C 
ENDBRANCH  25  27
ENDBRANCH  21  25
ENDBRANCH   1  20
TORSDOF 6
ENDMDL
MODEL 10
REMARK VINA RESULT:      -7.0      3.989      5.492
REMARK  6 active torsions:
REMARK  status: ('A' for Active; 'I' for Inactive)
REMARK    1  A    between atoms: C_2  and  N_3 
REMARK    2  A    between atoms: C_2  and  C_25 
REMARK    3  A    between atoms: C_7  and  N_8 
REMARK       I    between atoms: N_8  and  C_9 
REMARK       I    between atoms: C_9  and  N_10 
REMARK    4  A    between atoms: N_10  and  C_11 
REMARK    5  A    between atoms: C_11  and  C_12 
REMARK    6  A    between atoms: C_20  and  O_21 
ROOT
HETATM    1  N   UNL     1     -44.042  56.941 -57.662  1.00  0.00    -0.293 N 
HETATM    2  C   UNL     1     -43.137  55.912 -58.021  1.00  0.00     0.322 C 
HETATM    3  N   UNL     1     -42.461  55.380 -56.969  1.00  0.00    -0.337 N 
HETATM    4  O   UNL     1     -43.012  55.499 -59.160  1.00  0.00    -0.247 OA
HETATM    5  H   UNL     1     -44.225  57.085 -56.682  1.00  0.00     0.172 HD
HETATM    6  H   UNL     1     -41.794  54.691 -57.296  1.00  0.00     0.164 HD
ENDROOT
BRANCH   3   7
HETATM    7  C   UNL     1     -42.105  56.060 -55.747  1.00  0.00     0.181 C 
BRANCH   7   8
HETATM    8  C   UNL     1     -41.505  55.104 -54.783  1.00  0.00     0.028 A 
HETATM    9  N   UNL     1     -41.499  55.313 -53.422  1.00  0.00    -0.357 N 
HETATM   10  H   UNL     1     -41.889  56.120 -52.954  1.00  0.00     0.166 HD
HETATM   11  C   UNL     1     -40.892  54.262 -52.777  1.00  0.00     0.043 A 
HETATM   12  C   UNL     1     -40.535  53.331 -53.749  1.00  0.00    -0.005 A 
HETATM   13  C   UNL     1     -40.648  54.057 -51.416  1.00  0.00     0.033 A 
HETATM   14  C   UNL     1     -40.923  53.871 -55.005  1.00  0.00     0.040 A 
HETATM   15  C   UNL     1     -39.925  52.130 -53.345  1.00  0.00     0.050 A 
HETATM   16  C   UNL     1     -39.699  51.886 -51.983  1.00  0.00     0.069 A 
HETATM   17  C   UNL     1     -40.044  52.850 -51.037  1.00  0.00     0.039 A 
BRANCH  16  18
HETATM   18  O   UNL     1     -39.125  50.674 -51.713  1.00  0.00    -0.356 OA
HETATM   19  C   UNL     1     -39.763  49.873 -50.723  1.00  0.00     0.210 C 
ENDBRANCH  16  18
ENDBRANCH   7   8
ENDBRANCH   3   7
BRANCH   1  20
HETATM   20  C   UNL     1     -44.748  57.710 -58.581  1.00  0.00     0.129 A 
HETATM   21  N   UNL     1     -44.242  58.719 -59.378  1.00  0.00    -0.249 N 
HETATM   22  N   UNL     1     -45.172  59.267 -60.190  1.00  0.00    -0.183 NA
HETATM   23  C   UNL     1     -46.287  58.599 -59.901  1.00  0.00     0.142 A 
HETATM   24  C   UNL     1     -46.082  57.622 -58.913  1.00  0.00     0.071 A 
BRANCH  21  25
HETATM   25  C   UNL     1     -42.883  59.267 -59.429  1.00  0.00     0.111 C 
HETATM   26  C   UNL     1     -42.546  59.703 -60.859  1.00  0.00     0.035 C 
BRANCH  25  27
HETATM   27  C   UNL     1     -42.630  60.364 -58.359  1.00  0.00     0.002 C 
HETATM   28  C   UNL     1     -41.970  59.789 -57.099  1.00  0.00     0.011 C 
HETATM   29  C   UNL     1     -41.752  61.499 -58.901  1.00  0.00     0.011 C 
ENDBRANCH  25  27
ENDBRANCH  21  25
ENDBRANCH   1  20
TORSDOF 6
ENDMDL
