MODEL 1
REMARK VINA RESULT:      -9.3      0.000      0.000
REMARK  7 active torsions:
REMARK  status: ('A' for Active; 'I' for Inactive)
REMARK    1  A    between atoms: C_2  and  O_3 
REMARK    2  A    between atoms: O_3  and  C_4 
REMARK    3  A    between atoms: C_7  and  N_8 
REMARK    4  A    between atoms: C_9  and  O_10 
REMARK    5  A    between atoms: C_9  and  C_11 
REMARK       I    between atoms: C_11  and  N_12 
REMARK    6  A    between atoms: N_12  and  C_13 
REMARK    7  A    between atoms: C_13  and  C_14 
ROOT
HETATM    1  N   UNL     1     -43.027  57.183 -54.496  1.00  0.00    -0.254 N 
HETATM    2  C   UNL     1     -43.192  55.838 -53.917  1.00  0.00     0.256 C 
HETATM    3  C   UNL     1     -42.782  55.785 -52.463  1.00  0.00     0.034 A 
HETATM    4  C   UNL     1     -41.791  56.666 -52.040  1.00  0.00     0.048 A 
HETATM    5  N   UNL     1     -41.303  57.598 -52.952  1.00  0.00    -0.308 N 
HETATM    6  C   UNL     1     -41.903  57.922 -54.144  1.00  0.00     0.330 C 
HETATM    7  O   UNL     1     -41.440  58.876 -54.768  1.00  0.00    -0.246 OA
HETATM    8  C   UNL     1     -43.277  54.838 -51.553  1.00  0.00     0.015 A 
HETATM    9  C   UNL     1     -42.790  54.794 -50.245  1.00  0.00     0.001 A 
HETATM   10  C   UNL     1     -41.791  55.680 -49.843  1.00  0.00     0.002 A 
HETATM   11  C   UNL     1     -41.282  56.615 -50.744  1.00  0.00     0.030 A 
HETATM   12  H   UNL     1     -40.576  58.245 -52.670  1.00  0.00     0.170 HD
ENDROOT
BRANCH   2  13
HETATM   13  O   UNL     1     -44.561  55.419 -53.973  1.00  0.00    -0.359 OA
HETATM   14  H   UNL     1     -44.623  54.903 -54.801  1.00  0.00     0.213 HD
ENDBRANCH   2  13
BRANCH   2  15
HETATM   15  C   UNL     1     -42.334  54.812 -54.772  1.00  0.00     0.279 C 
HETATM   16  N   UNL     1     -41.028  54.594 -54.385  1.00  0.00    -0.352 N 
HETATM   17  H   UNL     1     -40.680  55.016 -53.531  1.00  0.00     0.162 HD
HETATM   18  O   UNL     1     -42.821  54.246 -55.757  1.00  0.00    -0.268 OA
BRANCH  16  19
HETATM   19  C   UNL     1     -40.196  53.627 -55.054  1.00  0.00     0.161 C 
BRANCH  19  20
HETATM   20  C   UNL     1     -40.047  52.384 -54.217  1.00  0.00    -0.038 A 
HETATM   21  C   UNL     1     -40.071  52.469 -52.815  1.00  0.00     0.048 A 
HETATM   22  C   UNL     1     -39.903  51.309 -52.089  1.00  0.00     0.105 A 
HETATM   23  C   UNL     1     -39.706  50.093 -52.700  1.00  0.00     0.105 A 
HETATM   24  O   UNL     1     -39.902  51.213 -50.732  1.00  0.00    -0.323 OA
HETATM   25  O   UNL     1     -39.561  49.080 -51.805  1.00  0.00    -0.323 OA
HETATM   26  C   UNL     1     -39.662  49.970 -54.071  1.00  0.00     0.040 A 
HETATM   27  C   UNL     1     -39.703  49.794 -50.560  1.00  0.00     0.352 A 
HETATM   28  C   UNL     1     -39.830  51.130 -54.835  1.00  0.00     0.012 A 
ENDBRANCH  19  20
ENDBRANCH  16  19
ENDBRANCH   2  15
BRANCH   1  29
HETATM   29  C   UNL     1     -43.773  57.530 -55.667  1.00  0.00     0.043 A 
HETATM   30  C   UNL     1     -45.063  58.066 -55.589  1.00  0.00     0.032 A 
HETATM   31  C   UNL     1     -45.776  58.396 -56.753  1.00  0.00     0.039 A 
HETATM   32  C   UNL     1     -45.211  58.178 -58.007  1.00  0.00     0.068 A 
HETATM   33  C   UNL     1     -43.944  57.607 -58.091  1.00  0.00     0.039 A 
HETATM   34  C   UNL     1     -43.232  57.286 -56.933  1.00  0.00     0.032 A 
BRANCH  32  35
HETATM   35  O   UNL     1     -45.793  58.452 -59.213  1.00  0.00    -0.352 OA
BRANCH  35  36
HETATM   36  C   UNL     1     -45.724  57.432 -60.208  1.00  0.00     0.171 C 
HETATM   37  C   UNL     1     -46.921  56.519 -60.015  1.00  0.00     0.034 C 
ENDBRANCH  35  36
ENDBRANCH  32  35
ENDBRANCH   1  29
TORSDOF 7
ENDMDL
MODEL 2
REMARK VINA RESULT:      -9.3      1.122      1.826
REMARK  7 active torsions:
REMARK  status: ('A' for Active; 'I' for Inactive)
REMARK    1  A    between atoms: C_2  and  O_3 
REMARK    2  A    between atoms: O_3  and  C_4 
REMARK    3  A    between atoms: C_7  and  N_8 
REMARK    4  A    between atoms: C_9  and  O_10 
REMARK    5  A    between atoms: C_9  and  C_11 
REMARK       I    between atoms: C_11  and  N_12 
REMARK    6  A    between atoms: N_12  and  C_13 
REMARK    7  A    between atoms: C_13  and  C_14 
ROOT
HETATM    1  N   UNL     1     -43.366  57.573 -55.498  1.00  0.00    -0.254 N 
HETATM    2  C   UNL     1     -43.432  56.442 -54.556  1.00  0.00     0.256 C 
HETATM    3  C   UNL     1     -42.904  56.805 -53.186  1.00  0.00     0.034 A 
HETATM    4  C   UNL     1     -41.919  57.783 -53.114  1.00  0.00     0.048 A 
HETATM    5  N   UNL     1     -41.542  58.430 -54.288  1.00  0.00    -0.308 N 
HETATM    6  C   UNL     1     -42.247  58.398 -55.465  1.00  0.00     0.330 C 
HETATM    7  O   UNL     1     -41.874  59.146 -56.368  1.00  0.00    -0.246 OA
HETATM    8  C   UNL     1     -43.288  56.144 -52.009  1.00  0.00     0.015 A 
HETATM    9  C   UNL     1     -42.696  56.475 -50.789  1.00  0.00     0.001 A 
HETATM   10  C   UNL     1     -41.704  57.453 -50.738  1.00  0.00     0.002 A 
HETATM   11  C   UNL     1     -41.306  58.105 -51.905  1.00  0.00     0.030 A 
HETATM   12  H   UNL     1     -40.820  59.141 -54.262  1.00  0.00     0.170 HD
ENDROOT
BRANCH   2  13
HETATM   13  O   UNL     1     -44.783  56.004 -54.372  1.00  0.00    -0.359 OA
HETATM   14  H   UNL     1     -45.125  56.567 -53.649  1.00  0.00     0.213 HD
ENDBRANCH   2  13
BRANCH   2  15
HETATM   15  C   UNL     1     -42.606  55.230 -55.164  1.00  0.00     0.279 C 
HETATM   16  N   UNL     1     -41.269  55.141 -54.836  1.00  0.00    -0.352 N 
HETATM   17  H   UNL     1     -40.873  55.784 -54.159  1.00  0.00     0.162 HD
HETATM   18  O   UNL     1     -43.145  54.411 -55.917  1.00  0.00    -0.268 OA
BRANCH  16  19
HETATM   19  C   UNL     1     -40.457  54.036 -55.279  1.00  0.00     0.161 C 
BRANCH  19  20
HETATM   20  C   UNL     1     -40.209  53.072 -54.151  1.00  0.00    -0.038 A 
HETATM   21  C   UNL     1     -39.996  51.709 -54.420  1.00  0.00     0.048 A 
HETATM   22  C   UNL     1     -39.801  50.857 -53.353  1.00  0.00     0.105 A 
HETATM   23  C   UNL     1     -39.819  51.306 -52.054  1.00  0.00     0.105 A 
HETATM   24  O   UNL     1     -39.580  49.517 -53.435  1.00  0.00    -0.323 OA
HETATM   25  O   UNL     1     -39.608  50.306 -51.156  1.00  0.00    -0.323 OA
HETATM   26  C   UNL     1     -40.038  52.631 -51.748  1.00  0.00     0.040 A 
HETATM   27  C   UNL     1     -39.441  49.179 -52.040  1.00  0.00     0.352 A 
HETATM   28  C   UNL     1     -40.240  53.520 -52.810  1.00  0.00     0.012 A 
ENDBRANCH  19  20
ENDBRANCH  16  19
ENDBRANCH   2  15
BRANCH   1  29
HETATM   29  C   UNL     1     -44.217  57.568 -56.649  1.00  0.00     0.043 A 
HETATM   30  C   UNL     1     -43.814  57.004 -57.864  1.00  0.00     0.032 A 
HETATM   31  C   UNL     1     -44.667  57.015 -58.979  1.00  0.00     0.039 A 
HETATM   32  C   UNL     1     -45.927  57.604 -58.894  1.00  0.00     0.068 A 
HETATM   33  C   UNL     1     -46.317  58.202 -57.698  1.00  0.00     0.039 A 
HETATM   34  C   UNL     1     -45.471  58.185 -56.587  1.00  0.00     0.032 A 
BRANCH  32  35
HETATM   35  O   UNL     1     -46.851  57.683 -59.898  1.00  0.00    -0.352 OA
BRANCH  35  36
HETATM   36  C   UNL     1     -47.126  56.482 -60.617  1.00  0.00     0.171 C 
HETATM   37  C   UNL     1     -48.080  56.831 -61.745  1.00  0.00     0.034 C 
ENDBRANCH  35  36
ENDBRANCH  32  35
ENDBRANCH   1  29
TORSDOF 7
ENDMDL
MODEL 3
REMARK VINA RESULT:      -9.0      2.542      7.212
REMARK  7 active torsions:
REMARK  status: ('A' for Active; 'I' for Inactive)
REMARK    1  A    between atoms: C_2  and  O_3 
REMARK    2  A    between atoms: O_3  and  C_4 
REMARK    3  A    between atoms: C_7  and  N_8 
REMARK    4  A    between atoms: C_9  and  O_10 
REMARK    5  A    between atoms: C_9  and  C_11 
REMARK       I    between atoms: C_11  and  N_12 
REMARK    6  A    between atoms: N_12  and  C_13 
REMARK    7  A    between atoms: C_13  and  C_14 
ROOT
HETATM    1  N   UNL     1     -42.676  56.851 -52.910  1.00  0.00    -0.254 N 
HETATM    2  C   UNL     1     -42.012  58.087 -52.461  1.00  0.00     0.256 C 
HETATM    3  C   UNL     1     -42.921  58.957 -51.624  1.00  0.00     0.034 A 
HETATM    4  C   UNL     1     -44.288  58.890 -51.876  1.00  0.00     0.048 A 
HETATM    5  N   UNL     1     -44.743  57.969 -52.815  1.00  0.00    -0.308 N 
HETATM    6  C   UNL     1     -44.006  56.922 -53.312  1.00  0.00     0.330 C 
HETATM    7  O   UNL     1     -44.593  56.101 -54.014  1.00  0.00    -0.246 OA
HETATM    8  C   UNL     1     -42.453  59.886 -50.681  1.00  0.00     0.015 A 
HETATM    9  C   UNL     1     -43.347  60.716 -50.004  1.00  0.00     0.001 A 
HETATM   10  C   UNL     1     -44.713  60.640 -50.277  1.00  0.00     0.002 A 
HETATM   11  C   UNL     1     -45.186  59.731 -51.222  1.00  0.00     0.030 A 
HETATM   12  H   UNL     1     -45.733  57.907 -53.022  1.00  0.00     0.170 HD
ENDROOT
BRANCH   2  13
HETATM   13  O   UNL     1     -40.867  57.791 -51.652  1.00  0.00    -0.359 OA
HETATM   14  H   UNL     1     -40.452  58.662 -51.492  1.00  0.00     0.213 HD
ENDBRANCH   2  13
BRANCH   2  15
HETATM   15  C   UNL     1     -41.510  58.882 -53.741  1.00  0.00     0.279 C 
HETATM   16  N   UNL     1     -42.372  58.972 -54.814  1.00  0.00    -0.352 N 
HETATM   17  H   UNL     1     -43.317  58.615 -54.732  1.00  0.00     0.162 HD
HETATM   18  O   UNL     1     -40.381  59.384 -53.771  1.00  0.00    -0.268 OA
BRANCH  16  19
HETATM   19  C   UNL     1     -42.034  59.736 -55.989  1.00  0.00     0.161 C 
BRANCH  19  20
HETATM   20  C   UNL     1     -42.287  58.932 -57.236  1.00  0.00    -0.038 A 
HETATM   21  C   UNL     1     -42.836  57.641 -57.146  1.00  0.00     0.048 A 
HETATM   22  C   UNL     1     -43.024  56.931 -58.313  1.00  0.00     0.105 A 
HETATM   23  C   UNL     1     -42.683  57.448 -59.540  1.00  0.00     0.105 A 
HETATM   24  O   UNL     1     -43.543  55.677 -58.405  1.00  0.00    -0.323 OA
HETATM   25  O   UNL     1     -42.948  56.586 -60.558  1.00  0.00    -0.323 OA
HETATM   26  C   UNL     1     -42.130  58.703 -59.669  1.00  0.00     0.040 A 
HETATM   27  C   UNL     1     -43.508  55.472 -59.833  1.00  0.00     0.352 A 
HETATM   28  C   UNL     1     -41.927  59.448 -58.503  1.00  0.00     0.012 A 
ENDBRANCH  19  20
ENDBRANCH  16  19
ENDBRANCH   2  15
BRANCH   1  29
HETATM   29  C   UNL     1     -41.872  55.731 -53.293  1.00  0.00     0.043 A 
HETATM   30  C   UNL     1     -41.199  55.688 -54.519  1.00  0.00     0.032 A 
HETATM   31  C   UNL     1     -40.419  54.576 -54.872  1.00  0.00     0.039 A 
HETATM   32  C   UNL     1     -40.317  53.487 -54.009  1.00  0.00     0.068 A 
HETATM   33  C   UNL     1     -41.018  53.507 -52.806  1.00  0.00     0.039 A 
HETATM   34  C   UNL     1     -41.788  54.617 -52.451  1.00  0.00     0.032 A 
BRANCH  32  35
HETATM   35  O   UNL     1     -39.596  52.347 -54.229  1.00  0.00    -0.352 OA
BRANCH  35  36
HETATM   36  C   UNL     1     -39.875  51.235 -53.381  1.00  0.00     0.171 C 
HETATM   37  C   UNL     1     -40.162  50.039 -54.271  1.00  0.00     0.034 C 
ENDBRANCH  35  36
ENDBRANCH  32  35
ENDBRANCH   1  29
TORSDOF 7
ENDMDL
MODEL 4
REMARK VINA RESULT:      -8.7      2.877      3.749
REMARK  7 active torsions:
REMARK  status: ('A' for Active; 'I' for Inactive)
REMARK    1  A    between atoms: C_2  and  O_3 
REMARK    2  A    between atoms: O_3  and  C_4 
REMARK    3  A    between atoms: C_7  and  N_8 
REMARK    4  A    between atoms: C_9  and  O_10 
REMARK    5  A    between atoms: C_9  and  C_11 
REMARK       I    between atoms: C_11  and  N_12 
REMARK    6  A    between atoms: N_12  and  C_13 
REMARK    7  A    between atoms: C_13  and  C_14 
ROOT
HETATM    1  N   UNL     1     -42.993  58.804 -53.346  1.00  0.00    -0.254 N 
HETATM    2  C   UNL     1     -43.843  58.383 -52.218  1.00  0.00     0.256 C 
HETATM    3  C   UNL     1     -44.128  59.517 -51.259  1.00  0.00     0.034 A 
HETATM    4  C   UNL     1     -43.170  60.518 -51.142  1.00  0.00     0.048 A 
HETATM    5  N   UNL     1     -42.054  60.466 -51.972  1.00  0.00    -0.308 N 
HETATM    6  C   UNL     1     -41.943  59.680 -53.093  1.00  0.00     0.330 C 
HETATM    7  O   UNL     1     -40.962  59.858 -53.813  1.00  0.00    -0.246 OA
HETATM    8  C   UNL     1     -45.255  59.558 -50.423  1.00  0.00     0.015 A 
HETATM    9  C   UNL     1     -45.412  60.594 -49.501  1.00  0.00     0.001 A 
HETATM   10  C   UNL     1     -44.436  61.585 -49.393  1.00  0.00     0.002 A 
HETATM   11  C   UNL     1     -43.306  61.544 -50.209  1.00  0.00     0.030 A 
HETATM   12  H   UNL     1     -41.338  61.180 -51.901  1.00  0.00     0.170 HD
ENDROOT
BRANCH   2  13
HETATM   13  O   UNL     1     -45.112  57.906 -52.680  1.00  0.00    -0.359 OA
HETATM   14  H   UNL     1     -44.898  57.381 -53.476  1.00  0.00     0.213 HD
ENDBRANCH   2  13
BRANCH   2  15
HETATM   15  C   UNL     1     -43.120  57.188 -51.462  1.00  0.00     0.279 C 
HETATM   16  N   UNL     1     -43.823  56.012 -51.309  1.00  0.00    -0.352 N 
HETATM   17  H   UNL     1     -44.731  55.907 -51.748  1.00  0.00     0.162 HD
HETATM   18  O   UNL     1     -41.974  57.322 -51.017  1.00  0.00    -0.268 OA
BRANCH  16  19
HETATM   19  C   UNL     1     -43.224  54.850 -50.702  1.00  0.00     0.161 C 
BRANCH  19  20
HETATM   20  C   UNL     1     -42.446  54.060 -51.720  1.00  0.00    -0.038 A 
HETATM   21  C   UNL     1     -41.280  53.373 -51.342  1.00  0.00     0.048 A 
HETATM   22  C   UNL     1     -40.584  52.686 -52.314  1.00  0.00     0.105 A 
HETATM   23  C   UNL     1     -40.997  52.667 -53.625  1.00  0.00     0.105 A 
HETATM   24  O   UNL     1     -39.444  51.970 -52.120  1.00  0.00    -0.323 OA
HETATM   25  O   UNL     1     -40.171  51.935 -54.419  1.00  0.00    -0.323 OA
HETATM   26  C   UNL     1     -42.126  53.340 -54.039  1.00  0.00     0.040 A 
HETATM   27  C   UNL     1     -39.198  51.483 -53.455  1.00  0.00     0.352 A 
HETATM   28  C   UNL     1     -42.853  54.046 -53.075  1.00  0.00     0.012 A 
ENDBRANCH  19  20
ENDBRANCH  16  19
ENDBRANCH   2  15
BRANCH   1  29
HETATM   29  C   UNL     1     -43.006  58.032 -54.550  1.00  0.00     0.043 A 
HETATM   30  C   UNL     1     -43.981  58.217 -55.537  1.00  0.00     0.032 A 
HETATM   31  C   UNL     1     -43.973  57.443 -56.709  1.00  0.00     0.039 A 
HETATM   32  C   UNL     1     -43.000  56.465 -56.898  1.00  0.00     0.068 A 
HETATM   33  C   UNL     1     -42.052  56.249 -55.900  1.00  0.00     0.039 A 
HETATM   34  C   UNL     1     -42.055  57.023 -54.738  1.00  0.00     0.032 A 
BRANCH  32  35
HETATM   35  O   UNL     1     -42.878  55.646 -57.985  1.00  0.00    -0.352 OA
BRANCH  35  36
HETATM   36  C   UNL     1     -43.663  55.975 -59.130  1.00  0.00     0.171 C 
HETATM   37  C   UNL     1     -44.344  54.702 -59.601  1.00  0.00     0.034 C 
ENDBRANCH  35  36
ENDBRANCH  32  35
ENDBRANCH   1  29
TORSDOF 7
ENDMDL
MODEL 5
REMARK VINA RESULT:      -8.4      2.635      7.317
REMARK  7 active torsions:
REMARK  status: ('A' for Active; 'I' for Inactive)
REMARK    1  A    between atoms: C_2  and  O_3 
REMARK    2  A    between atoms: O_3  and  C_4 
REMARK    3  A    between atoms: C_7  and  N_8 
REMARK    4  A    between atoms: C_9  and  O_10 
REMARK    5  A    between atoms: C_9  and  C_11 
REMARK       I    between atoms: C_11  and  N_12 
REMARK    6  A    between atoms: N_12  and  C_13 
REMARK    7  A    between atoms: C_13  and  C_14 
ROOT
HETATM    1  N   UNL     1     -43.239  57.232 -52.320  1.00  0.00    -0.254 N 
HETATM    2  C   UNL     1     -43.152  58.490 -53.082  1.00  0.00     0.256 C 
HETATM    3  C   UNL     1     -43.229  59.708 -52.190  1.00  0.00     0.034 A 
HETATM    4  C   UNL     1     -43.955  59.596 -51.008  1.00  0.00     0.048 A 
HETATM    5  N   UNL     1     -44.489  58.354 -50.675  1.00  0.00    -0.308 N 
HETATM    6  C   UNL     1     -44.130  57.162 -51.255  1.00  0.00     0.330 C 
HETATM    7  O   UNL     1     -44.571  56.132 -50.749  1.00  0.00    -0.246 OA
HETATM    8  C   UNL     1     -42.691  60.957 -52.536  1.00  0.00     0.015 A 
HETATM    9  C   UNL     1     -42.873  62.060 -51.701  1.00  0.00     0.001 A 
HETATM   10  C   UNL     1     -43.611  61.930 -50.524  1.00  0.00     0.002 A 
HETATM   11  C   UNL     1     -44.162  60.696 -50.179  1.00  0.00     0.030 A 
HETATM   12  H   UNL     1     -45.028  58.249 -49.824  1.00  0.00     0.170 HD
ENDROOT
BRANCH   2  13
HETATM   13  O   UNL     1     -41.910  58.578 -53.790  1.00  0.00    -0.359 OA
HETATM   14  H   UNL     1     -41.488  59.387 -53.439  1.00  0.00     0.213 HD
ENDBRANCH   2  13
BRANCH   2  15
HETATM   15  C   UNL     1     -44.325  58.513 -54.152  1.00  0.00     0.279 C 
HETATM   16  N   UNL     1     -43.996  58.837 -55.452  1.00  0.00    -0.352 N 
HETATM   17  H   UNL     1     -43.024  58.964 -55.709  1.00  0.00     0.162 HD
HETATM   18  O   UNL     1     -45.489  58.264 -53.820  1.00  0.00    -0.268 OA
BRANCH  16  19
HETATM   19  C   UNL     1     -44.980  58.812 -56.505  1.00  0.00     0.161 C 
BRANCH  19  20
HETATM   20  C   UNL     1     -44.636  57.762 -57.528  1.00  0.00    -0.038 A 
HETATM   21  C   UNL     1     -45.486  57.539 -58.625  1.00  0.00     0.048 A 
HETATM   22  C   UNL     1     -45.145  56.548 -59.521  1.00  0.00     0.105 A 
HETATM   23  C   UNL     1     -44.015  55.782 -59.361  1.00  0.00     0.105 A 
HETATM   24  O   UNL     1     -45.851  56.204 -60.632  1.00  0.00    -0.323 OA
HETATM   25  O   UNL     1     -43.866  54.863 -60.353  1.00  0.00    -0.323 OA
HETATM   26  C   UNL     1     -43.164  55.961 -58.293  1.00  0.00     0.040 A 
HETATM   27  C   UNL     1     -45.025  55.147 -61.163  1.00  0.00     0.352 A 
HETATM   28  C   UNL     1     -43.483  56.959 -57.366  1.00  0.00     0.012 A 
ENDBRANCH  19  20
ENDBRANCH  16  19
ENDBRANCH   2  15
BRANCH   1  29
HETATM   29  C   UNL     1     -42.730  56.030 -52.907  1.00  0.00     0.043 A 
HETATM   30  C   UNL     1     -43.399  55.372 -53.945  1.00  0.00     0.032 A 
HETATM   31  C   UNL     1     -42.880  54.192 -54.501  1.00  0.00     0.039 A 
HETATM   32  C   UNL     1     -41.694  53.649 -54.014  1.00  0.00     0.068 A 
HETATM   33  C   UNL     1     -41.045  54.277 -52.953  1.00  0.00     0.039 A 
HETATM   34  C   UNL     1     -41.557  55.455 -52.405  1.00  0.00     0.032 A 
BRANCH  32  35
HETATM   35  O   UNL     1     -41.082  52.512 -54.461  1.00  0.00    -0.352 OA
BRANCH  35  36
HETATM   36  C   UNL     1     -40.063  51.959 -53.630  1.00  0.00     0.171 C 
HETATM   37  C   UNL     1     -39.854  50.517 -54.057  1.00  0.00     0.034 C 
ENDBRANCH  35  36
ENDBRANCH  32  35
ENDBRANCH   1  29
TORSDOF 7
ENDMDL
MODEL 6
REMARK VINA RESULT:      -8.4      2.336      8.009
REMARK  7 active torsions:
REMARK  status: ('A' for Active; 'I' for Inactive)
REMARK    1  A    between atoms: C_2  and  O_3 
REMARK    2  A    between atoms: O_3  and  C_4 
REMARK    3  A    between atoms: C_7  and  N_8 
REMARK    4  A    between atoms: C_9  and  O_10 
REMARK    5  A    between atoms: C_9  and  C_11 
REMARK       I    between atoms: C_11  and  N_12 
REMARK    6  A    between atoms: N_12  and  C_13 
REMARK    7  A    between atoms: C_13  and  C_14 
ROOT
HETATM    1  N   UNL     1     -42.595  55.716 -51.920  1.00  0.00    -0.254 N 
HETATM    2  C   UNL     1     -42.490  56.810 -52.901  1.00  0.00     0.256 C 
HETATM    3  C   UNL     1     -43.113  58.093 -52.398  1.00  0.00     0.034 A 
HETATM    4  C   UNL     1     -44.174  57.987 -51.505  1.00  0.00     0.048 A 
HETATM    5  N   UNL     1     -44.539  56.720 -51.059  1.00  0.00    -0.308 N 
HETATM    6  C   UNL     1     -43.774  55.587 -51.194  1.00  0.00     0.330 C 
HETATM    7  O   UNL     1     -44.158  54.574 -50.612  1.00  0.00    -0.246 OA
HETATM    8  C   UNL     1     -42.740  59.367 -52.857  1.00  0.00     0.015 A 
HETATM    9  C   UNL     1     -43.417  60.503 -52.411  1.00  0.00     0.001 A 
HETATM   10  C   UNL     1     -44.483  60.376 -51.522  1.00  0.00     0.002 A 
HETATM   11  C   UNL     1     -44.871  59.114 -51.072  1.00  0.00     0.030 A 
HETATM   12  H   UNL     1     -45.314  56.616 -50.414  1.00  0.00     0.170 HD
ENDROOT
BRANCH   2  13
HETATM   13  O   UNL     1     -41.120  57.107 -53.195  1.00  0.00    -0.359 OA
HETATM   14  H   UNL     1     -40.618  56.385 -52.767  1.00  0.00     0.213 HD
ENDBRANCH   2  13
BRANCH   2  15
HETATM   15  C   UNL     1     -43.188  56.347 -54.249  1.00  0.00     0.279 C 
HETATM   16  N   UNL     1     -42.392  56.219 -55.368  1.00  0.00    -0.352 N 
HETATM   17  H   UNL     1     -41.389  56.335 -55.288  1.00  0.00     0.162 HD
HETATM   18  O   UNL     1     -44.404  56.127 -54.289  1.00  0.00    -0.268 OA
BRANCH  16  19
HETATM   19  C   UNL     1     -42.922  55.734 -56.618  1.00  0.00     0.161 C 
BRANCH  19  20
HETATM   20  C   UNL     1     -43.015  56.849 -57.625  1.00  0.00    -0.038 A 
HETATM   21  C   UNL     1     -42.187  57.978 -57.508  1.00  0.00     0.048 A 
HETATM   22  C   UNL     1     -42.326  58.987 -58.437  1.00  0.00     0.105 A 
HETATM   23  C   UNL     1     -43.249  58.916 -59.453  1.00  0.00     0.105 A 
HETATM   24  O   UNL     1     -41.607  60.142 -58.471  1.00  0.00    -0.323 OA
HETATM   25  O   UNL     1     -43.224  60.013 -60.256  1.00  0.00    -0.323 OA
HETATM   26  C   UNL     1     -44.088  57.833 -59.594  1.00  0.00     0.040 A 
HETATM   27  C   UNL     1     -42.170  60.778 -59.637  1.00  0.00     0.352 A 
HETATM   28  C   UNL     1     -43.971  56.792 -58.666  1.00  0.00     0.012 A 
ENDBRANCH  19  20
ENDBRANCH  16  19
ENDBRANCH   2  15
BRANCH   1  29
HETATM   29  C   UNL     1     -41.689  54.612 -52.013  1.00  0.00     0.043 A 
HETATM   30  C   UNL     1     -41.737  53.703 -53.074  1.00  0.00     0.032 A 
HETATM   31  C   UNL     1     -40.838  52.626 -53.140  1.00  0.00     0.039 A 
HETATM   32  C   UNL     1     -39.891  52.440 -52.136  1.00  0.00     0.068 A 
HETATM   33  C   UNL     1     -39.866  53.318 -51.055  1.00  0.00     0.039 A 
HETATM   34  C   UNL     1     -40.755  54.394 -50.994  1.00  0.00     0.032 A 
BRANCH  32  35
HETATM   35  O   UNL     1     -38.962  51.439 -52.077  1.00  0.00    -0.352 OA
BRANCH  35  36
HETATM   36  C   UNL     1     -39.454  50.100 -52.114  1.00  0.00     0.171 C 
HETATM   37  C   UNL     1     -39.813  49.702 -50.694  1.00  0.00     0.034 C 
ENDBRANCH  35  36
ENDBRANCH  32  35
ENDBRANCH   1  29
TORSDOF 7
ENDMDL
MODEL 7
REMARK VINA RESULT:      -8.3      2.065      2.863
REMARK  7 active torsions:
REMARK  status: ('A' for Active; 'I' for Inactive)
REMARK    1  A    between atoms: C_2  and  O_3 
REMARK    2  A    between atoms: O_3  and  C_4 
REMARK    3  A    between atoms: C_7  and  N_8 
REMARK    4  A    between atoms: C_9  and  O_10 
REMARK    5  A    between atoms: C_9  and  C_11 
REMARK       I    between atoms: C_11  and  N_12 
REMARK    6  A    between atoms: N_12  and  C_13 
REMARK    7  A    between atoms: C_13  and  C_14 
ROOT
HETATM    1  N   UNL     1     -44.051  58.569 -56.223  1.00  0.00    -0.254 N 
HETATM    2  C   UNL     1     -44.138  57.599 -55.118  1.00  0.00     0.256 C 
HETATM    3  C   UNL     1     -43.704  58.193 -53.797  1.00  0.00     0.034 A 
HETATM    4  C   UNL     1     -42.756  59.209 -53.828  1.00  0.00     0.048 A 
HETATM    5  N   UNL     1     -42.329  59.678 -55.068  1.00  0.00    -0.308 N 
HETATM    6  C   UNL     1     -42.962  59.434 -56.262  1.00  0.00     0.330 C 
HETATM    7  O   UNL     1     -42.559  60.044 -57.250  1.00  0.00    -0.246 OA
HETATM    8  C   UNL     1     -44.137  57.710 -52.552  1.00  0.00     0.015 A 
HETATM    9  C   UNL     1     -43.629  58.252 -51.370  1.00  0.00     0.001 A 
HETATM   10  C   UNL     1     -42.672  59.265 -51.422  1.00  0.00     0.002 A 
HETATM   11  C   UNL     1     -42.226  59.741 -52.654  1.00  0.00     0.030 A 
HETATM   12  H   UNL     1     -41.633  60.413 -55.117  1.00  0.00     0.170 HD
ENDROOT
BRANCH   2  13
HETATM   13  O   UNL     1     -45.483  57.141 -54.940  1.00  0.00    -0.359 OA
HETATM   14  H   UNL     1     -45.540  56.335 -55.492  1.00  0.00     0.213 HD
ENDBRANCH   2  13
BRANCH   2  15
HETATM   15  C   UNL     1     -43.240  56.340 -55.481  1.00  0.00     0.279 C 
HETATM   16  N   UNL     1     -43.699  55.097 -55.098  1.00  0.00    -0.352 N 
HETATM   17  H   UNL     1     -44.619  55.007 -54.683  1.00  0.00     0.162 HD
HETATM   18  O   UNL     1     -42.162  56.481 -56.070  1.00  0.00    -0.268 OA
BRANCH  16  19
HETATM   19  C   UNL     1     -42.989  53.892 -55.447  1.00  0.00     0.161 C 
BRANCH  19  20
HETATM   20  C   UNL     1     -42.081  53.466 -54.326  1.00  0.00    -0.038 A 
HETATM   21  C   UNL     1     -42.325  53.904 -53.013  1.00  0.00     0.048 A 
HETATM   22  C   UNL     1     -41.450  53.512 -52.022  1.00  0.00     0.105 A 
HETATM   23  C   UNL     1     -40.358  52.721 -52.290  1.00  0.00     0.105 A 
HETATM   24  O   UNL     1     -41.539  53.842 -50.705  1.00  0.00    -0.323 OA
HETATM   25  O   UNL     1     -39.626  52.452 -51.176  1.00  0.00    -0.323 OA
HETATM   26  C   UNL     1     -40.077  52.282 -53.565  1.00  0.00     0.040 A 
HETATM   27  C   UNL     1     -40.390  53.152 -50.173  1.00  0.00     0.352 A 
HETATM   28  C   UNL     1     -40.947  52.664 -54.592  1.00  0.00     0.012 A 
ENDBRANCH  19  20
ENDBRANCH  16  19
ENDBRANCH   2  15
BRANCH   1  29
HETATM   29  C   UNL     1     -44.831  58.349 -57.403  1.00  0.00     0.043 A 
HETATM   30  C   UNL     1     -44.398  57.502 -58.429  1.00  0.00     0.032 A 
HETATM   31  C   UNL     1     -45.181  57.306 -59.578  1.00  0.00     0.039 A 
HETATM   32  C   UNL     1     -46.399  57.967 -59.718  1.00  0.00     0.068 A 
HETATM   33  C   UNL     1     -46.816  58.843 -58.718  1.00  0.00     0.039 A 
HETATM   34  C   UNL     1     -46.040  59.032 -57.572  1.00  0.00     0.032 A 
BRANCH  32  35
HETATM   35  O   UNL     1     -47.255  57.867 -60.779  1.00  0.00    -0.352 OA
BRANCH  35  36
HETATM   36  C   UNL     1     -47.586  56.551 -61.217  1.00  0.00     0.171 C 
HETATM   37  C   UNL     1     -48.418  56.683 -62.481  1.00  0.00     0.034 C 
ENDBRANCH  35  36
ENDBRANCH  32  35
ENDBRANCH   1  29
TORSDOF 7
ENDMDL
MODEL 8
REMARK VINA RESULT:      -7.9      3.709      8.781
REMARK  7 active torsions:
REMARK  status: ('A' for Active; 'I' for Inactive)
REMARK    1  A    between atoms: C_2  and  O_3 
REMARK    2  A    between atoms: O_3  and  C_4 
REMARK    3  A    between atoms: C_7  and  N_8 
REMARK    4  A    between atoms: C_9  and  O_10 
REMARK    5  A    between atoms: C_9  and  C_11 
REMARK       I    between atoms: C_11  and  N_12 
REMARK    6  A    between atoms: N_12  and  C_13 
REMARK    7  A    between atoms: C_13  and  C_14 
ROOT
HETATM    1  N   UNL     1     -42.756  56.375 -54.169  1.00  0.00    -0.254 N 
HETATM    2  C   UNL     1     -43.708  57.482 -54.365  1.00  0.00     0.256 C 
HETATM    3  C   UNL     1     -44.247  57.533 -55.777  1.00  0.00     0.034 A 
HETATM    4  C   UNL     1     -43.427  57.060 -56.797  1.00  0.00     0.048 A 
HETATM    5  N   UNL     1     -42.204  56.490 -56.452  1.00  0.00    -0.308 N 
HETATM    6  C   UNL     1     -41.852  56.090 -55.186  1.00  0.00     0.330 C 
HETATM    7  O   UNL     1     -40.802  55.461 -55.065  1.00  0.00    -0.246 OA
HETATM    8  C   UNL     1     -45.479  58.113 -56.115  1.00  0.00     0.015 A 
HETATM    9  C   UNL     1     -45.875  58.201 -57.451  1.00  0.00     0.001 A 
HETATM   10  C   UNL     1     -45.036  57.728 -58.459  1.00  0.00     0.002 A 
HETATM   11  C   UNL     1     -43.803  57.163 -58.134  1.00  0.00     0.030 A 
HETATM   12  H   UNL     1     -41.587  56.145 -57.177  1.00  0.00     0.170 HD
ENDROOT
BRANCH   2  13
HETATM   13  O   UNL     1     -44.840  57.347 -53.499  1.00  0.00    -0.359 OA
HETATM   14  H   UNL     1     -44.497  57.580 -52.613  1.00  0.00     0.213 HD
ENDBRANCH   2  13
BRANCH   2  15
HETATM   15  C   UNL     1     -42.977  58.845 -54.003  1.00  0.00     0.279 C 
HETATM   16  N   UNL     1     -43.546  59.633 -53.025  1.00  0.00    -0.352 N 
HETATM   17  H   UNL     1     -44.350  59.293 -52.508  1.00  0.00     0.162 HD
HETATM   18  O   UNL     1     -41.946  59.186 -54.593  1.00  0.00    -0.268 OA
BRANCH  16  19
HETATM   19  C   UNL     1     -42.916  60.850 -52.577  1.00  0.00     0.161 C 
BRANCH  19  20
HETATM   20  C   UNL     1     -43.486  61.288 -51.254  1.00  0.00    -0.038 A 
HETATM   21  C   UNL     1     -44.403  60.469 -50.573  1.00  0.00     0.048 A 
HETATM   22  C   UNL     1     -44.920  60.925 -49.379  1.00  0.00     0.105 A 
HETATM   23  C   UNL     1     -44.569  62.145 -48.854  1.00  0.00     0.105 A 
HETATM   24  O   UNL     1     -45.812  60.261 -48.594  1.00  0.00    -0.323 OA
HETATM   25  O   UNL     1     -45.192  62.402 -47.673  1.00  0.00    -0.323 OA
HETATM   26  C   UNL     1     -43.684  62.983 -49.498  1.00  0.00     0.040 A 
HETATM   27  C   UNL     1     -45.966  61.196 -47.507  1.00  0.00     0.352 A 
HETATM   28  C   UNL     1     -43.142  62.549 -50.712  1.00  0.00     0.012 A 
ENDBRANCH  19  20
ENDBRANCH  16  19
ENDBRANCH   2  15
BRANCH   1  29
HETATM   29  C   UNL     1     -42.515  55.895 -52.843  1.00  0.00     0.043 A 
HETATM   30  C   UNL     1     -41.857  56.672 -51.883  1.00  0.00     0.032 A 
HETATM   31  C   UNL     1     -41.629  56.176 -50.589  1.00  0.00     0.039 A 
HETATM   32  C   UNL     1     -42.044  54.891 -50.247  1.00  0.00     0.068 A 
HETATM   33  C   UNL     1     -42.662  54.098 -51.211  1.00  0.00     0.039 A 
HETATM   34  C   UNL     1     -42.895  54.594 -52.495  1.00  0.00     0.032 A 
BRANCH  32  35
HETATM   35  O   UNL     1     -41.886  54.289 -49.031  1.00  0.00    -0.352 OA
BRANCH  35  36
HETATM   36  C   UNL     1     -40.612  54.428 -48.404  1.00  0.00     0.171 C 
HETATM   37  C   UNL     1     -39.553  54.075 -49.432  1.00  0.00     0.034 C 
ENDBRANCH  35  36
ENDBRANCH  32  35
ENDBRANCH   1  29
TORSDOF 7
ENDMDL
MODEL 9
REMARK VINA RESULT:      -7.9      3.022      6.632
REMARK  7 active torsions:
REMARK  status: ('A' for Active; 'I' for Inactive)
REMARK    1  A    between atoms: C_2  and  O_3 
REMARK    2  A    between atoms: O_3  and  C_4 
REMARK    3  A    between atoms: C_7  and  N_8 
REMARK    4  A    between atoms: C_9  and  O_10 
REMARK    5  A    between atoms: C_9  and  C_11 
REMARK       I    between atoms: C_11  and  N_12 
REMARK    6  A    between atoms: N_12  and  C_13 
REMARK    7  A    between atoms: C_13  and  C_14 
ROOT
HETATM    1  N   UNL     1     -43.038  57.884 -51.671  1.00  0.00    -0.254 N 
HETATM    2  C   UNL     1     -42.890  56.670 -52.492  1.00  0.00     0.256 C 
HETATM    3  C   UNL     1     -42.110  55.587 -51.781  1.00  0.00     0.034 A 
HETATM    4  C   UNL     1     -41.152  55.986 -50.855  1.00  0.00     0.048 A 
HETATM    5  N   UNL     1     -41.029  57.344 -50.574  1.00  0.00    -0.308 N 
HETATM    6  C   UNL     1     -41.954  58.303 -50.908  1.00  0.00     0.330 C 
HETATM    7  O   UNL     1     -41.783  59.434 -50.454  1.00  0.00    -0.246 OA
HETATM    8  C   UNL     1     -42.237  54.220 -52.075  1.00  0.00     0.015 A 
HETATM    9  C   UNL     1     -41.423  53.283 -51.438  1.00  0.00     0.001 A 
HETATM   10  C   UNL     1     -40.462  53.703 -50.519  1.00  0.00     0.002 A 
HETATM   11  C   UNL     1     -40.318  55.060 -50.231  1.00  0.00     0.030 A 
HETATM   12  H   UNL     1     -40.333  57.661 -49.909  1.00  0.00     0.170 HD
ENDROOT
BRANCH   2  13
HETATM   13  O   UNL     1     -44.168  56.109 -52.816  1.00  0.00    -0.359 OA
HETATM   14  H   UNL     1     -44.060  55.150 -52.655  1.00  0.00     0.213 HD
ENDBRANCH   2  13
BRANCH   2  15
HETATM   15  C   UNL     1     -42.174  57.065 -53.853  1.00  0.00     0.279 C 
HETATM   16  N   UNL     1     -42.904  56.945 -55.017  1.00  0.00    -0.352 N 
HETATM   17  H   UNL     1     -43.886  56.697 -54.972  1.00  0.00     0.162 HD
HETATM   18  O   UNL     1     -40.999  57.451 -53.860  1.00  0.00    -0.268 OA
BRANCH  16  19
HETATM   19  C   UNL     1     -42.363  57.350 -56.290  1.00  0.00     0.161 C 
BRANCH  19  20
HETATM   20  C   UNL     1     -43.347  57.078 -57.396  1.00  0.00    -0.038 A 
HETATM   21  C   UNL     1     -43.100  56.053 -58.326  1.00  0.00     0.048 A 
HETATM   22  C   UNL     1     -44.016  55.859 -59.339  1.00  0.00     0.105 A 
HETATM   23  C   UNL     1     -45.141  56.639 -59.460  1.00  0.00     0.105 A 
HETATM   24  O   UNL     1     -43.932  54.915 -60.316  1.00  0.00    -0.323 OA
HETATM   25  O   UNL     1     -45.908  56.283 -60.525  1.00  0.00    -0.323 OA
HETATM   26  C   UNL     1     -45.411  57.662 -58.577  1.00  0.00     0.040 A 
HETATM   27  C   UNL     1     -45.144  55.179 -61.053  1.00  0.00     0.352 A 
HETATM   28  C   UNL     1     -44.501  57.884 -57.538  1.00  0.00     0.012 A 
ENDBRANCH  19  20
ENDBRANCH  16  19
ENDBRANCH   2  15
BRANCH   1  29
HETATM   29  C   UNL     1     -44.100  58.796 -51.967  1.00  0.00     0.043 A 
HETATM   30  C   UNL     1     -44.047  59.661 -53.066  1.00  0.00     0.032 A 
HETATM   31  C   UNL     1     -45.101  60.550 -53.332  1.00  0.00     0.039 A 
HETATM   32  C   UNL     1     -46.212  60.593 -52.493  1.00  0.00     0.068 A 
HETATM   33  C   UNL     1     -46.251  59.763 -51.375  1.00  0.00     0.039 A 
HETATM   34  C   UNL     1     -45.206  58.874 -51.114  1.00  0.00     0.032 A 
BRANCH  32  35
HETATM   35  O   UNL     1     -47.301  61.406 -52.636  1.00  0.00    -0.352 OA
BRANCH  35  36
HETATM   36  C   UNL     1     -47.220  62.702 -52.046  1.00  0.00     0.171 C 
HETATM   37  C   UNL     1     -47.162  63.717 -53.173  1.00  0.00     0.034 C 
ENDBRANCH  35  36
ENDBRANCH  32  35
ENDBRANCH   1  29
TORSDOF 7
ENDMDL
MODEL 10
REMARK VINA RESULT:      -7.9      2.069      5.936
REMARK  7 active torsions:
REMARK  status: ('A' for Active; 'I' for Inactive)
REMARK    1  A    between atoms: C_2  and  O_3 
REMARK    2  A    between atoms: O_3  and  C_4 
REMARK    3  A    between atoms: C_7  and  N_8 
REMARK    4  A    between atoms: C_9  and  O_10 
REMARK    5  A    between atoms: C_9  and  C_11 
REMARK       I    between atoms: C_11  and  N_12 
REMARK    6  A    between atoms: N_12  and  C_13 
REMARK    7  A    between atoms: C_13  and  C_14 
ROOT
HETATM    1  N   UNL     1     -43.343  57.538 -55.361  1.00  0.00    -0.254 N 
HETATM    2  C   UNL     1     -42.564  56.794 -56.367  1.00  0.00     0.256 C 
HETATM    3  C   UNL     1     -43.048  57.053 -57.775  1.00  0.00     0.034 A 
HETATM    4  C   UNL     1     -44.394  57.362 -57.948  1.00  0.00     0.048 A 
HETATM    5  N   UNL     1     -45.191  57.500 -56.815  1.00  0.00    -0.308 N 
HETATM    6  C   UNL     1     -44.719  57.642 -55.533  1.00  0.00     0.330 C 
HETATM    7  O   UNL     1     -45.538  57.912 -54.656  1.00  0.00    -0.246 OA
HETATM    8  C   UNL     1     -42.238  56.907 -58.912  1.00  0.00     0.015 A 
HETATM    9  C   UNL     1     -42.774  57.081 -60.188  1.00  0.00     0.001 A 
HETATM   10  C   UNL     1     -44.127  57.382 -60.341  1.00  0.00     0.002 A 
HETATM   11  C   UNL     1     -44.944  57.515 -59.218  1.00  0.00     0.030 A 
HETATM   12  H   UNL     1     -46.176  57.716 -56.914  1.00  0.00     0.170 HD
ENDROOT
BRANCH   2  13
HETATM   13  O   UNL     1     -41.183  57.171 -56.331  1.00  0.00    -0.359 OA
HETATM   14  H   UNL     1     -40.720  56.369 -56.017  1.00  0.00     0.213 HD
ENDBRANCH   2  13
BRANCH   2  15
HETATM   15  C   UNL     1     -42.654  55.245 -56.027  1.00  0.00     0.279 C 
HETATM   16  N   UNL     1     -41.625  54.692 -55.294  1.00  0.00    -0.352 N 
HETATM   17  H   UNL     1     -40.896  55.288 -54.921  1.00  0.00     0.162 HD
HETATM   18  O   UNL     1     -43.607  54.565 -56.424  1.00  0.00    -0.268 OA
BRANCH  16  19
HETATM   19  C   UNL     1     -41.655  53.313 -54.876  1.00  0.00     0.161 C 
BRANCH  19  20
HETATM   20  C   UNL     1     -41.228  53.184 -53.438  1.00  0.00    -0.038 A 
HETATM   21  C   UNL     1     -41.865  53.942 -52.441  1.00  0.00     0.048 A 
HETATM   22  C   UNL     1     -41.422  53.812 -51.142  1.00  0.00     0.105 A 
HETATM   23  C   UNL     1     -40.382  52.977 -50.810  1.00  0.00     0.105 A 
HETATM   24  O   UNL     1     -41.926  54.467 -50.060  1.00  0.00    -0.323 OA
HETATM   25  O   UNL     1     -40.104  52.998 -49.479  1.00  0.00    -0.323 OA
HETATM   26  C   UNL     1     -39.723  52.229 -51.759  1.00  0.00     0.040 A 
HETATM   27  C   UNL     1     -41.097  53.932 -49.008  1.00  0.00     0.352 A 
HETATM   28  C   UNL     1     -40.150  52.338 -53.087  1.00  0.00     0.012 A 
ENDBRANCH  19  20
ENDBRANCH  16  19
ENDBRANCH   2  15
BRANCH   1  29
HETATM   29  C   UNL     1     -42.762  57.783 -54.077  1.00  0.00     0.043 A 
HETATM   30  C   UNL     1     -43.184  57.101 -52.931  1.00  0.00     0.032 A 
HETATM   31  C   UNL     1     -42.600  57.363 -51.681  1.00  0.00     0.039 A 
HETATM   32  C   UNL     1     -41.597  58.322 -51.563  1.00  0.00     0.068 A 
HETATM   33  C   UNL     1     -41.201  59.034 -52.693  1.00  0.00     0.039 A 
HETATM   34  C   UNL     1     -41.777  58.768 -53.937  1.00  0.00     0.032 A 
BRANCH  32  35
HETATM   35  O   UNL     1     -40.947  58.674 -50.413  1.00  0.00    -0.352 OA
BRANCH  35  36
HETATM   36  C   UNL     1     -40.303  59.947 -50.401  1.00  0.00     0.171 C 
HETATM   37  C   UNL     1     -38.810  59.705 -50.268  1.00  0.00     0.034 C 
ENDBRANCH  35  36
ENDBRANCH  32  35
ENDBRANCH   1  29
TORSDOF 7
ENDMDL
