MODEL 1
REMARK VINA RESULT:      -8.1      0.000      0.000
REMARK  3 active torsions:
REMARK  status: ('A' for Active; 'I' for Inactive)
REMARK    1  A    between atoms: C_6  and  C_7 
REMARK       I    between atoms: C_7  and  N_8 
REMARK    2  A    between atoms: N_8  and  C_9 
REMARK    3  A    between atoms: N_12  and  C_13 
ROOT
HETATM    1  C   UNL     1     -43.079  56.437 -54.590  1.00  0.00     0.177 C 
HETATM    2  C   UNL     1     -43.255  56.033 -56.070  1.00  0.00     0.248 C 
HETATM    3  O   UNL     1     -42.856  54.927 -56.441  1.00  0.00    -0.271 OA
HETATM    4  N   UNL     1     -43.859  57.040 -56.851  1.00  0.00    -0.299 N 
HETATM    5  C   UNL     1     -44.347  58.231 -56.160  1.00  0.00     0.134 C 
HETATM    6  C   UNL     1     -45.162  57.853 -54.928  1.00  0.00     0.023 C 
HETATM    7  C   UNL     1     -44.401  56.915 -53.995  1.00  0.00     0.036 C 
ENDROOT
BRANCH   1   8
HETATM    8  N   UNL     1     -42.540  55.315 -53.839  1.00  0.00    -0.344 N 
HETATM    9  C   UNL     1     -41.245  55.287 -53.386  1.00  0.00     0.253 C 
HETATM   10  O   UNL     1     -40.462  56.222 -53.492  1.00  0.00    -0.268 OA
HETATM   11  H   UNL     1     -43.126  54.486 -53.776  1.00  0.00     0.163 HD
BRANCH   9  12
HETATM   12  C   UNL     1     -40.848  54.026 -52.706  1.00  0.00     0.043 A 
HETATM   13  C   UNL     1     -41.021  53.879 -51.313  1.00  0.00    -0.045 A 
HETATM   14  C   UNL     1     -40.591  52.690 -50.702  1.00  0.00     0.014 A 
HETATM   15  C   UNL     1     -41.629  54.952 -50.452  1.00  0.00     0.049 C 
HETATM   16  C   UNL     1     -40.036  51.649 -51.453  1.00  0.00    -0.061 A 
HETATM   17  C   UNL     1     -39.599  50.371 -50.797  1.00  0.00     0.048 C 
HETATM   18  C   UNL     1     -39.905  51.798 -52.838  1.00  0.00     0.014 A 
HETATM   19  C   UNL     1     -40.298  52.984 -53.479  1.00  0.00    -0.045 A 
HETATM   20  C   UNL     1     -40.140  53.097 -54.971  1.00  0.00     0.049 C 
ENDBRANCH   9  12
ENDBRANCH   1   8
BRANCH   4  21
HETATM   21  C   UNL     1     -43.901  56.927 -58.252  1.00  0.00     0.154 A 
HETATM   22  N   UNL     1     -44.663  56.051 -58.913  1.00  0.00    -0.155 NA
HETATM   23  N   UNL     1     -44.393  56.241 -60.208  1.00  0.00    -0.283 N 
HETATM   24  C   UNL     1     -45.055  55.432 -61.201  1.00  0.00     0.179 C 
HETATM   25  C   UNL     1     -43.483  57.225 -60.431  1.00  0.00     0.115 A 
HETATM   26  C   UNL     1     -43.139  57.690 -59.184  1.00  0.00     0.071 A 
ENDBRANCH   4  21
TORSDOF 3
ENDMDL
MODEL 2
REMARK VINA RESULT:      -8.0      0.175      1.748
REMARK  3 active torsions:
REMARK  status: ('A' for Active; 'I' for Inactive)
REMARK    1  A    between atoms: C_6  and  C_7 
REMARK       I    between atoms: C_7  and  N_8 
REMARK    2  A    between atoms: N_8  and  C_9 
REMARK    3  A    between atoms: N_12  and  C_13 
ROOT
HETATM    1  C   UNL     1     -43.028  56.394 -54.534  1.00  0.00     0.177 C 
HETATM    2  C   UNL     1     -43.172  55.966 -56.011  1.00  0.00     0.248 C 
HETATM    3  O   UNL     1     -42.756  54.858 -56.357  1.00  0.00    -0.271 OA
HETATM    4  N   UNL     1     -43.769  56.955 -56.819  1.00  0.00    -0.299 N 
HETATM    5  C   UNL     1     -44.281  58.153 -56.156  1.00  0.00     0.134 C 
HETATM    6  C   UNL     1     -45.117  57.786 -54.935  1.00  0.00     0.023 C 
HETATM    7  C   UNL     1     -44.366  56.869 -53.973  1.00  0.00     0.036 C 
ENDROOT
BRANCH   1   8
HETATM    8  N   UNL     1     -42.495  55.288 -53.755  1.00  0.00    -0.344 N 
HETATM    9  C   UNL     1     -41.186  55.243 -53.344  1.00  0.00     0.253 C 
HETATM   10  O   UNL     1     -40.383  56.151 -53.513  1.00  0.00    -0.268 OA
HETATM   11  H   UNL     1     -43.100  54.480 -53.639  1.00  0.00     0.163 HD
BRANCH   9  12
HETATM   12  C   UNL     1     -40.800  54.000 -52.626  1.00  0.00     0.043 A 
HETATM   13  C   UNL     1     -40.275  52.898 -53.335  1.00  0.00    -0.045 A 
HETATM   14  C   UNL     1     -39.965  51.725 -52.625  1.00  0.00     0.014 A 
HETATM   15  C   UNL     1     -40.053  52.919 -54.822  1.00  0.00     0.049 C 
HETATM   16  C   UNL     1     -40.132  51.653 -51.238  1.00  0.00    -0.061 A 
HETATM   17  C   UNL     1     -39.778  50.405 -50.483  1.00  0.00     0.048 C 
HETATM   18  C   UNL     1     -40.620  52.768 -50.548  1.00  0.00     0.014 A 
HETATM   19  C   UNL     1     -40.967  53.946 -51.227  1.00  0.00    -0.045 A 
HETATM   20  C   UNL     1     -41.485  55.120 -50.442  1.00  0.00     0.049 C 
ENDBRANCH   9  12
ENDBRANCH   1   8
BRANCH   4  21
HETATM   21  C   UNL     1     -43.782  56.821 -58.218  1.00  0.00     0.154 A 
HETATM   22  N   UNL     1     -44.595  55.997 -58.887  1.00  0.00    -0.155 NA
HETATM   23  N   UNL     1     -44.276  56.141 -60.177  1.00  0.00    -0.283 N 
HETATM   24  C   UNL     1     -44.974  55.370 -61.175  1.00  0.00     0.179 C 
HETATM   25  C   UNL     1     -43.283  57.044 -60.389  1.00  0.00     0.115 A 
HETATM   26  C   UNL     1     -42.936  57.503 -59.140  1.00  0.00     0.071 A 
ENDBRANCH   4  21
TORSDOF 3
ENDMDL
MODEL 3
REMARK VINA RESULT:      -7.6      2.427      2.972
REMARK  3 active torsions:
REMARK  status: ('A' for Active; 'I' for Inactive)
REMARK    1  A    between atoms: C_6  and  C_7 
REMARK       I    between atoms: C_7  and  N_8 
REMARK    2  A    between atoms: N_8  and  C_9 
REMARK    3  A    between atoms: N_12  and  C_13 
ROOT
HETATM    1  C   UNL     1     -43.207  56.718 -52.398  1.00  0.00     0.177 C 
HETATM    2  C   UNL     1     -43.910  57.038 -53.736  1.00  0.00     0.248 C 
HETATM    3  O   UNL     1     -43.768  56.266 -54.687  1.00  0.00    -0.271 OA
HETATM    4  N   UNL     1     -44.642  58.243 -53.703  1.00  0.00    -0.299 N 
HETATM    5  C   UNL     1     -44.751  58.934 -52.420  1.00  0.00     0.134 C 
HETATM    6  C   UNL     1     -45.136  57.964 -51.308  1.00  0.00     0.023 C 
HETATM    7  C   UNL     1     -44.199  56.760 -51.239  1.00  0.00     0.036 C 
ENDROOT
BRANCH   1   8
HETATM    8  N   UNL     1     -42.558  55.420 -52.487  1.00  0.00    -0.344 N 
HETATM    9  C   UNL     1     -41.221  55.284 -52.766  1.00  0.00     0.253 C 
HETATM   10  O   UNL     1     -40.445  56.225 -52.875  1.00  0.00    -0.268 OA
HETATM   11  H   UNL     1     -43.165  54.605 -52.465  1.00  0.00     0.163 HD
BRANCH   9  12
HETATM   12  C   UNL     1     -40.749  53.880 -52.894  1.00  0.00     0.043 A 
HETATM   13  C   UNL     1     -40.356  53.151 -51.751  1.00  0.00    -0.045 A 
HETATM   14  C   UNL     1     -39.872  51.842 -51.920  1.00  0.00     0.014 A 
HETATM   15  C   UNL     1     -40.413  53.723 -50.362  1.00  0.00     0.049 C 
HETATM   16  C   UNL     1     -39.814  51.250 -53.186  1.00  0.00    -0.061 A 
HETATM   17  C   UNL     1     -39.318  49.843 -53.358  1.00  0.00     0.048 C 
HETATM   18  C   UNL     1     -40.243  51.976 -54.303  1.00  0.00     0.014 A 
HETATM   19  C   UNL     1     -40.704  53.295 -54.176  1.00  0.00    -0.045 A 
HETATM   20  C   UNL     1     -41.157  54.035 -55.404  1.00  0.00     0.049 C 
ENDBRANCH   9  12
ENDBRANCH   1   8
BRANCH   4  21
HETATM   21  C   UNL     1     -45.164  58.793 -54.887  1.00  0.00     0.154 A 
HETATM   22  N   UNL     1     -45.860  58.101 -55.793  1.00  0.00    -0.155 NA
HETATM   23  N   UNL     1     -46.143  58.968 -56.771  1.00  0.00    -0.283 N 
HETATM   24  C   UNL     1     -46.889  58.525 -57.923  1.00  0.00     0.179 C 
HETATM   25  C   UNL     1     -45.667  60.219 -56.537  1.00  0.00     0.115 A 
HETATM   26  C   UNL     1     -45.023  60.141 -55.325  1.00  0.00     0.071 A 
ENDBRANCH   4  21
TORSDOF 3
ENDMDL
MODEL 4
REMARK VINA RESULT:      -7.6      3.772      6.125
REMARK  3 active torsions:
REMARK  status: ('A' for Active; 'I' for Inactive)
REMARK    1  A    between atoms: C_6  and  C_7 
REMARK       I    between atoms: C_7  and  N_8 
REMARK    2  A    between atoms: N_8  and  C_9 
REMARK    3  A    between atoms: N_12  and  C_13 
ROOT
HETATM    1  C   UNL     1     -42.184  57.577 -53.246  1.00  0.00     0.177 C 
HETATM    2  C   UNL     1     -42.402  58.402 -51.958  1.00  0.00     0.248 C 
HETATM    3  O   UNL     1     -42.115  57.899 -50.870  1.00  0.00    -0.271 OA
HETATM    4  N   UNL     1     -42.951  59.678 -52.203  1.00  0.00    -0.299 N 
HETATM    5  C   UNL     1     -43.105  60.092 -53.597  1.00  0.00     0.134 C 
HETATM    6  C   UNL     1     -41.833  59.819 -54.392  1.00  0.00     0.023 C 
HETATM    7  C   UNL     1     -41.372  58.369 -54.268  1.00  0.00     0.036 C 
ENDROOT
BRANCH   1   8
HETATM    8  N   UNL     1     -41.531  56.321 -52.916  1.00  0.00    -0.344 N 
HETATM    9  C   UNL     1     -42.159  55.108 -53.052  1.00  0.00     0.253 C 
HETATM   10  O   UNL     1     -43.273  54.964 -53.538  1.00  0.00    -0.268 OA
HETATM   11  H   UNL     1     -40.629  56.385 -52.451  1.00  0.00     0.163 HD
BRANCH   9  12
HETATM   12  C   UNL     1     -41.365  53.939 -52.593  1.00  0.00     0.043 A 
HETATM   13  C   UNL     1     -40.581  53.203 -53.507  1.00  0.00    -0.045 A 
HETATM   14  C   UNL     1     -39.881  52.077 -53.042  1.00  0.00     0.014 A 
HETATM   15  C   UNL     1     -40.479  53.561 -54.964  1.00  0.00     0.049 C 
HETATM   16  C   UNL     1     -39.921  51.705 -51.694  1.00  0.00    -0.061 A 
HETATM   17  C   UNL     1     -39.153  50.514 -51.198  1.00  0.00     0.048 C 
HETATM   18  C   UNL     1     -40.675  52.468 -50.795  1.00  0.00     0.014 A 
HETATM   19  C   UNL     1     -41.410  53.583 -51.230  1.00  0.00    -0.045 A 
HETATM   20  C   UNL     1     -42.203  54.374 -50.226  1.00  0.00     0.049 C 
ENDBRANCH   9  12
ENDBRANCH   1   8
BRANCH   4  21
HETATM   21  C   UNL     1     -43.411  60.472 -51.140  1.00  0.00     0.154 A 
HETATM   22  N   UNL     1     -44.491  60.192 -50.405  1.00  0.00    -0.155 NA
HETATM   23  N   UNL     1     -44.605  61.196 -49.529  1.00  0.00    -0.283 N 
HETATM   24  C   UNL     1     -45.694  61.199 -48.584  1.00  0.00     0.179 C 
HETATM   25  C   UNL     1     -43.626  62.131 -49.651  1.00  0.00     0.115 A 
HETATM   26  C   UNL     1     -42.836  61.696 -50.688  1.00  0.00     0.071 A 
ENDBRANCH   4  21
TORSDOF 3
ENDMDL
MODEL 5
REMARK VINA RESULT:      -7.6      2.455      3.492
REMARK  3 active torsions:
REMARK  status: ('A' for Active; 'I' for Inactive)
REMARK    1  A    between atoms: C_6  and  C_7 
REMARK       I    between atoms: C_7  and  N_8 
REMARK    2  A    between atoms: N_8  and  C_9 
REMARK    3  A    between atoms: N_12  and  C_13 
ROOT
HETATM    1  C   UNL     1     -43.193  56.700 -52.238  1.00  0.00     0.177 C 
HETATM    2  C   UNL     1     -43.868  57.093 -53.571  1.00  0.00     0.248 C 
HETATM    3  O   UNL     1     -43.697  56.380 -54.562  1.00  0.00    -0.271 OA
HETATM    4  N   UNL     1     -44.611  58.288 -53.485  1.00  0.00    -0.299 N 
HETATM    5  C   UNL     1     -44.756  58.901 -52.166  1.00  0.00     0.134 C 
HETATM    6  C   UNL     1     -45.158  57.864 -51.123  1.00  0.00     0.023 C 
HETATM    7  C   UNL     1     -44.213  56.665 -51.103  1.00  0.00     0.036 C 
ENDROOT
BRANCH   1   8
HETATM    8  N   UNL     1     -42.531  55.414 -52.388  1.00  0.00    -0.344 N 
HETATM    9  C   UNL     1     -41.205  55.305 -52.723  1.00  0.00     0.253 C 
HETATM   10  O   UNL     1     -40.447  56.259 -52.838  1.00  0.00    -0.268 OA
HETATM   11  H   UNL     1     -43.126  54.590 -52.365  1.00  0.00     0.163 HD
BRANCH   9  12
HETATM   12  C   UNL     1     -40.719  53.912 -52.908  1.00  0.00     0.043 A 
HETATM   13  C   UNL     1     -40.683  53.332 -54.195  1.00  0.00    -0.045 A 
HETATM   14  C   UNL     1     -40.261  51.998 -54.322  1.00  0.00     0.014 A 
HETATM   15  C   UNL     1     -41.098  54.076 -55.434  1.00  0.00     0.049 C 
HETATM   16  C   UNL     1     -39.845  51.261 -53.208  1.00  0.00    -0.061 A 
HETATM   17  C   UNL     1     -39.374  49.843 -53.352  1.00  0.00     0.048 C 
HETATM   18  C   UNL     1     -39.854  51.865 -51.945  1.00  0.00     0.014 A 
HETATM   19  C   UNL     1     -40.296  53.186 -51.777  1.00  0.00    -0.045 A 
HETATM   20  C   UNL     1     -40.284  53.793 -50.400  1.00  0.00     0.049 C 
ENDBRANCH   9  12
ENDBRANCH   1   8
BRANCH   4  21
HETATM   21  C   UNL     1     -45.110  58.903 -54.646  1.00  0.00     0.154 A 
HETATM   22  N   UNL     1     -45.629  58.241 -55.683  1.00  0.00    -0.155 NA
HETATM   23  N   UNL     1     -45.953  59.175 -56.584  1.00  0.00    -0.283 N 
HETATM   24  C   UNL     1     -46.537  58.780 -57.842  1.00  0.00     0.179 C 
HETATM   25  C   UNL     1     -45.676  60.440 -56.173  1.00  0.00     0.115 A 
HETATM   26  C   UNL     1     -45.124  60.302 -54.921  1.00  0.00     0.071 A 
ENDBRANCH   4  21
TORSDOF 3
ENDMDL
MODEL 6
REMARK VINA RESULT:      -7.5      2.258      7.743
REMARK  3 active torsions:
REMARK  status: ('A' for Active; 'I' for Inactive)
REMARK    1  A    between atoms: C_6  and  C_7 
REMARK       I    between atoms: C_7  and  N_8 
REMARK    2  A    between atoms: N_8  and  C_9 
REMARK    3  A    between atoms: N_12  and  C_13 
ROOT
HETATM    1  C   UNL     1     -42.088  56.104 -54.293  1.00  0.00     0.177 C 
HETATM    2  C   UNL     1     -41.131  54.892 -54.288  1.00  0.00     0.248 C 
HETATM    3  O   UNL     1     -40.478  54.640 -55.303  1.00  0.00    -0.271 OA
HETATM    4  N   UNL     1     -41.144  54.181 -53.070  1.00  0.00    -0.299 N 
HETATM    5  C   UNL     1     -41.925  54.740 -51.968  1.00  0.00     0.134 C 
HETATM    6  C   UNL     1     -41.637  56.227 -51.795  1.00  0.00     0.023 C 
HETATM    7  C   UNL     1     -41.826  57.010 -53.092  1.00  0.00     0.036 C 
ENDROOT
BRANCH   1   8
HETATM    8  N   UNL     1     -41.943  56.835 -55.542  1.00  0.00    -0.344 N 
HETATM    9  C   UNL     1     -43.020  57.336 -56.229  1.00  0.00     0.253 C 
HETATM   10  O   UNL     1     -44.173  57.296 -55.820  1.00  0.00    -0.268 OA
HETATM   11  H   UNL     1     -41.016  56.844 -55.959  1.00  0.00     0.163 HD
BRANCH   9  12
HETATM   12  C   UNL     1     -42.688  57.985 -57.525  1.00  0.00     0.043 A 
HETATM   13  C   UNL     1     -42.297  59.340 -57.567  1.00  0.00    -0.045 A 
HETATM   14  C   UNL     1     -42.036  59.929 -58.816  1.00  0.00     0.014 A 
HETATM   15  C   UNL     1     -42.170  60.189 -56.331  1.00  0.00     0.049 C 
HETATM   16  C   UNL     1     -42.118  59.185 -59.998  1.00  0.00    -0.061 A 
HETATM   17  C   UNL     1     -41.816  59.814 -61.327  1.00  0.00     0.048 C 
HETATM   18  C   UNL     1     -42.472  57.833 -59.933  1.00  0.00     0.014 A 
HETATM   19  C   UNL     1     -42.768  57.219 -58.706  1.00  0.00    -0.045 A 
HETATM   20  C   UNL     1     -43.140  55.762 -58.686  1.00  0.00     0.049 C 
ENDBRANCH   9  12
ENDBRANCH   1   8
BRANCH   4  21
HETATM   21  C   UNL     1     -40.501  52.936 -52.964  1.00  0.00     0.154 A 
HETATM   22  N   UNL     1     -40.445  52.033 -53.948  1.00  0.00    -0.155 NA
HETATM   23  N   UNL     1     -39.782  50.988 -53.443  1.00  0.00    -0.283 N 
HETATM   24  C   UNL     1     -39.558  49.822 -54.261  1.00  0.00     0.179 C 
HETATM   25  C   UNL     1     -39.384  51.172 -52.157  1.00  0.00     0.115 A 
HETATM   26  C   UNL     1     -39.836  52.424 -51.812  1.00  0.00     0.071 A 
ENDBRANCH   4  21
TORSDOF 3
ENDMDL
MODEL 7
REMARK VINA RESULT:      -7.4      3.851      5.949
REMARK  3 active torsions:
REMARK  status: ('A' for Active; 'I' for Inactive)
REMARK    1  A    between atoms: C_6  and  C_7 
REMARK       I    between atoms: C_7  and  N_8 
REMARK    2  A    between atoms: N_8  and  C_9 
REMARK    3  A    between atoms: N_12  and  C_13 
ROOT
HETATM    1  C   UNL     1     -42.411  57.861 -53.300  1.00  0.00     0.177 C 
HETATM    2  C   UNL     1     -42.598  58.687 -52.008  1.00  0.00     0.248 C 
HETATM    3  O   UNL     1     -42.293  58.182 -50.925  1.00  0.00    -0.271 OA
HETATM    4  N   UNL     1     -43.142  59.967 -52.242  1.00  0.00    -0.299 N 
HETATM    5  C   UNL     1     -43.321  60.382 -53.632  1.00  0.00     0.134 C 
HETATM    6  C   UNL     1     -42.067  60.100 -54.452  1.00  0.00     0.023 C 
HETATM    7  C   UNL     1     -41.613  58.647 -54.337  1.00  0.00     0.036 C 
ENDROOT
BRANCH   1   8
HETATM    8  N   UNL     1     -41.761  56.600 -52.983  1.00  0.00    -0.344 N 
HETATM    9  C   UNL     1     -42.404  55.393 -53.093  1.00  0.00     0.253 C 
HETATM   10  O   UNL     1     -43.534  55.258 -53.544  1.00  0.00    -0.268 OA
HETATM   11  H   UNL     1     -40.845  56.657 -52.546  1.00  0.00     0.163 HD
BRANCH   9  12
HETATM   12  C   UNL     1     -41.608  54.218 -52.651  1.00  0.00     0.043 A 
HETATM   13  C   UNL     1     -41.622  53.811 -51.299  1.00  0.00    -0.045 A 
HETATM   14  C   UNL     1     -40.821  52.724 -50.914  1.00  0.00     0.014 A 
HETATM   15  C   UNL     1     -42.444  54.507 -50.250  1.00  0.00     0.049 C 
HETATM   16  C   UNL     1     -40.050  52.025 -51.849  1.00  0.00    -0.061 A 
HETATM   17  C   UNL     1     -39.212  50.849 -51.435  1.00  0.00     0.048 C 
HETATM   18  C   UNL     1     -40.077  52.420 -53.191  1.00  0.00     0.014 A 
HETATM   19  C   UNL     1     -40.843  53.520 -53.607  1.00  0.00    -0.045 A 
HETATM   20  C   UNL     1     -40.843  53.905 -55.061  1.00  0.00     0.049 C 
ENDBRANCH   9  12
ENDBRANCH   1   8
BRANCH   4  21
HETATM   21  C   UNL     1     -43.575  60.765 -51.170  1.00  0.00     0.154 A 
HETATM   22  N   UNL     1     -44.702  60.554 -50.484  1.00  0.00    -0.155 NA
HETATM   23  N   UNL     1     -44.766  61.537 -49.580  1.00  0.00    -0.283 N 
HETATM   24  C   UNL     1     -45.886  61.604 -48.676  1.00  0.00     0.179 C 
HETATM   25  C   UNL     1     -43.709  62.389 -49.635  1.00  0.00     0.115 A 
HETATM   26  C   UNL     1     -42.918  61.921 -50.657  1.00  0.00     0.071 A 
ENDBRANCH   4  21
TORSDOF 3
ENDMDL
MODEL 8
REMARK VINA RESULT:      -7.3      2.491      3.964
REMARK  3 active torsions:
REMARK  status: ('A' for Active; 'I' for Inactive)
REMARK    1  A    between atoms: C_6  and  C_7 
REMARK       I    between atoms: C_7  and  N_8 
REMARK    2  A    between atoms: N_8  and  C_9 
REMARK    3  A    between atoms: N_12  and  C_13 
ROOT
HETATM    1  C   UNL     1     -42.884  56.415 -55.463  1.00  0.00     0.177 C 
HETATM    2  C   UNL     1     -42.347  57.815 -55.833  1.00  0.00     0.248 C 
HETATM    3  O   UNL     1     -41.607  58.402 -55.040  1.00  0.00    -0.271 OA
HETATM    4  N   UNL     1     -42.813  58.275 -57.082  1.00  0.00    -0.299 N 
HETATM    5  C   UNL     1     -43.598  57.348 -57.894  1.00  0.00     0.134 C 
HETATM    6  C   UNL     1     -42.927  55.982 -57.967  1.00  0.00     0.023 C 
HETATM    7  C   UNL     1     -42.614  55.415 -56.584  1.00  0.00     0.036 C 
ENDROOT
BRANCH   1   8
HETATM    8  N   UNL     1     -42.284  55.977 -54.213  1.00  0.00    -0.344 N 
HETATM    9  C   UNL     1     -42.855  55.012 -53.422  1.00  0.00     0.253 C 
HETATM   10  O   UNL     1     -43.856  54.377 -53.730  1.00  0.00    -0.268 OA
HETATM   11  H   UNL     1     -41.487  56.512 -53.879  1.00  0.00     0.163 HD
BRANCH   9  12
HETATM   12  C   UNL     1     -42.142  54.749 -52.145  1.00  0.00     0.043 A 
HETATM   13  C   UNL     1     -41.077  53.824 -52.097  1.00  0.00    -0.045 A 
HETATM   14  C   UNL     1     -40.459  53.569 -50.861  1.00  0.00     0.014 A 
HETATM   15  C   UNL     1     -40.588  53.083 -53.311  1.00  0.00     0.049 C 
HETATM   16  C   UNL     1     -40.856  54.242 -49.701  1.00  0.00    -0.061 A 
HETATM   17  C   UNL     1     -40.177  53.982 -48.387  1.00  0.00     0.048 C 
HETATM   18  C   UNL     1     -41.890  55.182 -49.775  1.00  0.00     0.014 A 
HETATM   19  C   UNL     1     -42.550  55.441 -50.986  1.00  0.00    -0.045 A 
HETATM   20  C   UNL     1     -43.653  56.462 -51.017  1.00  0.00     0.049 C 
ENDBRANCH   9  12
ENDBRANCH   1   8
BRANCH   4  21
HETATM   21  C   UNL     1     -42.598  59.607 -57.477  1.00  0.00     0.154 A 
HETATM   22  N   UNL     1     -41.406  60.110 -57.809  1.00  0.00    -0.155 NA
HETATM   23  N   UNL     1     -41.621  61.399 -58.087  1.00  0.00    -0.283 N 
HETATM   24  C   UNL     1     -40.516  62.240 -58.475  1.00  0.00     0.179 C 
HETATM   25  C   UNL     1     -42.923  61.768 -57.963  1.00  0.00     0.115 A 
HETATM   26  C   UNL     1     -43.586  60.631 -57.564  1.00  0.00     0.071 A 
ENDBRANCH   4  21
TORSDOF 3
ENDMDL
MODEL 9
REMARK VINA RESULT:      -7.3      2.497      3.659
REMARK  3 active torsions:
REMARK  status: ('A' for Active; 'I' for Inactive)
REMARK    1  A    between atoms: C_6  and  C_7 
REMARK       I    between atoms: C_7  and  N_8 
REMARK    2  A    between atoms: N_8  and  C_9 
REMARK    3  A    between atoms: N_12  and  C_13 
ROOT
HETATM    1  C   UNL     1     -42.927  56.435 -55.450  1.00  0.00     0.177 C 
HETATM    2  C   UNL     1     -42.375  57.838 -55.784  1.00  0.00     0.248 C 
HETATM    3  O   UNL     1     -41.654  58.409 -54.963  1.00  0.00    -0.271 OA
HETATM    4  N   UNL     1     -42.807  58.319 -57.037  1.00  0.00    -0.299 N 
HETATM    5  C   UNL     1     -43.575  57.408 -57.884  1.00  0.00     0.134 C 
HETATM    6  C   UNL     1     -42.907  56.040 -57.961  1.00  0.00     0.023 C 
HETATM    7  C   UNL     1     -42.631  55.451 -56.579  1.00  0.00     0.036 C 
ENDROOT
BRANCH   1   8
HETATM    8  N   UNL     1     -42.360  55.975 -54.192  1.00  0.00    -0.344 N 
HETATM    9  C   UNL     1     -42.939  54.978 -53.446  1.00  0.00     0.253 C 
HETATM   10  O   UNL     1     -43.916  54.334 -53.805  1.00  0.00    -0.268 OA
HETATM   11  H   UNL     1     -41.586  56.515 -53.817  1.00  0.00     0.163 HD
BRANCH   9  12
HETATM   12  C   UNL     1     -42.264  54.695 -52.152  1.00  0.00     0.043 A 
HETATM   13  C   UNL     1     -42.689  55.335 -50.969  1.00  0.00    -0.045 A 
HETATM   14  C   UNL     1     -41.996  55.074 -49.774  1.00  0.00     0.014 A 
HETATM   15  C   UNL     1     -43.841  56.301 -50.935  1.00  0.00     0.049 C 
HETATM   16  C   UNL     1     -40.929  54.170 -49.739  1.00  0.00    -0.061 A 
HETATM   17  C   UNL     1     -40.206  53.879 -48.456  1.00  0.00     0.048 C 
HETATM   18  C   UNL     1     -40.545  53.518 -50.916  1.00  0.00     0.014 A 
HETATM   19  C   UNL     1     -41.196  53.775 -52.133  1.00  0.00    -0.045 A 
HETATM   20  C   UNL     1     -40.750  53.047 -53.371  1.00  0.00     0.049 C 
ENDBRANCH   9  12
ENDBRANCH   1   8
BRANCH   4  21
HETATM   21  C   UNL     1     -42.578  59.656 -57.405  1.00  0.00     0.154 A 
HETATM   22  N   UNL     1     -41.402  60.128 -57.828  1.00  0.00    -0.155 NA
HETATM   23  N   UNL     1     -41.592  61.434 -58.043  1.00  0.00    -0.283 N 
HETATM   24  C   UNL     1     -40.495  62.249 -58.502  1.00  0.00     0.179 C 
HETATM   25  C   UNL     1     -42.862  61.844 -57.788  1.00  0.00     0.115 A 
HETATM   26  C   UNL     1     -43.530  60.717 -57.369  1.00  0.00     0.071 A 
ENDBRANCH   4  21
TORSDOF 3
ENDMDL
MODEL 10
REMARK VINA RESULT:      -7.3      3.386      4.071
REMARK  3 active torsions:
REMARK  status: ('A' for Active; 'I' for Inactive)
REMARK    1  A    between atoms: C_6  and  C_7 
REMARK       I    between atoms: C_7  and  N_8 
REMARK    2  A    between atoms: N_8  and  C_9 
REMARK    3  A    between atoms: N_12  and  C_13 
ROOT
HETATM    1  C   UNL     1     -41.189  57.531 -52.715  1.00  0.00     0.177 C 
HETATM    2  C   UNL     1     -42.370  58.001 -53.593  1.00  0.00     0.248 C 
HETATM    3  O   UNL     1     -42.806  57.245 -54.464  1.00  0.00    -0.271 OA
HETATM    4  N   UNL     1     -42.803  59.307 -53.286  1.00  0.00    -0.299 N 
HETATM    5  C   UNL     1     -42.197  59.967 -52.131  1.00  0.00     0.134 C 
HETATM    6  C   UNL     1     -42.174  59.040 -50.922  1.00  0.00     0.023 C 
HETATM    7  C   UNL     1     -41.513  57.698 -51.233  1.00  0.00     0.036 C 
ENDROOT
BRANCH   1   8
HETATM    8  N   UNL     1     -40.868  56.148 -53.029  1.00  0.00    -0.344 N 
HETATM    9  C   UNL     1     -41.564  55.093 -52.495  1.00  0.00     0.253 C 
HETATM   10  O   UNL     1     -42.558  55.214 -51.791  1.00  0.00    -0.268 OA
HETATM   11  H   UNL     1     -40.015  55.987 -53.558  1.00  0.00     0.163 HD
BRANCH   9  12
HETATM   12  C   UNL     1     -41.045  53.750 -52.867  1.00  0.00     0.043 A 
HETATM   13  C   UNL     1     -40.172  53.056 -52.002  1.00  0.00    -0.045 A 
HETATM   14  C   UNL     1     -39.668  51.810 -52.409  1.00  0.00     0.014 A 
HETATM   15  C   UNL     1     -39.742  53.605 -50.669  1.00  0.00     0.049 C 
HETATM   16  C   UNL     1     -40.047  51.240 -53.629  1.00  0.00    -0.061 A 
HETATM   17  C   UNL     1     -39.522  49.897 -54.050  1.00  0.00     0.048 C 
HETATM   18  C   UNL     1     -40.942  51.926 -54.457  1.00  0.00     0.014 A 
HETATM   19  C   UNL     1     -41.444  53.186 -54.096  1.00  0.00    -0.045 A 
HETATM   20  C   UNL     1     -42.406  53.885 -55.017  1.00  0.00     0.049 C 
ENDBRANCH   9  12
ENDBRANCH   1   8
BRANCH   4  21
HETATM   21  C   UNL     1     -43.718  59.970 -54.121  1.00  0.00     0.154 A 
HETATM   22  N   UNL     1     -43.407  60.495 -55.310  1.00  0.00    -0.155 NA
HETATM   23  N   UNL     1     -44.532  61.055 -55.765  1.00  0.00    -0.283 N 
HETATM   24  C   UNL     1     -44.529  61.727 -57.041  1.00  0.00     0.179 C 
HETATM   25  C   UNL     1     -45.587  60.909 -54.921  1.00  0.00     0.115 A 
HETATM   26  C   UNL     1     -45.095  60.213 -53.842  1.00  0.00     0.071 A 
ENDBRANCH   4  21
TORSDOF 3
ENDMDL
