MODEL 1
REMARK VINA RESULT:     -10.6      0.000      0.000
REMARK  5 active torsions:
REMARK  status: ('A' for Active; 'I' for Inactive)
REMARK    1  A    between atoms: C_5  and  C_6 
REMARK    2  A    between atoms: C_6  and  C_7 
REMARK       I    between atoms: C_7  and  N_8 
REMARK    3  A    between atoms: N_8  and  C_9 
REMARK    4  A    between atoms: N_10  and  C_11 
REMARK    5  A    between atoms: C_23  and  C_24 
ROOT
HETATM    1  C   UNL     1     -42.684  56.679 -56.661  1.00  0.00     0.152 C 
HETATM    2  N   UNL     1     -43.341  57.648 -55.907  1.00  0.00    -0.044 N 
HETATM    3  N   UNL     1     -44.488  58.074 -56.539  1.00  0.00    -0.148 NA
HETATM    4  C   UNL     1     -44.449  57.466 -57.730  1.00  0.00     0.115 C 
HETATM    5  C   UNL     1     -43.306  56.659 -57.888  1.00  0.00     0.087 C 
ENDROOT
BRANCH   1   6
HETATM    6  N   UNL     1     -41.616  55.892 -56.251  1.00  0.00    -0.311 N 
HETATM    7  C   UNL     1     -41.876  54.691 -55.600  1.00  0.00     0.227 C 
HETATM    8  O   UNL     1     -43.007  54.266 -55.352  1.00  0.00    -0.273 OA
HETATM    9  H   UNL     1     -40.781  55.913 -56.827  1.00  0.00     0.170 HD
BRANCH   7  10
HETATM   10  C   UNL     1     -40.649  53.884 -55.207  1.00  0.00     0.142 C 
BRANCH  10  11
HETATM   11  C   UNL     1     -40.532  53.528 -53.735  1.00  0.00    -0.038 A 
HETATM   12  C   UNL     1     -40.210  52.214 -53.288  1.00  0.00    -0.019 A 
HETATM   13  C   UNL     1     -40.070  51.985 -51.896  1.00  0.00    -0.025 A 
HETATM   14  C   UNL     1     -40.005  51.113 -54.154  1.00  0.00     0.013 A 
HETATM   15  C   UNL     1     -39.716  50.711 -51.423  1.00  0.00     0.012 A 
HETATM   16  C   UNL     1     -40.283  53.031 -50.988  1.00  0.00     0.012 A 
HETATM   17  C   UNL     1     -39.497  49.653 -52.304  1.00  0.00     0.001 A 
HETATM   18  C   UNL     1     -39.645  49.854 -53.668  1.00  0.00     0.001 A 
HETATM   19  C   UNL     1     -40.623  54.306 -51.434  1.00  0.00     0.001 A 
HETATM   20  C   UNL     1     -40.743  54.554 -52.796  1.00  0.00     0.008 A 
ENDBRANCH  10  11
ENDBRANCH   7  10
ENDBRANCH   1   6
BRANCH   2  21
HETATM   21  C   UNL     1     -42.948  58.297 -54.714  1.00  0.00     0.732 A 
HETATM   22  N   UNL     1     -41.870  58.030 -54.048  1.00  0.00    -0.067 NA
HETATM   23  C   UNL     1     -41.677  58.737 -52.882  1.00  0.00     0.065 A 
HETATM   24  C   UNL     1     -42.480  59.730 -52.457  1.00  0.00     0.036 A 
HETATM   25  C   UNL     1     -40.486  58.291 -52.063  1.00  0.00     0.060 C 
HETATM   26  C   UNL     1     -42.304  60.467 -51.164  1.00  0.00     0.046 C 
HETATM   27  C   UNL     1     -43.643  60.088 -53.302  1.00  0.00     0.268 A 
HETATM   28  C   UNL     1     -41.365  59.742 -50.198  1.00  0.00     0.005 C 
HETATM   29  C   UNL     1     -40.120  59.243 -50.922  1.00  0.00     0.006 C 
HETATM   30  O   UNL     1     -44.374  61.038 -53.046  1.00  0.00    -0.267 OA
HETATM   31  N   UNL     1     -43.838  59.282 -54.378  1.00  0.00    -0.152 N 
HETATM   32  H   UNL     1     -44.619  59.467 -54.998  1.00  0.00     0.188 HD
ENDBRANCH   2  21
BRANCH   4  33
HETATM   33  C   UNL     1     -45.535  57.606 -58.745  1.00  0.00     0.105 A 
HETATM   34  O   UNL     1     -46.181  58.779 -59.028  1.00  0.00    -0.320 OA
HETATM   35  C   UNL     1     -47.065  58.522 -60.026  1.00  0.00     0.142 A 
HETATM   36  C   UNL     1     -47.008  57.199 -60.391  1.00  0.00     0.027 A 
HETATM   37  C   UNL     1     -46.025  56.606 -59.562  1.00  0.00     0.041 A 
ENDBRANCH   4  33
TORSDOF 5
ENDMDL
MODEL 2
REMARK VINA RESULT:     -10.3      2.156      3.049
REMARK  5 active torsions:
REMARK  status: ('A' for Active; 'I' for Inactive)
REMARK    1  A    between atoms: C_5  and  C_6 
REMARK    2  A    between atoms: C_6  and  C_7 
REMARK       I    between atoms: C_7  and  N_8 
REMARK    3  A    between atoms: N_8  and  C_9 
REMARK    4  A    between atoms: N_10  and  C_11 
REMARK    5  A    between atoms: C_23  and  C_24 
ROOT
HETATM    1  C   UNL     1     -42.490  57.428 -56.473  1.00  0.00     0.152 C 
HETATM    2  N   UNL     1     -42.264  58.667 -55.879  1.00  0.00    -0.044 N 
HETATM    3  N   UNL     1     -42.124  59.653 -56.830  1.00  0.00    -0.148 NA
HETATM    4  C   UNL     1     -42.127  58.991 -57.992  1.00  0.00     0.115 C 
HETATM    5  C   UNL     1     -42.264  57.599 -57.819  1.00  0.00     0.087 C 
ENDROOT
BRANCH   1   6
HETATM    6  N   UNL     1     -42.869  56.258 -55.830  1.00  0.00    -0.311 N 
HETATM    7  C   UNL     1     -41.889  55.464 -55.245  1.00  0.00     0.227 C 
HETATM    8  O   UNL     1     -40.684  55.725 -55.260  1.00  0.00    -0.273 OA
HETATM    9  H   UNL     1     -43.774  56.259 -55.368  1.00  0.00     0.170 HD
BRANCH   7  10
HETATM   10  C   UNL     1     -42.396  54.214 -54.543  1.00  0.00     0.142 C 
BRANCH  10  11
HETATM   11  C   UNL     1     -41.410  53.528 -53.613  1.00  0.00    -0.038 A 
HETATM   12  C   UNL     1     -41.081  54.047 -52.328  1.00  0.00    -0.019 A 
HETATM   13  C   UNL     1     -40.190  53.311 -51.506  1.00  0.00    -0.025 A 
HETATM   14  C   UNL     1     -41.601  55.256 -51.807  1.00  0.00     0.013 A 
HETATM   15  C   UNL     1     -39.874  53.775 -50.218  1.00  0.00     0.012 A 
HETATM   16  C   UNL     1     -39.626  52.118 -51.976  1.00  0.00     0.012 A 
HETATM   17  C   UNL     1     -40.422  54.958 -49.726  1.00  0.00     0.001 A 
HETATM   18  C   UNL     1     -41.283  55.699 -50.521  1.00  0.00     0.001 A 
HETATM   19  C   UNL     1     -39.934  51.633 -53.244  1.00  0.00     0.001 A 
HETATM   20  C   UNL     1     -40.822  52.329 -54.055  1.00  0.00     0.008 A 
ENDBRANCH  10  11
ENDBRANCH   7  10
ENDBRANCH   1   6
BRANCH   2  21
HETATM   21  C   UNL     1     -42.052  59.004 -54.523  1.00  0.00     0.732 A 
HETATM   22  N   UNL     1     -40.918  58.903 -53.906  1.00  0.00    -0.067 NA
HETATM   23  C   UNL     1     -40.915  59.235 -52.569  1.00  0.00     0.065 A 
HETATM   24  C   UNL     1     -41.976  59.736 -51.910  1.00  0.00     0.036 A 
HETATM   25  C   UNL     1     -39.610  58.964 -51.854  1.00  0.00     0.060 C 
HETATM   26  C   UNL     1     -41.993  60.050 -50.445  1.00  0.00     0.046 C 
HETATM   27  C   UNL     1     -43.228  59.946 -52.675  1.00  0.00     0.268 A 
HETATM   28  C   UNL     1     -40.830  59.401 -49.693  1.00  0.00     0.005 C 
HETATM   29  C   UNL     1     -39.523  59.578 -50.455  1.00  0.00     0.006 C 
HETATM   30  O   UNL     1     -44.215  60.482 -52.185  1.00  0.00    -0.267 OA
HETATM   31  N   UNL     1     -43.197  59.497 -53.957  1.00  0.00    -0.152 N 
HETATM   32  H   UNL     1     -44.022  59.604 -54.537  1.00  0.00     0.188 HD
ENDBRANCH   2  21
BRANCH   4  33
HETATM   33  C   UNL     1     -42.043  59.676 -59.315  1.00  0.00     0.105 A 
HETATM   34  O   UNL     1     -41.680  60.985 -59.485  1.00  0.00    -0.320 OA
HETATM   35  C   UNL     1     -41.677  61.233 -60.820  1.00  0.00     0.142 A 
HETATM   36  C   UNL     1     -42.041  60.108 -61.520  1.00  0.00     0.027 A 
HETATM   37  C   UNL     1     -42.282  59.104 -60.550  1.00  0.00     0.041 A 
ENDBRANCH   4  33
TORSDOF 5
ENDMDL
MODEL 3
REMARK VINA RESULT:     -10.0      1.860      5.706
REMARK  5 active torsions:
REMARK  status: ('A' for Active; 'I' for Inactive)
REMARK    1  A    between atoms: C_5  and  C_6 
REMARK    2  A    between atoms: C_6  and  C_7 
REMARK       I    between atoms: C_7  and  N_8 
REMARK    3  A    between atoms: N_8  and  C_9 
REMARK    4  A    between atoms: N_10  and  C_11 
REMARK    5  A    between atoms: C_23  and  C_24 
ROOT
HETATM    1  C   UNL     1     -43.492  56.872 -53.122  1.00  0.00     0.152 C 
HETATM    2  N   UNL     1     -43.992  57.821 -54.011  1.00  0.00    -0.044 N 
HETATM    3  N   UNL     1     -44.414  58.949 -53.345  1.00  0.00    -0.148 NA
HETATM    4  C   UNL     1     -44.298  58.628 -52.051  1.00  0.00     0.115 C 
HETATM    5  C   UNL     1     -43.813  57.319 -51.862  1.00  0.00     0.087 C 
ENDROOT
BRANCH   1   6
HETATM    6  N   UNL     1     -42.807  55.710 -53.450  1.00  0.00    -0.311 N 
HETATM    7  C   UNL     1     -41.437  55.778 -53.679  1.00  0.00     0.227 C 
HETATM    8  O   UNL     1     -40.774  56.816 -53.617  1.00  0.00    -0.273 OA
HETATM    9  H   UNL     1     -43.146  54.845 -53.040  1.00  0.00     0.170 HD
BRANCH   7  10
HETATM   10  C   UNL     1     -40.765  54.455 -54.010  1.00  0.00     0.142 C 
BRANCH  10  11
HETATM   11  C   UNL     1     -40.521  53.522 -52.836  1.00  0.00    -0.038 A 
HETATM   12  C   UNL     1     -40.208  52.143 -53.006  1.00  0.00    -0.019 A 
HETATM   13  C   UNL     1     -39.944  51.359 -51.854  1.00  0.00    -0.025 A 
HETATM   14  C   UNL     1     -40.129  51.500 -54.264  1.00  0.00     0.013 A 
HETATM   15  C   UNL     1     -39.594  50.005 -51.987  1.00  0.00     0.012 A 
HETATM   16  C   UNL     1     -40.029  51.936 -50.579  1.00  0.00     0.012 A 
HETATM   17  C   UNL     1     -39.502  49.408 -53.243  1.00  0.00     0.001 A 
HETATM   18  C   UNL     1     -39.772  50.154 -54.380  1.00  0.00     0.001 A 
HETATM   19  C   UNL     1     -40.362  53.279 -50.423  1.00  0.00     0.001 A 
HETATM   20  C   UNL     1     -40.602  54.067 -51.541  1.00  0.00     0.008 A 
ENDBRANCH  10  11
ENDBRANCH   7  10
ENDBRANCH   1   6
BRANCH   2  21
HETATM   21  C   UNL     1     -44.220  57.736 -55.404  1.00  0.00     0.732 A 
HETATM   22  N   UNL     1     -43.569  56.962 -56.213  1.00  0.00    -0.067 NA
HETATM   23  C   UNL     1     -43.902  57.050 -57.547  1.00  0.00     0.065 A 
HETATM   24  C   UNL     1     -44.905  57.806 -58.029  1.00  0.00     0.036 A 
HETATM   25  C   UNL     1     -43.019  56.241 -58.472  1.00  0.00     0.060 C 
HETATM   26  C   UNL     1     -45.237  57.945 -59.484  1.00  0.00     0.046 C 
HETATM   27  C   UNL     1     -45.705  58.593 -57.061  1.00  0.00     0.268 A 
HETATM   28  C   UNL     1     -44.108  57.456 -60.393  1.00  0.00     0.005 C 
HETATM   29  C   UNL     1     -43.552  56.126 -59.902  1.00  0.00     0.006 C 
HETATM   30  O   UNL     1     -46.693  59.235 -57.394  1.00  0.00    -0.267 OA
HETATM   31  N   UNL     1     -45.257  58.548 -55.779  1.00  0.00    -0.152 N 
HETATM   32  H   UNL     1     -45.754  59.067 -55.064  1.00  0.00     0.188 HD
ENDBRANCH   2  21
BRANCH   4  33
HETATM   33  C   UNL     1     -44.608  59.585 -50.949  1.00  0.00     0.105 A 
HETATM   34  O   UNL     1     -45.740  59.539 -50.181  1.00  0.00    -0.320 OA
HETATM   35  C   UNL     1     -45.646  60.536 -49.264  1.00  0.00     0.142 A 
HETATM   36  C   UNL     1     -44.474  61.234 -49.429  1.00  0.00     0.027 A 
HETATM   37  C   UNL     1     -43.806  60.625 -50.518  1.00  0.00     0.041 A 
ENDBRANCH   4  33
TORSDOF 5
ENDMDL
MODEL 4
REMARK VINA RESULT:      -9.7      2.152      2.449
REMARK  5 active torsions:
REMARK  status: ('A' for Active; 'I' for Inactive)
REMARK    1  A    between atoms: C_5  and  C_6 
REMARK    2  A    between atoms: C_6  and  C_7 
REMARK       I    between atoms: C_7  and  N_8 
REMARK    3  A    between atoms: N_8  and  C_9 
REMARK    4  A    between atoms: N_10  and  C_11 
REMARK    5  A    between atoms: C_23  and  C_24 
ROOT
HETATM    1  C   UNL     1     -42.142  57.752 -56.865  1.00  0.00     0.152 C 
HETATM    2  N   UNL     1     -42.271  58.980 -56.221  1.00  0.00    -0.044 N 
HETATM    3  N   UNL     1     -42.502  59.992 -57.127  1.00  0.00    -0.148 NA
HETATM    4  C   UNL     1     -42.376  59.398 -58.319  1.00  0.00     0.115 C 
HETATM    5  C   UNL     1     -42.066  58.028 -58.210  1.00  0.00     0.087 C 
ENDROOT
BRANCH   1   6
HETATM    6  N   UNL     1     -42.101  56.502 -56.263  1.00  0.00    -0.311 N 
HETATM    7  C   UNL     1     -43.224  56.046 -55.580  1.00  0.00     0.227 C 
HETATM    8  O   UNL     1     -44.272  56.685 -55.463  1.00  0.00    -0.273 OA
HETATM    9  H   UNL     1     -41.540  55.789 -56.719  1.00  0.00     0.170 HD
BRANCH   7  10
HETATM   10  C   UNL     1     -43.098  54.658 -54.972  1.00  0.00     0.142 C 
BRANCH  10  11
HETATM   11  C   UNL     1     -42.345  54.576 -53.655  1.00  0.00    -0.038 A 
HETATM   12  C   UNL     1     -41.423  53.530 -53.363  1.00  0.00    -0.019 A 
HETATM   13  C   UNL     1     -40.726  53.563 -52.129  1.00  0.00    -0.025 A 
HETATM   14  C   UNL     1     -41.145  52.455 -54.241  1.00  0.00     0.013 A 
HETATM   15  C   UNL     1     -39.782  52.568 -51.826  1.00  0.00     0.012 A 
HETATM   16  C   UNL     1     -40.977  54.591 -51.210  1.00  0.00     0.012 A 
HETATM   17  C   UNL     1     -39.513  51.536 -52.723  1.00  0.00     0.001 A 
HETATM   18  C   UNL     1     -40.196  51.478 -53.928  1.00  0.00     0.001 A 
HETATM   19  C   UNL     1     -41.900  55.594 -51.493  1.00  0.00     0.001 A 
HETATM   20  C   UNL     1     -42.576  55.590 -52.707  1.00  0.00     0.008 A 
ENDBRANCH  10  11
ENDBRANCH   7  10
ENDBRANCH   1   6
BRANCH   2  21
HETATM   21  C   UNL     1     -42.087  59.322 -54.862  1.00  0.00     0.732 A 
HETATM   22  N   UNL     1     -41.075  58.960 -54.140  1.00  0.00    -0.067 NA
HETATM   23  C   UNL     1     -41.091  59.351 -52.819  1.00  0.00     0.065 A 
HETATM   24  C   UNL     1     -42.030  60.148 -52.277  1.00  0.00     0.036 A 
HETATM   25  C   UNL     1     -39.968  58.784 -51.979  1.00  0.00     0.060 C 
HETATM   26  C   UNL     1     -42.080  60.535 -50.829  1.00  0.00     0.046 C 
HETATM   27  C   UNL     1     -43.113  60.639 -53.160  1.00  0.00     0.268 A 
HETATM   28  C   UNL     1     -41.197  59.644 -49.954  1.00  0.00     0.005 C 
HETATM   29  C   UNL     1     -39.833  59.429 -50.598  1.00  0.00     0.006 C 
HETATM   30  O   UNL     1     -43.957  61.442 -52.780  1.00  0.00    -0.267 OA
HETATM   31  N   UNL     1     -43.101  60.129 -54.419  1.00  0.00    -0.152 N 
HETATM   32  H   UNL     1     -43.817  60.418 -55.076  1.00  0.00     0.188 HD
ENDBRANCH   2  21
BRANCH   4  33
HETATM   33  C   UNL     1     -42.591  60.119 -59.608  1.00  0.00     0.105 A 
HETATM   34  O   UNL     1     -43.646  59.896 -60.451  1.00  0.00    -0.320 OA
HETATM   35  C   UNL     1     -43.524  60.764 -61.488  1.00  0.00     0.142 A 
HETATM   36  C   UNL     1     -42.401  61.541 -61.337  1.00  0.00     0.027 A 
HETATM   37  C   UNL     1     -41.796  61.123 -60.127  1.00  0.00     0.041 A 
ENDBRANCH   4  33
TORSDOF 5
ENDMDL
MODEL 5
REMARK VINA RESULT:      -9.7      2.209      2.679
REMARK  5 active torsions:
REMARK  status: ('A' for Active; 'I' for Inactive)
REMARK    1  A    between atoms: C_5  and  C_6 
REMARK    2  A    between atoms: C_6  and  C_7 
REMARK       I    between atoms: C_7  and  N_8 
REMARK    3  A    between atoms: N_8  and  C_9 
REMARK    4  A    between atoms: N_10  and  C_11 
REMARK    5  A    between atoms: C_23  and  C_24 
ROOT
HETATM    1  C   UNL     1     -43.230  57.401 -56.805  1.00  0.00     0.152 C 
HETATM    2  N   UNL     1     -43.047  58.662 -56.241  1.00  0.00    -0.044 N 
HETATM    3  N   UNL     1     -42.941  59.629 -57.216  1.00  0.00    -0.148 NA
HETATM    4  C   UNL     1     -42.923  58.939 -58.362  1.00  0.00     0.115 C 
HETATM    5  C   UNL     1     -43.012  57.548 -58.155  1.00  0.00     0.087 C 
ENDROOT
BRANCH   1   6
HETATM    6  N   UNL     1     -43.568  56.235 -56.133  1.00  0.00    -0.311 N 
HETATM    7  C   UNL     1     -42.577  55.543 -55.446  1.00  0.00     0.227 C 
HETATM    8  O   UNL     1     -41.396  55.893 -55.392  1.00  0.00    -0.273 OA
HETATM    9  H   UNL     1     -44.501  56.187 -55.734  1.00  0.00     0.170 HD
BRANCH   7  10
HETATM   10  C   UNL     1     -43.041  54.290 -54.720  1.00  0.00     0.142 C 
BRANCH  10  11
HETATM   11  C   UNL     1     -42.415  54.040 -53.359  1.00  0.00    -0.038 A 
HETATM   12  C   UNL     1     -41.368  53.095 -53.158  1.00  0.00    -0.019 A 
HETATM   13  C   UNL     1     -40.808  52.967 -51.862  1.00  0.00    -0.025 A 
HETATM   14  C   UNL     1     -40.836  52.276 -54.183  1.00  0.00     0.013 A 
HETATM   15  C   UNL     1     -39.748  52.072 -51.638  1.00  0.00     0.012 A 
HETATM   16  C   UNL     1     -41.309  53.735 -50.803  1.00  0.00     0.012 A 
HETATM   17  C   UNL     1     -39.231  51.297 -52.674  1.00  0.00     0.001 A 
HETATM   18  C   UNL     1     -39.777  51.398 -53.946  1.00  0.00     0.001 A 
HETATM   19  C   UNL     1     -42.350  54.637 -51.003  1.00  0.00     0.001 A 
HETATM   20  C   UNL     1     -42.897  54.792 -52.271  1.00  0.00     0.008 A 
ENDBRANCH  10  11
ENDBRANCH   7  10
ENDBRANCH   1   6
BRANCH   2  21
HETATM   21  C   UNL     1     -42.845  59.038 -54.894  1.00  0.00     0.732 A 
HETATM   22  N   UNL     1     -43.792  59.333 -54.060  1.00  0.00    -0.067 NA
HETATM   23  C   UNL     1     -43.399  59.723 -52.799  1.00  0.00     0.065 A 
HETATM   24  C   UNL     1     -42.124  59.723 -52.368  1.00  0.00     0.036 A 
HETATM   25  C   UNL     1     -44.524  60.198 -51.906  1.00  0.00     0.060 C 
HETATM   26  C   UNL     1     -41.686  60.194 -51.015  1.00  0.00     0.046 C 
HETATM   27  C   UNL     1     -41.076  59.271 -53.313  1.00  0.00     0.268 A 
HETATM   28  C   UNL     1     -42.759  61.025 -50.308  1.00  0.00     0.005 C 
HETATM   29  C   UNL     1     -44.128  60.369 -50.438  1.00  0.00     0.006 C 
HETATM   30  O   UNL     1     -39.902  59.148 -52.983  1.00  0.00    -0.267 OA
HETATM   31  N   UNL     1     -41.515  59.006 -54.571  1.00  0.00    -0.152 N 
HETATM   32  H   UNL     1     -40.850  58.696 -55.271  1.00  0.00     0.188 HD
ENDBRANCH   2  21
BRANCH   4  33
HETATM   33  C   UNL     1     -42.863  59.595 -59.701  1.00  0.00     0.105 A 
HETATM   34  O   UNL     1     -41.745  60.187 -60.222  1.00  0.00    -0.320 OA
HETATM   35  C   UNL     1     -42.064  60.630 -61.465  1.00  0.00     0.142 A 
HETATM   36  C   UNL     1     -43.376  60.342 -61.757  1.00  0.00     0.027 A 
HETATM   37  C   UNL     1     -43.893  59.678 -60.618  1.00  0.00     0.041 A 
ENDBRANCH   4  33
TORSDOF 5
ENDMDL
MODEL 6
REMARK VINA RESULT:      -9.6      2.319      6.008
REMARK  5 active torsions:
REMARK  status: ('A' for Active; 'I' for Inactive)
REMARK    1  A    between atoms: C_5  and  C_6 
REMARK    2  A    between atoms: C_6  and  C_7 
REMARK       I    between atoms: C_7  and  N_8 
REMARK    3  A    between atoms: N_8  and  C_9 
REMARK    4  A    between atoms: N_10  and  C_11 
REMARK    5  A    between atoms: C_23  and  C_24 
ROOT
HETATM    1  C   UNL     1     -43.303  58.843 -52.982  1.00  0.00     0.152 C 
HETATM    2  N   UNL     1     -42.858  59.516 -54.117  1.00  0.00    -0.044 N 
HETATM    3  N   UNL     1     -42.667  60.855 -53.855  1.00  0.00    -0.148 NA
HETATM    4  C   UNL     1     -43.126  61.013 -52.608  1.00  0.00     0.115 C 
HETATM    5  C   UNL     1     -43.611  59.811 -52.056  1.00  0.00     0.087 C 
ENDROOT
BRANCH   1   6
HETATM    6  N   UNL     1     -43.409  57.468 -52.824  1.00  0.00    -0.311 N 
HETATM    7  C   UNL     1     -42.344  56.770 -52.265  1.00  0.00     0.227 C 
HETATM    8  O   UNL     1     -41.289  57.292 -51.897  1.00  0.00    -0.273 OA
HETATM    9  H   UNL     1     -44.334  57.097 -52.628  1.00  0.00     0.170 HD
BRANCH   7  10
HETATM   10  C   UNL     1     -42.556  55.272 -52.108  1.00  0.00     0.142 C 
BRANCH  10  11
HETATM   11  C   UNL     1     -41.651  54.383 -52.942  1.00  0.00    -0.038 A 
HETATM   12  C   UNL     1     -40.931  53.287 -52.386  1.00  0.00    -0.019 A 
HETATM   13  C   UNL     1     -40.151  52.477 -53.250  1.00  0.00    -0.025 A 
HETATM   14  C   UNL     1     -40.954  52.941 -51.013  1.00  0.00     0.013 A 
HETATM   15  C   UNL     1     -39.459  51.366 -52.741  1.00  0.00     0.012 A 
HETATM   16  C   UNL     1     -40.072  52.784 -54.615  1.00  0.00     0.012 A 
HETATM   17  C   UNL     1     -39.522  51.039 -51.388  1.00  0.00     0.001 A 
HETATM   18  C   UNL     1     -40.267  51.828 -50.524  1.00  0.00     0.001 A 
HETATM   19  C   UNL     1     -40.758  53.873 -55.145  1.00  0.00     0.001 A 
HETATM   20  C   UNL     1     -41.545  54.664 -54.316  1.00  0.00     0.008 A 
ENDBRANCH  10  11
ENDBRANCH   7  10
ENDBRANCH   1   6
BRANCH   2  21
HETATM   21  C   UNL     1     -42.703  59.062 -55.447  1.00  0.00     0.732 A 
HETATM   22  N   UNL     1     -43.102  57.909 -55.884  1.00  0.00    -0.067 NA
HETATM   23  C   UNL     1     -42.822  57.623 -57.202  1.00  0.00     0.065 A 
HETATM   24  C   UNL     1     -42.257  58.489 -58.062  1.00  0.00     0.036 A 
HETATM   25  C   UNL     1     -43.171  56.214 -57.629  1.00  0.00     0.060 C 
HETATM   26  C   UNL     1     -41.904  58.165 -59.482  1.00  0.00     0.046 C 
HETATM   27  C   UNL     1     -41.917  59.841 -57.558  1.00  0.00     0.268 A 
HETATM   28  C   UNL     1     -41.892  56.660 -59.755  1.00  0.00     0.005 C 
HETATM   29  C   UNL     1     -43.114  55.987 -59.142  1.00  0.00     0.006 C 
HETATM   30  O   UNL     1     -41.487  60.726 -58.289  1.00  0.00    -0.267 OA
HETATM   31  N   UNL     1     -42.116  60.022 -56.227  1.00  0.00    -0.152 N 
HETATM   32  H   UNL     1     -41.900  60.922 -55.813  1.00  0.00     0.188 HD
ENDBRANCH   2  21
BRANCH   4  33
HETATM   33  C   UNL     1     -43.074  62.318 -51.886  1.00  0.00     0.105 A 
HETATM   34  O   UNL     1     -43.249  63.538 -52.482  1.00  0.00    -0.320 OA
HETATM   35  C   UNL     1     -43.175  64.478 -51.505  1.00  0.00     0.142 A 
HETATM   36  C   UNL     1     -42.947  63.889 -50.285  1.00  0.00     0.027 A 
HETATM   37  C   UNL     1     -42.876  62.496 -50.531  1.00  0.00     0.041 A 
ENDBRANCH   4  33
TORSDOF 5
ENDMDL
MODEL 7
REMARK VINA RESULT:      -9.5      2.119      7.602
REMARK  5 active torsions:
REMARK  status: ('A' for Active; 'I' for Inactive)
REMARK    1  A    between atoms: C_5  and  C_6 
REMARK    2  A    between atoms: C_6  and  C_7 
REMARK       I    between atoms: C_7  and  N_8 
REMARK    3  A    between atoms: N_8  and  C_9 
REMARK    4  A    between atoms: N_10  and  C_11 
REMARK    5  A    between atoms: C_23  and  C_24 
ROOT
HETATM    1  C   UNL     1     -41.156  54.851 -54.624  1.00  0.00     0.152 C 
HETATM    2  N   UNL     1     -41.276  55.207 -53.283  1.00  0.00    -0.044 N 
HETATM    3  N   UNL     1     -40.855  54.186 -52.460  1.00  0.00    -0.148 NA
HETATM    4  C   UNL     1     -40.613  53.171 -53.297  1.00  0.00     0.115 C 
HETATM    5  C   UNL     1     -40.868  53.506 -54.641  1.00  0.00     0.087 C 
ENDROOT
BRANCH   1   6
HETATM    6  N   UNL     1     -41.297  55.691 -55.720  1.00  0.00    -0.311 N 
HETATM    7  C   UNL     1     -42.559  55.860 -56.280  1.00  0.00     0.227 C 
HETATM    8  O   UNL     1     -43.580  55.304 -55.870  1.00  0.00    -0.273 OA
HETATM    9  H   UNL     1     -40.681  56.496 -55.766  1.00  0.00     0.170 HD
BRANCH   7  10
HETATM   10  C   UNL     1     -42.625  56.814 -57.462  1.00  0.00     0.142 C 
BRANCH  10  11
HETATM   11  C   UNL     1     -44.006  57.342 -57.813  1.00  0.00    -0.038 A 
HETATM   12  C   UNL     1     -44.761  56.839 -58.911  1.00  0.00    -0.019 A 
HETATM   13  C   UNL     1     -46.064  57.354 -59.133  1.00  0.00    -0.025 A 
HETATM   14  C   UNL     1     -44.297  55.837 -59.797  1.00  0.00     0.013 A 
HETATM   15  C   UNL     1     -46.851  56.853 -60.183  1.00  0.00     0.012 A 
HETATM   16  C   UNL     1     -46.569  58.363 -58.302  1.00  0.00     0.012 A 
HETATM   17  C   UNL     1     -46.373  55.849 -61.023  1.00  0.00     0.001 A 
HETATM   18  C   UNL     1     -45.095  55.343 -60.832  1.00  0.00     0.001 A 
HETATM   19  C   UNL     1     -45.812  58.867 -57.247  1.00  0.00     0.001 A 
HETATM   20  C   UNL     1     -44.542  58.358 -57.002  1.00  0.00     0.008 A 
ENDBRANCH  10  11
ENDBRANCH   7  10
ENDBRANCH   1   6
BRANCH   2  21
HETATM   21  C   UNL     1     -41.849  56.356 -52.692  1.00  0.00     0.732 A 
HETATM   22  N   UNL     1     -43.065  56.431 -52.250  1.00  0.00    -0.067 NA
HETATM   23  C   UNL     1     -43.461  57.650 -51.748  1.00  0.00     0.065 A 
HETATM   24  C   UNL     1     -42.647  58.713 -51.607  1.00  0.00     0.036 A 
HETATM   25  C   UNL     1     -44.926  57.736 -51.381  1.00  0.00     0.060 C 
HETATM   26  C   UNL     1     -43.086  60.057 -51.109  1.00  0.00     0.046 C 
HETATM   27  C   UNL     1     -41.231  58.558 -52.017  1.00  0.00     0.268 A 
HETATM   28  C   UNL     1     -44.606  60.224 -51.134  1.00  0.00     0.005 C 
HETATM   29  C   UNL     1     -45.298  58.986 -50.579  1.00  0.00     0.006 C 
HETATM   30  O   UNL     1     -40.396  59.437 -51.840  1.00  0.00    -0.267 OA
HETATM   31  N   UNL     1     -40.933  57.370 -52.605  1.00  0.00    -0.152 N 
HETATM   32  H   UNL     1     -39.983  57.198 -52.914  1.00  0.00     0.188 HD
ENDBRANCH   2  21
BRANCH   4  33
HETATM   33  C   UNL     1     -40.085  51.853 -52.837  1.00  0.00     0.105 A 
HETATM   34  O   UNL     1     -39.791  51.550 -51.535  1.00  0.00    -0.320 OA
HETATM   35  C   UNL     1     -39.380  50.255 -51.505  1.00  0.00     0.142 A 
HETATM   36  C   UNL     1     -39.395  49.715 -52.768  1.00  0.00     0.027 A 
HETATM   37  C   UNL     1     -39.845  50.746 -53.629  1.00  0.00     0.041 A 
ENDBRANCH   4  33
TORSDOF 5
ENDMDL
MODEL 8
REMARK VINA RESULT:      -9.5      2.077      7.824
REMARK  5 active torsions:
REMARK  status: ('A' for Active; 'I' for Inactive)
REMARK    1  A    between atoms: C_5  and  C_6 
REMARK    2  A    between atoms: C_6  and  C_7 
REMARK       I    between atoms: C_7  and  N_8 
REMARK    3  A    between atoms: N_8  and  C_9 
REMARK    4  A    between atoms: N_10  and  C_11 
REMARK    5  A    between atoms: C_23  and  C_24 
ROOT
HETATM    1  C   UNL     1     -41.181  54.820 -54.707  1.00  0.00     0.152 C 
HETATM    2  N   UNL     1     -41.271  55.204 -53.371  1.00  0.00    -0.044 N 
HETATM    3  N   UNL     1     -40.846  54.195 -52.536  1.00  0.00    -0.148 NA
HETATM    4  C   UNL     1     -40.631  53.160 -53.357  1.00  0.00     0.115 C 
HETATM    5  C   UNL     1     -40.908  53.471 -54.702  1.00  0.00     0.087 C 
ENDROOT
BRANCH   1   6
HETATM    6  N   UNL     1     -41.334  55.639 -55.817  1.00  0.00    -0.311 N 
HETATM    7  C   UNL     1     -42.618  55.976 -56.232  1.00  0.00     0.227 C 
HETATM    8  O   UNL     1     -43.650  55.589 -55.680  1.00  0.00    -0.273 OA
HETATM    9  H   UNL     1     -40.619  56.343 -55.972  1.00  0.00     0.170 HD
BRANCH   7  10
HETATM   10  C   UNL     1     -42.691  56.895 -57.442  1.00  0.00     0.142 C 
BRANCH  10  11
HETATM   11  C   UNL     1     -43.730  56.533 -58.489  1.00  0.00    -0.038 A 
HETATM   12  C   UNL     1     -44.904  57.311 -58.705  1.00  0.00    -0.019 A 
HETATM   13  C   UNL     1     -45.792  56.927 -59.741  1.00  0.00    -0.025 A 
HETATM   14  C   UNL     1     -45.238  58.463 -57.952  1.00  0.00     0.013 A 
HETATM   15  C   UNL     1     -46.939  57.694 -60.006  1.00  0.00     0.012 A 
HETATM   16  C   UNL     1     -45.526  55.783 -60.504  1.00  0.00     0.012 A 
HETATM   17  C   UNL     1     -47.227  58.837 -59.262  1.00  0.00     0.001 A 
HETATM   18  C   UNL     1     -46.378  59.219 -58.234  1.00  0.00     0.001 A 
HETATM   19  C   UNL     1     -44.390  55.014 -60.268  1.00  0.00     0.001 A 
HETATM   20  C   UNL     1     -43.497  55.387 -59.272  1.00  0.00     0.008 A 
ENDBRANCH  10  11
ENDBRANCH   7  10
ENDBRANCH   1   6
BRANCH   2  21
HETATM   21  C   UNL     1     -41.820  56.371 -52.793  1.00  0.00     0.732 A 
HETATM   22  N   UNL     1     -43.024  56.467 -52.324  1.00  0.00    -0.067 NA
HETATM   23  C   UNL     1     -43.398  57.701 -51.840  1.00  0.00     0.065 A 
HETATM   24  C   UNL     1     -42.571  58.759 -51.743  1.00  0.00     0.036 A 
HETATM   25  C   UNL     1     -44.853  57.808 -51.441  1.00  0.00     0.060 C 
HETATM   26  C   UNL     1     -42.986  60.117 -51.265  1.00  0.00     0.046 C 
HETATM   27  C   UNL     1     -41.167  58.581 -52.182  1.00  0.00     0.268 A 
HETATM   28  C   UNL     1     -44.505  60.298 -51.258  1.00  0.00     0.005 C 
HETATM   29  C   UNL     1     -45.195  59.078 -50.659  1.00  0.00     0.006 C 
HETATM   30  O   UNL     1     -40.321  59.456 -52.045  1.00  0.00    -0.267 OA
HETATM   31  N   UNL     1     -40.893  57.378 -52.750  1.00  0.00    -0.152 N 
HETATM   32  H   UNL     1     -39.952  57.190 -53.078  1.00  0.00     0.188 HD
ENDBRANCH   2  21
BRANCH   4  33
HETATM   33  C   UNL     1     -40.109  51.845 -52.881  1.00  0.00     0.105 A 
HETATM   34  O   UNL     1     -39.803  51.562 -51.577  1.00  0.00    -0.320 OA
HETATM   35  C   UNL     1     -39.403  50.265 -51.530  1.00  0.00     0.142 A 
HETATM   36  C   UNL     1     -39.437  49.704 -52.783  1.00  0.00     0.027 A 
HETATM   37  C   UNL     1     -39.888  50.724 -53.656  1.00  0.00     0.041 A 
ENDBRANCH   4  33
TORSDOF 5
ENDMDL
MODEL 9
REMARK VINA RESULT:      -9.5      1.364      2.799
REMARK  5 active torsions:
REMARK  status: ('A' for Active; 'I' for Inactive)
REMARK    1  A    between atoms: C_5  and  C_6 
REMARK    2  A    between atoms: C_6  and  C_7 
REMARK       I    between atoms: C_7  and  N_8 
REMARK    3  A    between atoms: N_8  and  C_9 
REMARK    4  A    between atoms: N_10  and  C_11 
REMARK    5  A    between atoms: C_23  and  C_24 
ROOT
HETATM    1  C   UNL     1     -42.855  56.669 -56.894  1.00  0.00     0.152 C 
HETATM    2  N   UNL     1     -43.728  57.489 -56.183  1.00  0.00    -0.044 N 
HETATM    3  N   UNL     1     -44.885  57.715 -56.893  1.00  0.00    -0.148 NA
HETATM    4  C   UNL     1     -44.655  57.148 -58.083  1.00  0.00     0.115 C 
HETATM    5  C   UNL     1     -43.377  56.562 -58.163  1.00  0.00     0.087 C 
ENDROOT
BRANCH   1   6
HETATM    6  N   UNL     1     -41.695  56.079 -56.413  1.00  0.00    -0.311 N 
HETATM    7  C   UNL     1     -41.787  54.869 -55.734  1.00  0.00     0.227 C 
HETATM    8  O   UNL     1     -42.844  54.273 -55.518  1.00  0.00    -0.273 OA
HETATM    9  H   UNL     1     -40.848  56.220 -56.955  1.00  0.00     0.170 HD
BRANCH   7  10
HETATM   10  C   UNL     1     -40.464  54.285 -55.262  1.00  0.00     0.142 C 
BRANCH  10  11
HETATM   11  C   UNL     1     -40.461  53.690 -53.864  1.00  0.00    -0.038 A 
HETATM   12  C   UNL     1     -40.850  54.435 -52.714  1.00  0.00    -0.019 A 
HETATM   13  C   UNL     1     -40.868  53.782 -51.456  1.00  0.00    -0.025 A 
HETATM   14  C   UNL     1     -41.238  55.796 -52.748  1.00  0.00     0.013 A 
HETATM   15  C   UNL     1     -41.283  54.476 -50.307  1.00  0.00     0.012 A 
HETATM   16  C   UNL     1     -40.473  52.441 -51.356  1.00  0.00     0.012 A 
HETATM   17  C   UNL     1     -41.682  55.810 -50.379  1.00  0.00     0.001 A 
HETATM   18  C   UNL     1     -41.656  56.470 -51.598  1.00  0.00     0.001 A 
HETATM   19  C   UNL     1     -40.069  51.729 -52.483  1.00  0.00     0.001 A 
HETATM   20  C   UNL     1     -40.067  52.347 -53.727  1.00  0.00     0.008 A 
ENDBRANCH  10  11
ENDBRANCH   7  10
ENDBRANCH   1   6
BRANCH   2  21
HETATM   21  C   UNL     1     -43.542  58.175 -54.961  1.00  0.00     0.732 A 
HETATM   22  N   UNL     1     -44.438  58.284 -54.031  1.00  0.00    -0.067 NA
HETATM   23  C   UNL     1     -44.090  59.031 -52.928  1.00  0.00     0.065 A 
HETATM   24  C   UNL     1     -42.869  59.561 -52.725  1.00  0.00     0.036 A 
HETATM   25  C   UNL     1     -45.212  59.256 -51.938  1.00  0.00     0.060 C 
HETATM   26  C   UNL     1     -42.501  60.417 -51.552  1.00  0.00     0.046 C 
HETATM   27  C   UNL     1     -41.833  59.320 -53.756  1.00  0.00     0.268 A 
HETATM   28  C   UNL     1     -43.726  60.947 -50.806  1.00  0.00     0.005 C 
HETATM   29  C   UNL     1     -44.758  59.845 -50.601  1.00  0.00     0.006 C 
HETATM   30  O   UNL     1     -40.670  59.681 -53.615  1.00  0.00    -0.267 OA
HETATM   31  N   UNL     1     -42.270  58.672 -54.868  1.00  0.00    -0.152 N 
HETATM   32  H   UNL     1     -41.613  58.478 -55.616  1.00  0.00     0.188 HD
ENDBRANCH   2  21
BRANCH   4  33
HETATM   33  C   UNL     1     -45.675  57.111 -59.172  1.00  0.00     0.105 A 
HETATM   34  O   UNL     1     -46.049  55.977 -59.841  1.00  0.00    -0.320 OA
HETATM   35  C   UNL     1     -47.022  56.331 -60.721  1.00  0.00     0.142 A 
HETATM   36  C   UNL     1     -47.279  57.678 -60.640  1.00  0.00     0.027 A 
HETATM   37  C   UNL     1     -46.407  58.183 -59.644  1.00  0.00     0.041 A 
ENDBRANCH   4  33
TORSDOF 5
ENDMDL
MODEL 10
REMARK VINA RESULT:      -9.4      2.193      8.213
REMARK  5 active torsions:
REMARK  status: ('A' for Active; 'I' for Inactive)
REMARK    1  A    between atoms: C_5  and  C_6 
REMARK    2  A    between atoms: C_6  and  C_7 
REMARK       I    between atoms: C_7  and  N_8 
REMARK    3  A    between atoms: N_8  and  C_9 
REMARK    4  A    between atoms: N_10  and  C_11 
REMARK    5  A    between atoms: C_23  and  C_24 
ROOT
HETATM    1  C   UNL     1     -41.487  56.529 -54.211  1.00  0.00     0.152 C 
HETATM    2  N   UNL     1     -41.386  55.808 -53.024  1.00  0.00    -0.044 N 
HETATM    3  N   UNL     1     -41.715  56.590 -51.940  1.00  0.00    -0.148 NA
HETATM    4  C   UNL     1     -41.880  57.813 -52.457  1.00  0.00     0.115 C 
HETATM    5  C   UNL     1     -41.664  57.844 -53.849  1.00  0.00     0.087 C 
ENDROOT
BRANCH   1   6
HETATM    6  N   UNL     1     -41.423  56.017 -55.500  1.00  0.00    -0.311 N 
HETATM    7  C   UNL     1     -42.608  55.730 -56.169  1.00  0.00     0.227 C 
HETATM    8  O   UNL     1     -43.733  55.895 -55.692  1.00  0.00    -0.273 OA
HETATM    9  H   UNL     1     -40.650  56.325 -56.080  1.00  0.00     0.170 HD
BRANCH   7  10
HETATM   10  C   UNL     1     -42.444  55.194 -57.583  1.00  0.00     0.142 C 
BRANCH  10  11
HETATM   11  C   UNL     1     -43.344  55.816 -58.637  1.00  0.00    -0.038 A 
HETATM   12  C   UNL     1     -43.185  57.159 -59.084  1.00  0.00    -0.019 A 
HETATM   13  C   UNL     1     -44.037  57.639 -60.111  1.00  0.00    -0.025 A 
HETATM   14  C   UNL     1     -42.212  58.052 -58.574  1.00  0.00     0.013 A 
HETATM   15  C   UNL     1     -43.882  58.946 -60.602  1.00  0.00     0.012 A 
HETATM   16  C   UNL     1     -45.034  56.808 -60.640  1.00  0.00     0.012 A 
HETATM   17  C   UNL     1     -42.898  59.792 -60.094  1.00  0.00     0.001 A 
HETATM   18  C   UNL     1     -42.065  59.346 -59.079  1.00  0.00     0.001 A 
HETATM   19  C   UNL     1     -45.198  55.505 -60.177  1.00  0.00     0.001 A 
HETATM   20  C   UNL     1     -44.358  55.011 -59.187  1.00  0.00     0.008 A 
ENDBRANCH  10  11
ENDBRANCH   7  10
ENDBRANCH   1   6
BRANCH   2  21
HETATM   21  C   UNL     1     -40.903  54.500 -52.789  1.00  0.00     0.732 A 
HETATM   22  N   UNL     1     -40.633  53.635 -53.715  1.00  0.00    -0.067 NA
HETATM   23  C   UNL     1     -40.215  52.393 -53.292  1.00  0.00     0.065 A 
HETATM   24  C   UNL     1     -39.988  52.068 -52.006  1.00  0.00     0.036 A 
HETATM   25  C   UNL     1     -40.053  51.371 -54.396  1.00  0.00     0.060 C 
HETATM   26  C   UNL     1     -39.584  50.703 -51.535  1.00  0.00     0.046 C 
HETATM   27  C   UNL     1     -40.198  53.117 -50.980  1.00  0.00     0.268 A 
HETATM   28  C   UNL     1     -39.819  49.624 -52.594  1.00  0.00     0.005 C 
HETATM   29  C   UNL     1     -39.337  50.090 -53.962  1.00  0.00     0.006 C 
HETATM   30  O   UNL     1     -39.928  52.942 -49.798  1.00  0.00    -0.267 OA
HETATM   31  N   UNL     1     -40.714  54.282 -51.451  1.00  0.00    -0.152 N 
HETATM   32  H   UNL     1     -40.888  55.042 -50.803  1.00  0.00     0.188 HD
ENDBRANCH   2  21
BRANCH   4  33
HETATM   33  C   UNL     1     -42.295  58.989 -51.636  1.00  0.00     0.105 A 
HETATM   34  O   UNL     1     -43.573  59.473 -51.572  1.00  0.00    -0.320 OA
HETATM   35  C   UNL     1     -43.567  60.513 -50.698  1.00  0.00     0.142 A 
HETATM   36  C   UNL     1     -42.303  60.716 -50.200  1.00  0.00     0.027 A 
HETATM   37  C   UNL     1     -41.480  59.737 -50.808  1.00  0.00     0.041 A 
ENDBRANCH   4  33
TORSDOF 5
ENDMDL
