MODEL 1
REMARK VINA RESULT:      -9.3      0.000      0.000
REMARK  6 active torsions:
REMARK  status: ('A' for Active; 'I' for Inactive)
REMARK    1  A    between atoms: O_2  and  C_3 
REMARK    2  A    between atoms: C_3  and  C_4 
REMARK       I    between atoms: C_4  and  N_6 
REMARK    3  A    between atoms: N_6  and  C_7 
REMARK    4  A    between atoms: C_12  and  C_13 
REMARK    5  A    between atoms: C_15  and  N_16 
REMARK    6  A    between atoms: N_16  and  C_17 
ROOT
HETATM    1  C   UNL     1     -41.694  54.266 -53.916  1.00  0.00     0.164 A 
HETATM    2  N   UNL     1     -41.514  54.837 -55.118  1.00  0.00    -0.210 NA
HETATM    3  C   UNL     1     -42.131  56.010 -55.357  1.00  0.00     0.143 A 
HETATM    4  C   UNL     1     -42.976  56.615 -54.409  1.00  0.00     0.039 A 
HETATM    5  C   UNL     1     -43.656  57.849 -54.581  1.00  0.00     0.018 A 
HETATM    6  C   UNL     1     -44.489  58.352 -53.584  1.00  0.00     0.001 A 
HETATM    7  C   UNL     1     -44.647  57.638 -52.405  1.00  0.00     0.002 A 
HETATM    8  C   UNL     1     -43.960  56.433 -52.229  1.00  0.00     0.032 A 
HETATM    9  C   UNL     1     -43.123  55.913 -53.207  1.00  0.00     0.073 A 
HETATM   10  N   UNL     1     -42.489  54.765 -52.956  1.00  0.00    -0.228 NA
ENDROOT
BRANCH   1  11
HETATM   11  C   UNL     1     -40.960  53.012 -53.628  1.00  0.00     0.039 A 
HETATM   12  C   UNL     1     -40.254  52.770 -52.415  1.00  0.00     0.049 A 
HETATM   13  C   UNL     1     -39.579  51.551 -52.242  1.00  0.00     0.030 A 
HETATM   14  C   UNL     1     -39.590  50.569 -53.234  1.00  0.00     0.002 A 
HETATM   15  C   UNL     1     -40.271  50.789 -54.420  1.00  0.00     0.001 A 
HETATM   16  C   UNL     1     -40.943  51.996 -54.613  1.00  0.00     0.018 A 
BRANCH  12  17
HETATM   17  N   UNL     1     -40.249  53.766 -51.402  1.00  0.00    -0.324 N 
HETATM   18  C   UNL     1     -40.419  53.611 -50.036  1.00  0.00     0.245 C 
HETATM   19  O   UNL     1     -40.585  52.544 -49.448  1.00  0.00    -0.271 OA
HETATM   20  H   UNL     1     -40.101  54.715 -51.748  1.00  0.00     0.169 HD
BRANCH  18  21
HETATM   21  C   UNL     1     -40.323  54.938 -49.255  1.00  0.00     0.270 C 
BRANCH  21  22
HETATM   22  O   UNL     1     -41.382  55.868 -49.436  1.00  0.00    -0.387 OA
HETATM   23  C   UNL     1     -41.016  56.984 -50.235  1.00  0.00     0.202 C 
ENDBRANCH  21  22
ENDBRANCH  18  21
ENDBRANCH  12  17
ENDBRANCH   1  11
BRANCH   3  24
HETATM   24  N   UNL     1     -41.921  56.647 -56.609  1.00  0.00    -0.340 N 
HETATM   25  H   UNL     1     -41.446  57.532 -56.466  1.00  0.00     0.167 HD
BRANCH  24  26
HETATM   26  C   UNL     1     -42.798  56.688 -57.719  1.00  0.00     0.034 A 
HETATM   27  C   UNL     1     -43.307  57.894 -58.224  1.00  0.00     0.032 A 
HETATM   28  C   UNL     1     -44.167  57.938 -59.330  1.00  0.00     0.034 A 
HETATM   29  C   UNL     1     -44.532  56.717 -59.894  1.00  0.00     0.062 A 
HETATM   30  N   UNL     1     -45.316  56.408 -60.975  1.00  0.00    -0.278 N 
HETATM   31  C   UNL     1     -44.103  55.496 -59.392  1.00  0.00     0.013 A 
HETATM   32  H   UNL     1     -45.777  57.054 -61.607  1.00  0.00     0.189 HD
HETATM   33  N   UNL     1     -45.473  55.087 -61.180  1.00  0.00    -0.186 NA
HETATM   34  C   UNL     1     -44.721  54.536 -60.224  1.00  0.00     0.152 A 
HETATM   35  C   UNL     1     -43.236  55.475 -58.283  1.00  0.00     0.044 A 
ENDBRANCH  24  26
ENDBRANCH   3  24
TORSDOF 6
ENDMDL
MODEL 2
REMARK VINA RESULT:      -9.1      3.252      7.505
REMARK  6 active torsions:
REMARK  status: ('A' for Active; 'I' for Inactive)
REMARK    1  A    between atoms: O_2  and  C_3 
REMARK    2  A    between atoms: C_3  and  C_4 
REMARK       I    between atoms: C_4  and  N_6 
REMARK    3  A    between atoms: N_6  and  C_7 
REMARK    4  A    between atoms: C_12  and  C_13 
REMARK    5  A    between atoms: C_15  and  N_16 
REMARK    6  A    between atoms: N_16  and  C_17 
ROOT
HETATM    1  C   UNL     1     -42.945  56.332 -56.162  1.00  0.00     0.164 A 
HETATM    2  N   UNL     1     -41.808  55.803 -55.680  1.00  0.00    -0.210 NA
HETATM    3  C   UNL     1     -41.639  55.783 -54.344  1.00  0.00     0.143 A 
HETATM    4  C   UNL     1     -42.591  56.330 -53.464  1.00  0.00     0.039 A 
HETATM    5  C   UNL     1     -42.491  56.342 -52.048  1.00  0.00     0.018 A 
HETATM    6  C   UNL     1     -43.482  56.931 -51.266  1.00  0.00     0.001 A 
HETATM    7  C   UNL     1     -44.584  57.504 -51.883  1.00  0.00     0.002 A 
HETATM    8  C   UNL     1     -44.692  57.473 -53.277  1.00  0.00     0.032 A 
HETATM    9  C   UNL     1     -43.717  56.890 -54.077  1.00  0.00     0.073 A 
HETATM   10  N   UNL     1     -43.900  56.885 -55.399  1.00  0.00    -0.228 NA
ENDROOT
BRANCH   1  11
HETATM   11  C   UNL     1     -43.161  56.291 -57.627  1.00  0.00     0.039 A 
HETATM   12  C   UNL     1     -42.866  57.376 -58.500  1.00  0.00     0.049 A 
HETATM   13  C   UNL     1     -43.116  57.241 -59.876  1.00  0.00     0.030 A 
HETATM   14  C   UNL     1     -43.645  56.062 -60.405  1.00  0.00     0.002 A 
HETATM   15  C   UNL     1     -43.938  54.998 -59.568  1.00  0.00     0.001 A 
HETATM   16  C   UNL     1     -43.701  55.114 -58.199  1.00  0.00     0.018 A 
BRANCH  12  17
HETATM   17  N   UNL     1     -42.321  58.574 -57.963  1.00  0.00    -0.324 N 
HETATM   18  C   UNL     1     -42.980  59.740 -57.608  1.00  0.00     0.245 C 
HETATM   19  O   UNL     1     -44.191  59.932 -57.678  1.00  0.00    -0.271 OA
HETATM   20  H   UNL     1     -41.309  58.551 -57.832  1.00  0.00     0.169 HD
BRANCH  18  21
HETATM   21  C   UNL     1     -42.039  60.819 -57.034  1.00  0.00     0.270 C 
BRANCH  21  22
HETATM   22  O   UNL     1     -40.797  61.009 -57.698  1.00  0.00    -0.387 OA
HETATM   23  C   UNL     1     -40.884  61.901 -58.800  1.00  0.00     0.202 C 
ENDBRANCH  21  22
ENDBRANCH  18  21
ENDBRANCH  12  17
ENDBRANCH   1  11
BRANCH   3  24
HETATM   24  N   UNL     1     -40.460  55.192 -53.816  1.00  0.00    -0.340 N 
HETATM   25  H   UNL     1     -39.650  55.543 -54.316  1.00  0.00     0.167 HD
BRANCH  24  26
HETATM   26  C   UNL     1     -40.280  53.858 -53.380  1.00  0.00     0.034 A 
HETATM   27  C   UNL     1     -40.206  53.520 -52.021  1.00  0.00     0.032 A 
HETATM   28  C   UNL     1     -40.039  52.198 -51.586  1.00  0.00     0.034 A 
HETATM   29  C   UNL     1     -39.910  51.221 -52.573  1.00  0.00     0.062 A 
HETATM   30  N   UNL     1     -39.766  49.861 -52.498  1.00  0.00    -0.278 N 
HETATM   31  C   UNL     1     -39.917  51.514 -53.930  1.00  0.00     0.013 A 
HETATM   32  H   UNL     1     -39.749  49.288 -51.662  1.00  0.00     0.189 HD
HETATM   33  N   UNL     1     -39.624  49.257 -53.692  1.00  0.00    -0.186 NA
HETATM   34  C   UNL     1     -39.731  50.265 -54.562  1.00  0.00     0.152 A 
HETATM   35  C   UNL     1     -40.090  52.849 -54.344  1.00  0.00     0.044 A 
ENDBRANCH  24  26
ENDBRANCH   3  24
TORSDOF 6
ENDMDL
MODEL 3
REMARK VINA RESULT:      -9.0      2.290      5.249
REMARK  6 active torsions:
REMARK  status: ('A' for Active; 'I' for Inactive)
REMARK    1  A    between atoms: O_2  and  C_3 
REMARK    2  A    between atoms: C_3  and  C_4 
REMARK       I    between atoms: C_4  and  N_6 
REMARK    3  A    between atoms: N_6  and  C_7 
REMARK    4  A    between atoms: C_12  and  C_13 
REMARK    5  A    between atoms: C_15  and  N_16 
REMARK    6  A    between atoms: N_16  and  C_17 
ROOT
HETATM    1  C   UNL     1     -41.037  54.381 -54.376  1.00  0.00     0.164 A 
HETATM    2  N   UNL     1     -40.806  55.520 -53.702  1.00  0.00    -0.210 NA
HETATM    3  C   UNL     1     -41.315  56.662 -54.202  1.00  0.00     0.143 A 
HETATM    4  C   UNL     1     -42.035  56.693 -55.410  1.00  0.00     0.039 A 
HETATM    5  C   UNL     1     -42.608  57.850 -55.998  1.00  0.00     0.018 A 
HETATM    6  C   UNL     1     -43.286  57.775 -57.213  1.00  0.00     0.001 A 
HETATM    7  C   UNL     1     -43.406  56.548 -57.849  1.00  0.00     0.002 A 
HETATM    8  C   UNL     1     -42.860  55.405 -57.259  1.00  0.00     0.032 A 
HETATM    9  C   UNL     1     -42.182  55.455 -56.047  1.00  0.00     0.073 A 
HETATM   10  N   UNL     1     -41.703  54.317 -55.540  1.00  0.00    -0.228 NA
ENDROOT
BRANCH   1  11
HETATM   11  C   UNL     1     -40.536  53.117 -53.790  1.00  0.00     0.039 A 
HETATM   12  C   UNL     1     -40.235  52.950 -52.409  1.00  0.00     0.049 A 
HETATM   13  C   UNL     1     -39.755  51.712 -51.952  1.00  0.00     0.030 A 
HETATM   14  C   UNL     1     -39.572  50.638 -52.826  1.00  0.00     0.002 A 
HETATM   15  C   UNL     1     -39.860  50.784 -54.173  1.00  0.00     0.001 A 
HETATM   16  C   UNL     1     -40.333  52.008 -54.646  1.00  0.00     0.018 A 
BRANCH  12  17
HETATM   17  N   UNL     1     -40.428  54.040 -51.518  1.00  0.00    -0.324 N 
HETATM   18  C   UNL     1     -41.561  54.375 -50.794  1.00  0.00     0.245 C 
HETATM   19  O   UNL     1     -42.618  53.750 -50.783  1.00  0.00    -0.271 OA
HETATM   20  H   UNL     1     -39.612  54.644 -51.413  1.00  0.00     0.169 HD
BRANCH  18  21
HETATM   21  C   UNL     1     -41.371  55.626 -49.910  1.00  0.00     0.270 C 
BRANCH  21  22
HETATM   22  O   UNL     1     -41.197  55.408 -48.517  1.00  0.00    -0.387 OA
HETATM   23  C   UNL     1     -40.600  54.154 -48.218  1.00  0.00     0.202 C 
ENDBRANCH  21  22
ENDBRANCH  18  21
ENDBRANCH  12  17
ENDBRANCH   1  11
BRANCH   3  24
HETATM   24  N   UNL     1     -41.113  57.870 -53.481  1.00  0.00    -0.340 N 
HETATM   25  H   UNL     1     -40.141  57.938 -53.196  1.00  0.00     0.167 HD
BRANCH  24  26
HETATM   26  C   UNL     1     -41.985  58.479 -52.548  1.00  0.00     0.034 A 
HETATM   27  C   UNL     1     -41.595  59.579 -51.769  1.00  0.00     0.032 A 
HETATM   28  C   UNL     1     -42.460  60.191 -50.852  1.00  0.00     0.034 A 
HETATM   29  C   UNL     1     -43.730  59.632 -50.714  1.00  0.00     0.062 A 
HETATM   30  N   UNL     1     -44.806  59.991 -49.946  1.00  0.00    -0.278 N 
HETATM   31  C   UNL     1     -44.140  58.508 -51.417  1.00  0.00     0.013 A 
HETATM   32  H   UNL     1     -44.882  60.787 -49.323  1.00  0.00     0.189 HD
HETATM   33  N   UNL     1     -45.859  59.159 -50.054  1.00  0.00    -0.186 NA
HETATM   34  C   UNL     1     -45.455  58.267 -50.961  1.00  0.00     0.152 A 
HETATM   35  C   UNL     1     -43.255  57.912 -52.336  1.00  0.00     0.044 A 
ENDBRANCH  24  26
ENDBRANCH   3  24
TORSDOF 6
ENDMDL
MODEL 4
REMARK VINA RESULT:      -8.6      3.086      7.516
REMARK  6 active torsions:
REMARK  status: ('A' for Active; 'I' for Inactive)
REMARK    1  A    between atoms: O_2  and  C_3 
REMARK    2  A    between atoms: C_3  and  C_4 
REMARK       I    between atoms: C_4  and  N_6 
REMARK    3  A    between atoms: N_6  and  C_7 
REMARK    4  A    between atoms: C_12  and  C_13 
REMARK    5  A    between atoms: C_15  and  N_16 
REMARK    6  A    between atoms: N_16  and  C_17 
ROOT
HETATM    1  C   UNL     1     -42.738  55.610 -55.925  1.00  0.00     0.164 A 
HETATM    2  N   UNL     1     -43.463  55.964 -54.852  1.00  0.00    -0.210 NA
HETATM    3  C   UNL     1     -43.140  55.416 -53.665  1.00  0.00     0.143 A 
HETATM    4  C   UNL     1     -42.106  54.471 -53.536  1.00  0.00     0.039 A 
HETATM    5  C   UNL     1     -41.701  53.853 -52.324  1.00  0.00     0.018 A 
HETATM    6  C   UNL     1     -40.676  52.910 -52.309  1.00  0.00     0.001 A 
HETATM    7  C   UNL     1     -40.040  52.579 -53.496  1.00  0.00     0.002 A 
HETATM    8  C   UNL     1     -40.425  53.202 -54.686  1.00  0.00     0.032 A 
HETATM    9  C   UNL     1     -41.443  54.147 -54.726  1.00  0.00     0.073 A 
HETATM   10  N   UNL     1     -41.742  54.710 -55.898  1.00  0.00    -0.228 NA
ENDROOT
BRANCH   1  11
HETATM   11  C   UNL     1     -43.048  56.266 -57.217  1.00  0.00     0.039 A 
HETATM   12  C   UNL     1     -43.218  57.671 -57.369  1.00  0.00     0.049 A 
HETATM   13  C   UNL     1     -43.522  58.195 -58.637  1.00  0.00     0.030 A 
HETATM   14  C   UNL     1     -43.654  57.365 -59.752  1.00  0.00     0.002 A 
HETATM   15  C   UNL     1     -43.492  55.996 -59.620  1.00  0.00     0.001 A 
HETATM   16  C   UNL     1     -43.196  55.456 -58.369  1.00  0.00     0.018 A 
BRANCH  12  17
HETATM   17  N   UNL     1     -43.076  58.517 -56.236  1.00  0.00    -0.324 N 
HETATM   18  C   UNL     1     -42.232  59.602 -56.068  1.00  0.00     0.245 C 
HETATM   19  O   UNL     1     -41.454  60.046 -56.910  1.00  0.00    -0.271 OA
HETATM   20  H   UNL     1     -43.685  58.273 -55.454  1.00  0.00     0.169 HD
BRANCH  18  21
HETATM   21  C   UNL     1     -42.387  60.287 -54.694  1.00  0.00     0.270 C 
BRANCH  21  22
HETATM   22  O   UNL     1     -43.702  60.368 -54.162  1.00  0.00    -0.387 OA
HETATM   23  C   UNL     1     -44.083  61.691 -53.813  1.00  0.00     0.202 C 
ENDBRANCH  21  22
ENDBRANCH  18  21
ENDBRANCH  12  17
ENDBRANCH   1  11
BRANCH   3  24
HETATM   24  N   UNL     1     -43.873  55.807 -52.512  1.00  0.00    -0.340 N 
HETATM   25  H   UNL     1     -44.788  55.370 -52.525  1.00  0.00     0.167 HD
BRANCH  24  26
HETATM   26  C   UNL     1     -43.900  57.080 -51.895  1.00  0.00     0.034 A 
HETATM   27  C   UNL     1     -45.094  57.673 -51.458  1.00  0.00     0.032 A 
HETATM   28  C   UNL     1     -45.124  58.928 -50.835  1.00  0.00     0.034 A 
HETATM   29  C   UNL     1     -43.905  59.592 -50.699  1.00  0.00     0.062 A 
HETATM   30  N   UNL     1     -43.580  60.794 -50.126  1.00  0.00    -0.278 N 
HETATM   31  C   UNL     1     -42.706  59.074 -51.169  1.00  0.00     0.013 A 
HETATM   32  H   UNL     1     -44.202  61.439 -49.652  1.00  0.00     0.189 HD
HETATM   33  N   UNL     1     -42.279  61.120 -50.236  1.00  0.00    -0.186 NA
HETATM   34  C   UNL     1     -41.748  60.064 -50.858  1.00  0.00     0.152 A 
HETATM   35  C   UNL     1     -42.701  57.809 -51.788  1.00  0.00     0.044 A 
ENDBRANCH  24  26
ENDBRANCH   3  24
TORSDOF 6
ENDMDL
MODEL 5
REMARK VINA RESULT:      -8.4      2.900      5.912
REMARK  6 active torsions:
REMARK  status: ('A' for Active; 'I' for Inactive)
REMARK    1  A    between atoms: O_2  and  C_3 
REMARK    2  A    between atoms: C_3  and  C_4 
REMARK       I    between atoms: C_4  and  N_6 
REMARK    3  A    between atoms: N_6  and  C_7 
REMARK    4  A    between atoms: C_12  and  C_13 
REMARK    5  A    between atoms: C_15  and  N_16 
REMARK    6  A    between atoms: N_16  and  C_17 
ROOT
HETATM    1  C   UNL     1     -43.126  57.126 -53.338  1.00  0.00     0.164 A 
HETATM    2  N   UNL     1     -42.976  57.303 -54.661  1.00  0.00    -0.210 NA
HETATM    3  C   UNL     1     -42.264  56.386 -55.343  1.00  0.00     0.143 A 
HETATM    4  C   UNL     1     -41.653  55.291 -54.705  1.00  0.00     0.039 A 
HETATM    5  C   UNL     1     -40.894  54.280 -55.351  1.00  0.00     0.018 A 
HETATM    6  C   UNL     1     -40.312  53.246 -54.621  1.00  0.00     0.001 A 
HETATM    7  C   UNL     1     -40.484  53.204 -53.246  1.00  0.00     0.002 A 
HETATM    8  C   UNL     1     -41.249  54.188 -52.613  1.00  0.00     0.032 A 
HETATM    9  C   UNL     1     -41.841  55.227 -53.320  1.00  0.00     0.073 A 
HETATM   10  N   UNL     1     -42.571  56.119 -52.646  1.00  0.00    -0.228 NA
ENDROOT
BRANCH   1  11
HETATM   11  C   UNL     1     -43.967  58.096 -52.600  1.00  0.00     0.039 A 
HETATM   12  C   UNL     1     -44.031  59.484 -52.913  1.00  0.00     0.049 A 
HETATM   13  C   UNL     1     -44.853  60.326 -52.146  1.00  0.00     0.030 A 
HETATM   14  C   UNL     1     -45.612  59.828 -51.085  1.00  0.00     0.002 A 
HETATM   15  C   UNL     1     -45.560  58.481 -50.767  1.00  0.00     0.001 A 
HETATM   16  C   UNL     1     -44.746  57.630 -51.514  1.00  0.00     0.018 A 
BRANCH  12  17
HETATM   17  N   UNL     1     -43.264  59.990 -53.997  1.00  0.00    -0.324 N 
HETATM   18  C   UNL     1     -43.705  60.445 -55.229  1.00  0.00     0.245 C 
HETATM   19  O   UNL     1     -44.876  60.512 -55.595  1.00  0.00    -0.271 OA
HETATM   20  H   UNL     1     -42.259  60.011 -53.824  1.00  0.00     0.169 HD
BRANCH  18  21
HETATM   21  C   UNL     1     -42.562  60.943 -56.138  1.00  0.00     0.270 C 
BRANCH  21  22
HETATM   22  O   UNL     1     -41.698  59.955 -56.683  1.00  0.00    -0.387 OA
HETATM   23  C   UNL     1     -41.501  60.095 -58.082  1.00  0.00     0.202 C 
ENDBRANCH  21  22
ENDBRANCH  18  21
ENDBRANCH  12  17
ENDBRANCH   1  11
BRANCH   3  24
HETATM   24  N   UNL     1     -42.128  56.537 -56.748  1.00  0.00    -0.340 N 
HETATM   25  H   UNL     1     -41.367  57.178 -56.950  1.00  0.00     0.167 HD
BRANCH  24  26
HETATM   26  C   UNL     1     -43.159  56.615 -57.715  1.00  0.00     0.034 A 
HETATM   27  C   UNL     1     -44.109  57.646 -57.712  1.00  0.00     0.032 A 
HETATM   28  C   UNL     1     -45.124  57.732 -58.675  1.00  0.00     0.034 A 
HETATM   29  C   UNL     1     -45.176  56.716 -59.629  1.00  0.00     0.062 A 
HETATM   30  N   UNL     1     -46.002  56.513 -60.702  1.00  0.00    -0.278 N 
HETATM   31  C   UNL     1     -44.295  55.643 -59.636  1.00  0.00     0.013 A 
HETATM   32  H   UNL     1     -46.752  57.114 -61.026  1.00  0.00     0.189 HD
HETATM   33  N   UNL     1     -45.763  55.370 -61.371  1.00  0.00    -0.186 NA
HETATM   34  C   UNL     1     -44.714  54.851 -60.728  1.00  0.00     0.152 A 
HETATM   35  C   UNL     1     -43.281  55.580 -58.662  1.00  0.00     0.044 A 
ENDBRANCH  24  26
ENDBRANCH   3  24
TORSDOF 6
ENDMDL
MODEL 6
REMARK VINA RESULT:      -8.3      2.917      4.651
REMARK  6 active torsions:
REMARK  status: ('A' for Active; 'I' for Inactive)
REMARK    1  A    between atoms: O_2  and  C_3 
REMARK    2  A    between atoms: C_3  and  C_4 
REMARK       I    between atoms: C_4  and  N_6 
REMARK    3  A    between atoms: N_6  and  C_7 
REMARK    4  A    between atoms: C_12  and  C_13 
REMARK    5  A    between atoms: C_15  and  N_16 
REMARK    6  A    between atoms: N_16  and  C_17 
ROOT
HETATM    1  C   UNL     1     -41.671  55.945 -52.591  1.00  0.00     0.164 A 
HETATM    2  N   UNL     1     -42.908  56.270 -53.000  1.00  0.00    -0.210 NA
HETATM    3  C   UNL     1     -43.405  57.462 -52.619  1.00  0.00     0.143 A 
HETATM    4  C   UNL     1     -42.686  58.338 -51.785  1.00  0.00     0.039 A 
HETATM    5  C   UNL     1     -43.135  59.611 -51.346  1.00  0.00     0.018 A 
HETATM    6  C   UNL     1     -42.351  60.393 -50.501  1.00  0.00     0.001 A 
HETATM    7  C   UNL     1     -41.112  59.922 -50.093  1.00  0.00     0.002 A 
HETATM    8  C   UNL     1     -40.661  58.678 -50.543  1.00  0.00     0.032 A 
HETATM    9  C   UNL     1     -41.424  57.881 -51.387  1.00  0.00     0.073 A 
HETATM   10  N   UNL     1     -40.918  56.712 -51.788  1.00  0.00    -0.228 NA
ENDROOT
BRANCH   1  11
HETATM   11  C   UNL     1     -41.098  54.665 -53.068  1.00  0.00     0.039 A 
HETATM   12  C   UNL     1     -40.990  54.311 -54.443  1.00  0.00     0.049 A 
HETATM   13  C   UNL     1     -40.440  53.067 -54.793  1.00  0.00     0.030 A 
HETATM   14  C   UNL     1     -39.992  52.172 -53.819  1.00  0.00     0.002 A 
HETATM   15  C   UNL     1     -40.092  52.501 -52.477  1.00  0.00     0.001 A 
HETATM   16  C   UNL     1     -40.640  53.730 -52.110  1.00  0.00     0.018 A 
BRANCH  12  17
HETATM   17  N   UNL     1     -41.438  55.225 -55.434  1.00  0.00    -0.324 N 
HETATM   18  C   UNL     1     -42.542  55.125 -56.266  1.00  0.00     0.245 C 
HETATM   19  O   UNL     1     -43.360  54.209 -56.268  1.00  0.00    -0.271 OA
HETATM   20  H   UNL     1     -40.854  56.056 -55.532  1.00  0.00     0.169 HD
BRANCH  18  21
HETATM   21  C   UNL     1     -42.711  56.341 -57.201  1.00  0.00     0.270 C 
BRANCH  21  22
HETATM   22  O   UNL     1     -42.152  57.571 -56.763  1.00  0.00    -0.387 OA
HETATM   23  C   UNL     1     -42.274  58.613 -57.720  1.00  0.00     0.202 C 
ENDBRANCH  21  22
ENDBRANCH  18  21
ENDBRANCH  12  17
ENDBRANCH   1  11
BRANCH   3  24
HETATM   24  N   UNL     1     -44.697  57.838 -53.074  1.00  0.00    -0.340 N 
HETATM   25  H   UNL     1     -45.359  57.096 -52.872  1.00  0.00     0.167 HD
BRANCH  24  26
HETATM   26  C   UNL     1     -45.029  58.538 -54.258  1.00  0.00     0.034 A 
HETATM   27  C   UNL     1     -45.047  59.940 -54.317  1.00  0.00     0.032 A 
HETATM   28  C   UNL     1     -45.364  60.636 -55.491  1.00  0.00     0.034 A 
HETATM   29  C   UNL     1     -45.702  59.871 -56.606  1.00  0.00     0.062 A 
HETATM   30  N   UNL     1     -46.029  60.222 -57.889  1.00  0.00    -0.278 N 
HETATM   31  C   UNL     1     -45.757  58.484 -56.580  1.00  0.00     0.013 A 
HETATM   32  H   UNL     1     -46.062  61.155 -58.284  1.00  0.00     0.189 HD
HETATM   33  N   UNL     1     -46.344  59.179 -58.680  1.00  0.00    -0.186 NA
HETATM   34  C   UNL     1     -46.163  58.123 -57.884  1.00  0.00     0.152 A 
HETATM   35  C   UNL     1     -45.430  57.805 -55.390  1.00  0.00     0.044 A 
ENDBRANCH  24  26
ENDBRANCH   3  24
TORSDOF 6
ENDMDL
MODEL 7
REMARK VINA RESULT:      -8.3      2.728      7.262
REMARK  6 active torsions:
REMARK  status: ('A' for Active; 'I' for Inactive)
REMARK    1  A    between atoms: O_2  and  C_3 
REMARK    2  A    between atoms: C_3  and  C_4 
REMARK       I    between atoms: C_4  and  N_6 
REMARK    3  A    between atoms: N_6  and  C_7 
REMARK    4  A    between atoms: C_12  and  C_13 
REMARK    5  A    between atoms: C_15  and  N_16 
REMARK    6  A    between atoms: N_16  and  C_17 
ROOT
HETATM    1  C   UNL     1     -44.686  58.823 -53.615  1.00  0.00     0.164 A 
HETATM    2  N   UNL     1     -44.668  57.490 -53.452  1.00  0.00    -0.210 NA
HETATM    3  C   UNL     1     -44.225  56.735 -54.475  1.00  0.00     0.143 A 
HETATM    4  C   UNL     1     -43.826  57.299 -55.701  1.00  0.00     0.039 A 
HETATM    5  C   UNL     1     -43.343  56.576 -56.822  1.00  0.00     0.018 A 
HETATM    6  C   UNL     1     -42.995  57.232 -58.000  1.00  0.00     0.001 A 
HETATM    7  C   UNL     1     -43.116  58.612 -58.072  1.00  0.00     0.002 A 
HETATM    8  C   UNL     1     -43.573  59.326 -56.960  1.00  0.00     0.032 A 
HETATM    9  C   UNL     1     -43.924  58.694 -55.774  1.00  0.00     0.073 A 
HETATM   10  N   UNL     1     -44.335  59.446 -54.751  1.00  0.00    -0.228 NA
ENDROOT
BRANCH   1  11
HETATM   11  C   UNL     1     -45.107  59.655 -52.466  1.00  0.00     0.039 A 
HETATM   12  C   UNL     1     -44.439  59.663 -51.209  1.00  0.00     0.049 A 
HETATM   13  C   UNL     1     -44.923  60.483 -50.176  1.00  0.00     0.030 A 
HETATM   14  C   UNL     1     -46.045  61.294 -50.358  1.00  0.00     0.002 A 
HETATM   15  C   UNL     1     -46.707  61.297 -51.575  1.00  0.00     0.001 A 
HETATM   16  C   UNL     1     -46.244  60.486 -52.611  1.00  0.00     0.018 A 
BRANCH  12  17
HETATM   17  N   UNL     1     -43.293  58.844 -51.024  1.00  0.00    -0.324 N 
HETATM   18  C   UNL     1     -41.967  59.227 -50.901  1.00  0.00     0.245 C 
HETATM   19  O   UNL     1     -41.548  60.382 -50.907  1.00  0.00    -0.271 OA
HETATM   20  H   UNL     1     -43.496  57.845 -50.981  1.00  0.00     0.169 HD
BRANCH  18  21
HETATM   21  C   UNL     1     -41.007  58.038 -50.686  1.00  0.00     0.270 C 
BRANCH  21  22
HETATM   22  O   UNL     1     -40.987  57.038 -51.696  1.00  0.00    -0.387 OA
HETATM   23  C   UNL     1     -40.862  57.571 -53.006  1.00  0.00     0.202 C 
ENDBRANCH  21  22
ENDBRANCH  18  21
ENDBRANCH  12  17
ENDBRANCH   1  11
BRANCH   3  24
HETATM   24  N   UNL     1     -44.163  55.326 -54.305  1.00  0.00    -0.340 N 
HETATM   25  H   UNL     1     -45.040  54.990 -53.924  1.00  0.00     0.167 HD
BRANCH  24  26
HETATM   26  C   UNL     1     -43.061  54.554 -53.865  1.00  0.00     0.034 A 
HETATM   27  C   UNL     1     -42.228  53.864 -54.758  1.00  0.00     0.032 A 
HETATM   28  C   UNL     1     -41.130  53.108 -54.327  1.00  0.00     0.034 A 
HETATM   29  C   UNL     1     -40.916  53.036 -52.951  1.00  0.00     0.062 A 
HETATM   30  N   UNL     1     -39.942  52.422 -52.210  1.00  0.00    -0.278 N 
HETATM   31  C   UNL     1     -41.748  53.652 -52.025  1.00  0.00     0.013 A 
HETATM   32  H   UNL     1     -39.144  51.899 -52.552  1.00  0.00     0.189 HD
HETATM   33  N   UNL     1     -40.106  52.543 -50.879  1.00  0.00    -0.186 NA
HETATM   34  C   UNL     1     -41.197  53.304 -50.771  1.00  0.00     0.152 A 
HETATM   35  C   UNL     1     -42.843  54.409 -52.482  1.00  0.00     0.044 A 
ENDBRANCH  24  26
ENDBRANCH   3  24
TORSDOF 6
ENDMDL
MODEL 8
REMARK VINA RESULT:      -8.1      1.688      2.134
REMARK  6 active torsions:
REMARK  status: ('A' for Active; 'I' for Inactive)
REMARK    1  A    between atoms: O_2  and  C_3 
REMARK    2  A    between atoms: C_3  and  C_4 
REMARK       I    between atoms: C_4  and  N_6 
REMARK    3  A    between atoms: N_6  and  C_7 
REMARK    4  A    between atoms: C_12  and  C_13 
REMARK    5  A    between atoms: C_15  and  N_16 
REMARK    6  A    between atoms: N_16  and  C_17 
ROOT
HETATM    1  C   UNL     1     -41.190  54.545 -53.990  1.00  0.00     0.164 A 
HETATM    2  N   UNL     1     -42.149  54.535 -54.930  1.00  0.00    -0.210 NA
HETATM    3  C   UNL     1     -42.605  55.720 -55.378  1.00  0.00     0.143 A 
HETATM    4  C   UNL     1     -42.136  56.943 -54.865  1.00  0.00     0.039 A 
HETATM    5  C   UNL     1     -42.559  58.230 -55.287  1.00  0.00     0.018 A 
HETATM    6  C   UNL     1     -42.045  59.381 -54.695  1.00  0.00     0.001 A 
HETATM    7  C   UNL     1     -41.101  59.265 -53.686  1.00  0.00     0.002 A 
HETATM    8  C   UNL     1     -40.669  57.997 -53.285  1.00  0.00     0.032 A 
HETATM    9  C   UNL     1     -41.166  56.834 -53.861  1.00  0.00     0.073 A 
HETATM   10  N   UNL     1     -40.691  55.661 -53.436  1.00  0.00    -0.228 NA
ENDROOT
BRANCH   1  11
HETATM   11  C   UNL     1     -40.640  53.244 -53.548  1.00  0.00     0.039 A 
HETATM   12  C   UNL     1     -40.553  52.844 -52.184  1.00  0.00     0.049 A 
HETATM   13  C   UNL     1     -40.005  51.591 -51.866  1.00  0.00     0.030 A 
HETATM   14  C   UNL     1     -39.547  50.726 -52.862  1.00  0.00     0.002 A 
HETATM   15  C   UNL     1     -39.624  51.099 -54.194  1.00  0.00     0.001 A 
HETATM   16  C   UNL     1     -40.161  52.342 -54.529  1.00  0.00     0.018 A 
BRANCH  12  17
HETATM   17  N   UNL     1     -41.025  53.721 -51.170  1.00  0.00    -0.324 N 
HETATM   18  C   UNL     1     -40.315  54.307 -50.135  1.00  0.00     0.245 C 
HETATM   19  O   UNL     1     -39.110  54.180 -49.926  1.00  0.00    -0.271 OA
HETATM   20  H   UNL     1     -42.021  53.933 -51.231  1.00  0.00     0.169 HD
BRANCH  18  21
HETATM   21  C   UNL     1     -41.180  55.225 -49.247  1.00  0.00     0.270 C 
BRANCH  21  22
HETATM   22  O   UNL     1     -41.483  56.515 -49.759  1.00  0.00    -0.387 OA
HETATM   23  C   UNL     1     -42.660  56.538 -50.554  1.00  0.00     0.202 C 
ENDBRANCH  21  22
ENDBRANCH  18  21
ENDBRANCH  12  17
ENDBRANCH   1  11
BRANCH   3  24
HETATM   24  N   UNL     1     -43.593  55.727 -56.399  1.00  0.00    -0.340 N 
HETATM   25  H   UNL     1     -43.975  54.794 -56.511  1.00  0.00     0.167 HD
BRANCH  24  26
HETATM   26  C   UNL     1     -43.571  56.443 -57.620  1.00  0.00     0.034 A 
HETATM   27  C   UNL     1     -42.638  56.167 -58.631  1.00  0.00     0.032 A 
HETATM   28  C   UNL     1     -42.621  56.866 -59.845  1.00  0.00     0.034 A 
HETATM   29  C   UNL     1     -43.559  57.887 -59.998  1.00  0.00     0.062 A 
HETATM   30  N   UNL     1     -43.830  58.728 -61.045  1.00  0.00    -0.278 N 
HETATM   31  C   UNL     1     -44.463  58.236 -59.004  1.00  0.00     0.013 A 
HETATM   32  H   UNL     1     -43.385  58.742 -61.956  1.00  0.00     0.189 HD
HETATM   33  N   UNL     1     -44.797  59.628 -60.790  1.00  0.00    -0.186 NA
HETATM   34  C   UNL     1     -45.190  59.316 -59.552  1.00  0.00     0.152 A 
HETATM   35  C   UNL     1     -44.464  57.517 -57.793  1.00  0.00     0.044 A 
ENDBRANCH  24  26
ENDBRANCH   3  24
TORSDOF 6
ENDMDL
MODEL 9
REMARK VINA RESULT:      -8.1      1.331      4.588
REMARK  6 active torsions:
REMARK  status: ('A' for Active; 'I' for Inactive)
REMARK    1  A    between atoms: O_2  and  C_3 
REMARK    2  A    between atoms: C_3  and  C_4 
REMARK       I    between atoms: C_4  and  N_6 
REMARK    3  A    between atoms: N_6  and  C_7 
REMARK    4  A    between atoms: C_12  and  C_13 
REMARK    5  A    between atoms: C_15  and  N_16 
REMARK    6  A    between atoms: N_16  and  C_17 
ROOT
HETATM    1  C   UNL     1     -43.070  56.748 -53.540  1.00  0.00     0.164 A 
HETATM    2  N   UNL     1     -42.860  56.977 -54.847  1.00  0.00    -0.210 NA
HETATM    3  C   UNL     1     -42.141  56.071 -55.538  1.00  0.00     0.143 A 
HETATM    4  C   UNL     1     -41.584  54.935 -54.924  1.00  0.00     0.039 A 
HETATM    5  C   UNL     1     -40.823  53.933 -55.581  1.00  0.00     0.018 A 
HETATM    6  C   UNL     1     -40.297  52.855 -54.873  1.00  0.00     0.001 A 
HETATM    7  C   UNL     1     -40.529  52.759 -53.509  1.00  0.00     0.002 A 
HETATM    8  C   UNL     1     -41.296  53.735 -52.866  1.00  0.00     0.032 A 
HETATM    9  C   UNL     1     -41.833  54.817 -53.551  1.00  0.00     0.073 A 
HETATM   10  N   UNL     1     -42.569  55.698 -52.870  1.00  0.00    -0.228 NA
ENDROOT
BRANCH   1  11
HETATM   11  C   UNL     1     -43.918  57.708 -52.797  1.00  0.00     0.039 A 
HETATM   12  C   UNL     1     -43.984  57.768 -51.376  1.00  0.00     0.049 A 
HETATM   13  C   UNL     1     -44.828  58.709 -50.764  1.00  0.00     0.030 A 
HETATM   14  C   UNL     1     -45.601  59.591 -51.522  1.00  0.00     0.002 A 
HETATM   15  C   UNL     1     -45.548  59.545 -52.906  1.00  0.00     0.001 A 
HETATM   16  C   UNL     1     -44.720  58.614 -53.531  1.00  0.00     0.018 A 
BRANCH  12  17
HETATM   17  N   UNL     1     -43.193  56.875 -50.603  1.00  0.00    -0.324 N 
HETATM   18  C   UNL     1     -41.864  56.998 -50.233  1.00  0.00     0.245 C 
HETATM   19  O   UNL     1     -41.127  57.944 -50.500  1.00  0.00    -0.271 OA
HETATM   20  H   UNL     1     -43.689  56.039 -50.292  1.00  0.00     0.169 HD
BRANCH  18  21
HETATM   21  C   UNL     1     -41.363  55.824 -49.365  1.00  0.00     0.270 C 
BRANCH  21  22
HETATM   22  O   UNL     1     -40.187  55.157 -49.803  1.00  0.00    -0.387 OA
HETATM   23  C   UNL     1     -39.843  54.043 -48.993  1.00  0.00     0.202 C 
ENDBRANCH  21  22
ENDBRANCH  18  21
ENDBRANCH  12  17
ENDBRANCH   1  11
BRANCH   3  24
HETATM   24  N   UNL     1     -41.942  56.279 -56.929  1.00  0.00    -0.340 N 
HETATM   25  H   UNL     1     -41.126  56.863 -57.073  1.00  0.00     0.167 HD
BRANCH  24  26
HETATM   26  C   UNL     1     -42.927  56.487 -57.924  1.00  0.00     0.034 A 
HETATM   27  C   UNL     1     -43.535  57.736 -58.122  1.00  0.00     0.032 A 
HETATM   28  C   UNL     1     -44.502  57.948 -59.114  1.00  0.00     0.034 A 
HETATM   29  C   UNL     1     -44.870  56.844 -59.882  1.00  0.00     0.062 A 
HETATM   30  N   UNL     1     -45.744  56.711 -60.929  1.00  0.00    -0.278 N 
HETATM   31  C   UNL     1     -44.341  55.576 -59.683  1.00  0.00     0.013 A 
HETATM   32  H   UNL     1     -46.293  57.440 -61.371  1.00  0.00     0.189 HD
HETATM   33  N   UNL     1     -45.864  55.451 -61.387  1.00  0.00    -0.186 NA
HETATM   34  C   UNL     1     -44.998  54.767 -60.636  1.00  0.00     0.152 A 
HETATM   35  C   UNL     1     -43.368  55.388 -58.684  1.00  0.00     0.044 A 
ENDBRANCH  24  26
ENDBRANCH   3  24
TORSDOF 6
ENDMDL
MODEL 10
REMARK VINA RESULT:      -8.0      2.220      5.113
REMARK  6 active torsions:
REMARK  status: ('A' for Active; 'I' for Inactive)
REMARK    1  A    between atoms: O_2  and  C_3 
REMARK    2  A    between atoms: C_3  and  C_4 
REMARK       I    between atoms: C_4  and  N_6 
REMARK    3  A    between atoms: N_6  and  C_7 
REMARK    4  A    between atoms: C_12  and  C_13 
REMARK    5  A    between atoms: C_15  and  N_16 
REMARK    6  A    between atoms: N_16  and  C_17 
ROOT
HETATM    1  C   UNL     1     -42.940  57.374 -53.043  1.00  0.00     0.164 A 
HETATM    2  N   UNL     1     -42.839  57.645 -54.355  1.00  0.00    -0.210 NA
HETATM    3  C   UNL     1     -42.220  56.743 -55.140  1.00  0.00     0.143 A 
HETATM    4  C   UNL     1     -41.653  55.566 -54.619  1.00  0.00     0.039 A 
HETATM    5  C   UNL     1     -40.991  54.565 -55.378  1.00  0.00     0.018 A 
HETATM    6  C   UNL     1     -40.444  53.443 -54.759  1.00  0.00     0.001 A 
HETATM    7  C   UNL     1     -40.557  53.302 -53.384  1.00  0.00     0.002 A 
HETATM    8  C   UNL     1     -41.226  54.278 -52.640  1.00  0.00     0.032 A 
HETATM    9  C   UNL     1     -41.782  55.404 -53.235  1.00  0.00     0.073 A 
HETATM   10  N   UNL     1     -42.421  56.283 -52.459  1.00  0.00    -0.228 NA
ENDROOT
BRANCH   1  11
HETATM   11  C   UNL     1     -43.682  58.332 -52.193  1.00  0.00     0.039 A 
HETATM   12  C   UNL     1     -43.055  59.346 -51.413  1.00  0.00     0.049 A 
HETATM   13  C   UNL     1     -43.848  60.201 -50.630  1.00  0.00     0.030 A 
HETATM   14  C   UNL     1     -45.238  60.080 -50.604  1.00  0.00     0.002 A 
HETATM   15  C   UNL     1     -45.863  59.099 -51.356  1.00  0.00     0.001 A 
HETATM   16  C   UNL     1     -45.093  58.237 -52.136  1.00  0.00     0.018 A 
BRANCH  12  17
HETATM   17  N   UNL     1     -41.640  59.474 -51.444  1.00  0.00    -0.324 N 
HETATM   18  C   UNL     1     -40.693  58.784 -50.705  1.00  0.00     0.245 C 
HETATM   19  O   UNL     1     -40.925  57.898 -49.887  1.00  0.00    -0.271 OA
HETATM   20  H   UNL     1     -41.299  60.174 -52.104  1.00  0.00     0.169 HD
BRANCH  18  21
HETATM   21  C   UNL     1     -39.244  59.191 -51.043  1.00  0.00     0.270 C 
BRANCH  21  22
HETATM   22  O   UNL     1     -38.701  60.291 -50.325  1.00  0.00    -0.387 OA
HETATM   23  C   UNL     1     -37.581  59.938 -49.525  1.00  0.00     0.202 C 
ENDBRANCH  21  22
ENDBRANCH  18  21
ENDBRANCH  12  17
ENDBRANCH   1  11
BRANCH   3  24
HETATM   24  N   UNL     1     -42.138  56.997 -56.535  1.00  0.00    -0.340 N 
HETATM   25  H   UNL     1     -41.691  57.894 -56.693  1.00  0.00     0.167 HD
BRANCH  24  26
HETATM   26  C   UNL     1     -43.103  56.703 -57.527  1.00  0.00     0.034 A 
HETATM   27  C   UNL     1     -43.046  55.533 -58.300  1.00  0.00     0.032 A 
HETATM   28  C   UNL     1     -44.007  55.233 -59.275  1.00  0.00     0.034 A 
HETATM   29  C   UNL     1     -45.016  56.174 -59.477  1.00  0.00     0.062 A 
HETATM   30  N   UNL     1     -46.103  56.183 -60.311  1.00  0.00    -0.278 N 
HETATM   31  C   UNL     1     -45.080  57.373 -58.779  1.00  0.00     0.013 A 
HETATM   32  H   UNL     1     -46.395  55.452 -60.951  1.00  0.00     0.189 HD
HETATM   33  N   UNL     1     -46.833  57.312 -60.249  1.00  0.00    -0.186 NA
HETATM   34  C   UNL     1     -46.216  58.027 -59.306  1.00  0.00     0.152 A 
HETATM   35  C   UNL     1     -44.106  57.651 -57.801  1.00  0.00     0.044 A 
ENDBRANCH  24  26
ENDBRANCH   3  24
TORSDOF 6
ENDMDL
