MODEL 1
REMARK VINA RESULT:      -7.7      0.000      0.000
REMARK  5 active torsions:
REMARK  status: ('A' for Active; 'I' for Inactive)
REMARK    1  A    between atoms: C_2  and  C_3 
REMARK    2  A    between atoms: C_2  and  C_21 
REMARK       I    between atoms: C_3  and  N_4 
REMARK    3  A    between atoms: N_4  and  C_5 
REMARK    4  A    between atoms: C_8  and  O_9 
REMARK    5  A    between atoms: O_9  and  C_10 
ROOT
HETATM    1  C   UNL     1     -42.503  56.017 -50.636  1.00  0.00     0.052 A 
HETATM    2  C   UNL     1     -42.972  54.732 -50.904  1.00  0.00     0.149 A 
HETATM    3  N   UNL     1     -42.190  53.622 -50.911  1.00  0.00    -0.235 NA
HETATM    4  C   UNL     1     -40.881  53.796 -50.636  1.00  0.00     0.169 A 
HETATM    5  C   UNL     1     -40.323  55.022 -50.313  1.00  0.00     0.060 A 
HETATM    6  C   UNL     1     -41.147  56.147 -50.326  1.00  0.00     0.035 A 
ENDROOT
BRANCH   1   7
HETATM    7  N   UNL     1     -43.277  57.197 -50.684  1.00  0.00    -0.325 N 
HETATM    8  C   UNL     1     -43.894  57.741 -51.798  1.00  0.00     0.231 C 
HETATM    9  O   UNL     1     -43.920  57.207 -52.902  1.00  0.00    -0.272 OA
HETATM   10  H   UNL     1     -43.367  57.694 -49.808  1.00  0.00     0.169 HD
BRANCH   8  11
HETATM   11  C   UNL     1     -44.546  59.124 -51.563  1.00  0.00     0.046 C 
HETATM   12  C   UNL     1     -45.156  59.644 -52.877  1.00  0.00     0.026 C 
HETATM   13  C   UNL     1     -45.641  58.977 -50.490  1.00  0.00     0.026 C 
BRANCH  11  14
HETATM   14  C   UNL     1     -43.427  60.075 -51.070  1.00  0.00     0.133 C 
HETATM   15 CL   UNL     1     -41.971  60.087 -52.106  1.00  0.00    -0.129 Cl
ENDBRANCH  11  14
ENDBRANCH   8  11
ENDBRANCH   1   7
BRANCH   4  16
HETATM   16  O   UNL     1     -40.024  52.706 -50.639  1.00  0.00    -0.289 OA
BRANCH  16  17
HETATM   17  C   UNL     1     -39.996  51.925 -51.771  1.00  0.00     0.116 A 
HETATM   18  C   UNL     1     -39.692  50.572 -51.609  1.00  0.00     0.153 A 
HETATM   19  F   UNL     1     -39.492  50.068 -50.381  1.00  0.00    -0.203 F 
HETATM   20  C   UNL     1     -39.582  49.726 -52.707  1.00  0.00     0.087 A 
HETATM   21  C   UNL     1     -39.764  50.250 -53.979  1.00  0.00     0.119 A 
HETATM   22  F   UNL     1     -39.656  49.447 -55.045  1.00  0.00    -0.206 F 
HETATM   23  C   UNL     1     -40.047  51.600 -54.167  1.00  0.00     0.045 A 
HETATM   24  C   UNL     1     -40.153  52.446 -53.062  1.00  0.00     0.043 A 
ENDBRANCH  16  17
ENDBRANCH   4  16
TORSDOF 5
ENDMDL
MODEL 2
REMARK VINA RESULT:      -7.4      4.446      4.924
REMARK  5 active torsions:
REMARK  status: ('A' for Active; 'I' for Inactive)
REMARK    1  A    between atoms: C_2  and  C_3 
REMARK    2  A    between atoms: C_2  and  C_21 
REMARK       I    between atoms: C_3  and  N_4 
REMARK    3  A    between atoms: N_4  and  C_5 
REMARK    4  A    between atoms: C_8  and  O_9 
REMARK    5  A    between atoms: O_9  and  C_10 
ROOT
HETATM    1  C   UNL     1     -43.089  56.088 -55.596  1.00  0.00     0.052 A 
HETATM    2  C   UNL     1     -43.642  55.219 -54.657  1.00  0.00     0.149 A 
HETATM    3  N   UNL     1     -42.933  54.607 -53.674  1.00  0.00    -0.235 NA
HETATM    4  C   UNL     1     -41.612  54.873 -53.619  1.00  0.00     0.169 A 
HETATM    5  C   UNL     1     -40.972  55.754 -54.475  1.00  0.00     0.060 A 
HETATM    6  C   UNL     1     -41.723  56.359 -55.483  1.00  0.00     0.035 A 
ENDROOT
BRANCH   1   7
HETATM    7  N   UNL     1     -43.786  56.689 -56.667  1.00  0.00    -0.325 N 
HETATM    8  C   UNL     1     -43.702  56.350 -58.006  1.00  0.00     0.231 C 
HETATM    9  O   UNL     1     -43.057  55.400 -58.439  1.00  0.00    -0.272 OA
HETATM   10  H   UNL     1     -44.394  57.456 -56.413  1.00  0.00     0.169 HD
BRANCH   8  11
HETATM   11  C   UNL     1     -44.476  57.292 -58.959  1.00  0.00     0.046 C 
HETATM   12  C   UNL     1     -45.635  56.526 -59.622  1.00  0.00     0.026 C 
HETATM   13  C   UNL     1     -45.019  58.481 -58.145  1.00  0.00     0.026 C 
BRANCH  11  14
HETATM   14  C   UNL     1     -43.468  57.781 -60.029  1.00  0.00     0.133 C 
HETATM   15 CL   UNL     1     -42.095  58.715 -59.366  1.00  0.00    -0.129 Cl
ENDBRANCH  11  14
ENDBRANCH   8  11
ENDBRANCH   1   7
BRANCH   4  16
HETATM   16  O   UNL     1     -40.827  54.271 -52.648  1.00  0.00    -0.289 OA
BRANCH  16  17
HETATM   17  C   UNL     1     -40.477  52.954 -52.841  1.00  0.00     0.116 A 
HETATM   18  C   UNL     1     -39.955  52.262 -51.747  1.00  0.00     0.153 A 
HETATM   19  F   UNL     1     -39.858  52.865 -50.552  1.00  0.00    -0.203 F 
HETATM   20  C   UNL     1     -39.519  50.948 -51.871  1.00  0.00     0.087 A 
HETATM   21  C   UNL     1     -39.596  50.331 -53.112  1.00  0.00     0.119 A 
HETATM   22  F   UNL     1     -39.175  49.066 -53.247  1.00  0.00    -0.206 F 
HETATM   23  C   UNL     1     -40.092  51.006 -54.223  1.00  0.00     0.045 A 
HETATM   24  C   UNL     1     -40.525  52.327 -54.092  1.00  0.00     0.043 A 
ENDBRANCH  16  17
ENDBRANCH   4  16
TORSDOF 5
ENDMDL
MODEL 3
REMARK VINA RESULT:      -7.4      4.441      4.959
REMARK  5 active torsions:
REMARK  status: ('A' for Active; 'I' for Inactive)
REMARK    1  A    between atoms: C_2  and  C_3 
REMARK    2  A    between atoms: C_2  and  C_21 
REMARK       I    between atoms: C_3  and  N_4 
REMARK    3  A    between atoms: N_4  and  C_5 
REMARK    4  A    between atoms: C_8  and  O_9 
REMARK    5  A    between atoms: O_9  and  C_10 
ROOT
HETATM    1  C   UNL     1     -43.144  56.022 -55.316  1.00  0.00     0.052 A 
HETATM    2  C   UNL     1     -43.579  55.046 -54.422  1.00  0.00     0.149 A 
HETATM    3  N   UNL     1     -42.780  54.443 -53.503  1.00  0.00    -0.235 NA
HETATM    4  C   UNL     1     -41.489  54.832 -53.469  1.00  0.00     0.169 A 
HETATM    5  C   UNL     1     -40.967  55.824 -54.282  1.00  0.00     0.060 A 
HETATM    6  C   UNL     1     -41.807  56.417 -55.225  1.00  0.00     0.035 A 
ENDROOT
BRANCH   1   7
HETATM    7  N   UNL     1     -43.933  56.619 -56.323  1.00  0.00    -0.325 N 
HETATM    8  C   UNL     1     -43.734  56.539 -57.690  1.00  0.00     0.231 C 
HETATM    9  O   UNL     1     -42.872  55.846 -58.223  1.00  0.00    -0.272 OA
HETATM   10  H   UNL     1     -44.712  57.175 -55.994  1.00  0.00     0.169 HD
BRANCH   8  11
HETATM   11  C   UNL     1     -44.680  57.425 -58.533  1.00  0.00     0.046 C 
HETATM   12  C   UNL     1     -45.712  58.108 -57.616  1.00  0.00     0.026 C 
HETATM   13  C   UNL     1     -43.840  58.485 -59.270  1.00  0.00     0.026 C 
BRANCH  11  14
HETATM   14  C   UNL     1     -45.390  56.493 -59.547  1.00  0.00     0.133 C 
HETATM   15 CL   UNL     1     -46.950  57.122 -60.150  1.00  0.00    -0.129 Cl
ENDBRANCH  11  14
ENDBRANCH   8  11
ENDBRANCH   1   7
BRANCH   4  16
HETATM   16  O   UNL     1     -40.616  54.249 -52.563  1.00  0.00    -0.289 OA
BRANCH  16  17
HETATM   17  C   UNL     1     -40.326  52.914 -52.731  1.00  0.00     0.116 A 
HETATM   18  C   UNL     1     -39.918  52.200 -51.604  1.00  0.00     0.153 A 
HETATM   19  F   UNL     1     -39.867  52.803 -50.406  1.00  0.00    -0.203 F 
HETATM   20  C   UNL     1     -39.547  50.863 -51.698  1.00  0.00     0.087 A 
HETATM   21  C   UNL     1     -39.574  50.245 -52.940  1.00  0.00     0.119 A 
HETATM   22  F   UNL     1     -39.215  48.959 -53.045  1.00  0.00    -0.206 F 
HETATM   23  C   UNL     1     -39.958  50.942 -54.082  1.00  0.00     0.045 A 
HETATM   24  C   UNL     1     -40.326  52.285 -53.983  1.00  0.00     0.043 A 
ENDBRANCH  16  17
ENDBRANCH   4  16
TORSDOF 5
ENDMDL
MODEL 4
REMARK VINA RESULT:      -7.2      4.964      6.178
REMARK  5 active torsions:
REMARK  status: ('A' for Active; 'I' for Inactive)
REMARK    1  A    between atoms: C_2  and  C_3 
REMARK    2  A    between atoms: C_2  and  C_21 
REMARK       I    between atoms: C_3  and  N_4 
REMARK    3  A    between atoms: N_4  and  C_5 
REMARK    4  A    between atoms: C_8  and  O_9 
REMARK    5  A    between atoms: O_9  and  C_10 
ROOT
HETATM    1  C   UNL     1     -42.599  56.052 -56.129  1.00  0.00     0.052 A 
HETATM    2  C   UNL     1     -42.471  56.709 -54.906  1.00  0.00     0.149 A 
HETATM    3  N   UNL     1     -42.609  56.105 -53.698  1.00  0.00    -0.235 NA
HETATM    4  C   UNL     1     -42.883  54.784 -53.704  1.00  0.00     0.169 A 
HETATM    5  C   UNL     1     -42.986  54.029 -54.861  1.00  0.00     0.060 A 
HETATM    6  C   UNL     1     -42.852  54.679 -56.088  1.00  0.00     0.035 A 
ENDROOT
BRANCH   1   7
HETATM    7  N   UNL     1     -42.526  56.664 -57.399  1.00  0.00    -0.325 N 
HETATM    8  C   UNL     1     -43.536  57.350 -58.050  1.00  0.00     0.231 C 
HETATM    9  O   UNL     1     -44.633  57.595 -57.556  1.00  0.00    -0.272 OA
HETATM   10  H   UNL     1     -41.639  56.569 -57.877  1.00  0.00     0.169 HD
BRANCH   8  11
HETATM   11  C   UNL     1     -43.197  57.778 -59.497  1.00  0.00     0.046 C 
HETATM   12  C   UNL     1     -43.536  59.267 -59.694  1.00  0.00     0.026 C 
HETATM   13  C   UNL     1     -41.697  57.537 -59.745  1.00  0.00     0.026 C 
BRANCH  11  14
HETATM   14  C   UNL     1     -44.052  56.898 -60.442  1.00  0.00     0.133 C 
HETATM   15 CL   UNL     1     -43.995  55.152 -60.064  1.00  0.00    -0.129 Cl
ENDBRANCH  11  14
ENDBRANCH   8  11
ENDBRANCH   1   7
BRANCH   4  16
HETATM   16  O   UNL     1     -43.048  54.108 -52.506  1.00  0.00    -0.289 OA
BRANCH  16  17
HETATM   17  C   UNL     1     -42.046  54.221 -51.570  1.00  0.00     0.116 A 
HETATM   18  C   UNL     1     -40.908  53.432 -51.749  1.00  0.00     0.153 A 
HETATM   19  F   UNL     1     -40.800  52.641 -52.828  1.00  0.00    -0.203 F 
HETATM   20  C   UNL     1     -39.876  53.440 -50.818  1.00  0.00     0.087 A 
HETATM   21  C   UNL     1     -39.997  54.239 -49.690  1.00  0.00     0.119 A 
HETATM   22  F   UNL     1     -39.012  54.252 -48.782  1.00  0.00    -0.206 F 
HETATM   23  C   UNL     1     -41.130  55.019 -49.477  1.00  0.00     0.045 A 
HETATM   24  C   UNL     1     -42.165  55.004 -50.414  1.00  0.00     0.043 A 
ENDBRANCH  16  17
ENDBRANCH   4  16
TORSDOF 5
ENDMDL
MODEL 5
REMARK VINA RESULT:      -7.1      4.876      6.079
REMARK  5 active torsions:
REMARK  status: ('A' for Active; 'I' for Inactive)
REMARK    1  A    between atoms: C_2  and  C_3 
REMARK    2  A    between atoms: C_2  and  C_21 
REMARK       I    between atoms: C_3  and  N_4 
REMARK    3  A    between atoms: N_4  and  C_5 
REMARK    4  A    between atoms: C_8  and  O_9 
REMARK    5  A    between atoms: O_9  and  C_10 
ROOT
HETATM    1  C   UNL     1     -42.530  56.215 -56.144  1.00  0.00     0.052 A 
HETATM    2  C   UNL     1     -42.405  56.819 -54.895  1.00  0.00     0.149 A 
HETATM    3  N   UNL     1     -42.576  56.170 -53.714  1.00  0.00    -0.235 NA
HETATM    4  C   UNL     1     -42.881  54.858 -53.777  1.00  0.00     0.169 A 
HETATM    5  C   UNL     1     -42.984  54.153 -54.965  1.00  0.00     0.060 A 
HETATM    6  C   UNL     1     -42.817  54.847 -56.163  1.00  0.00     0.035 A 
ENDROOT
BRANCH   1   7
HETATM    7  N   UNL     1     -42.423  56.875 -57.388  1.00  0.00    -0.325 N 
HETATM    8  C   UNL     1     -43.417  57.582 -58.041  1.00  0.00     0.231 C 
HETATM    9  O   UNL     1     -44.528  57.806 -57.570  1.00  0.00    -0.272 OA
HETATM   10  H   UNL     1     -41.523  56.800 -57.844  1.00  0.00     0.169 HD
BRANCH   8  11
HETATM   11  C   UNL     1     -43.038  58.066 -59.460  1.00  0.00     0.046 C 
HETATM   12  C   UNL     1     -41.890  57.204 -60.018  1.00  0.00     0.026 C 
HETATM   13  C   UNL     1     -44.277  57.954 -60.368  1.00  0.00     0.026 C 
BRANCH  11  14
HETATM   14  C   UNL     1     -42.592  59.544 -59.330  1.00  0.00     0.133 C 
HETATM   15 CL   UNL     1     -41.799  60.199 -60.791  1.00  0.00    -0.129 Cl
ENDBRANCH  11  14
ENDBRANCH   8  11
ENDBRANCH   1   7
BRANCH   4  16
HETATM   16  O   UNL     1     -43.081  54.139 -52.609  1.00  0.00    -0.289 OA
BRANCH  16  17
HETATM   17  C   UNL     1     -42.112  54.227 -51.637  1.00  0.00     0.116 A 
HETATM   18  C   UNL     1     -40.987  53.412 -51.776  1.00  0.00     0.153 A 
HETATM   19  F   UNL     1     -40.857  52.622 -52.853  1.00  0.00    -0.203 F 
HETATM   20  C   UNL     1     -39.990  53.394 -50.807  1.00  0.00     0.087 A 
HETATM   21  C   UNL     1     -40.135  54.193 -49.681  1.00  0.00     0.119 A 
HETATM   22  F   UNL     1     -39.184  54.181 -48.738  1.00  0.00    -0.206 F 
HETATM   23  C   UNL     1     -41.257  54.998 -49.509  1.00  0.00     0.045 A 
HETATM   24  C   UNL     1     -42.257  55.009 -50.484  1.00  0.00     0.043 A 
ENDBRANCH  16  17
ENDBRANCH   4  16
TORSDOF 5
ENDMDL
MODEL 6
REMARK VINA RESULT:      -7.0      2.264      3.115
REMARK  5 active torsions:
REMARK  status: ('A' for Active; 'I' for Inactive)
REMARK    1  A    between atoms: C_2  and  C_3 
REMARK    2  A    between atoms: C_2  and  C_21 
REMARK       I    between atoms: C_3  and  N_4 
REMARK    3  A    between atoms: N_4  and  C_5 
REMARK    4  A    between atoms: C_8  and  O_9 
REMARK    5  A    between atoms: O_9  and  C_10 
ROOT
HETATM    1  C   UNL     1     -42.163  56.072 -53.918  1.00  0.00     0.052 A 
HETATM    2  C   UNL     1     -42.740  54.854 -53.562  1.00  0.00     0.149 A 
HETATM    3  N   UNL     1     -42.151  53.646 -53.756  1.00  0.00    -0.235 NA
HETATM    4  C   UNL     1     -40.929  53.648 -54.329  1.00  0.00     0.169 A 
HETATM    5  C   UNL     1     -40.251  54.803 -54.680  1.00  0.00     0.060 A 
HETATM    6  C   UNL     1     -40.885  56.029 -54.480  1.00  0.00     0.035 A 
ENDROOT
BRANCH   1   7
HETATM    7  N   UNL     1     -42.776  57.337 -53.788  1.00  0.00    -0.325 N 
HETATM    8  C   UNL     1     -42.708  58.184 -52.696  1.00  0.00     0.231 C 
HETATM    9  O   UNL     1     -42.014  57.977 -51.704  1.00  0.00    -0.272 OA
HETATM   10  H   UNL     1     -43.334  57.634 -54.578  1.00  0.00     0.169 HD
BRANCH   8  11
HETATM   11  C   UNL     1     -43.609  59.437 -52.793  1.00  0.00     0.046 C 
HETATM   12  C   UNL     1     -45.029  59.098 -52.304  1.00  0.00     0.026 C 
HETATM   13  C   UNL     1     -43.000  60.554 -51.926  1.00  0.00     0.026 C 
BRANCH  11  14
HETATM   14  C   UNL     1     -43.636  59.860 -54.283  1.00  0.00     0.133 C 
HETATM   15 CL   UNL     1     -45.208  59.595 -55.090  1.00  0.00    -0.129 Cl
ENDBRANCH  11  14
ENDBRANCH   8  11
ENDBRANCH   1   7
BRANCH   4  16
HETATM   16  O   UNL     1     -40.277  52.448 -54.568  1.00  0.00    -0.289 OA
BRANCH  16  17
HETATM   17  C   UNL     1     -39.963  51.669 -53.479  1.00  0.00     0.116 A 
HETATM   18  C   UNL     1     -39.821  50.297 -53.691  1.00  0.00     0.153 A 
HETATM   19  F   UNL     1     -39.940  49.790 -54.928  1.00  0.00    -0.203 F 
HETATM   20  C   UNL     1     -39.565  49.430 -52.634  1.00  0.00     0.087 A 
HETATM   21  C   UNL     1     -39.466  49.949 -51.351  1.00  0.00     0.119 A 
HETATM   22  F   UNL     1     -39.225  49.125 -50.323  1.00  0.00    -0.206 F 
HETATM   23  C   UNL     1     -39.625  51.311 -51.110  1.00  0.00     0.045 A 
HETATM   24  C   UNL     1     -39.885  52.175 -52.175  1.00  0.00     0.043 A 
ENDBRANCH  16  17
ENDBRANCH   4  16
TORSDOF 5
ENDMDL
MODEL 7
REMARK VINA RESULT:      -6.8      6.022      8.149
REMARK  5 active torsions:
REMARK  status: ('A' for Active; 'I' for Inactive)
REMARK    1  A    between atoms: C_2  and  C_3 
REMARK    2  A    between atoms: C_2  and  C_21 
REMARK       I    between atoms: C_3  and  N_4 
REMARK    3  A    between atoms: N_4  and  C_5 
REMARK    4  A    between atoms: C_8  and  O_9 
REMARK    5  A    between atoms: O_9  and  C_10 
ROOT
HETATM    1  C   UNL     1     -42.879  56.135 -54.580  1.00  0.00     0.052 A 
HETATM    2  C   UNL     1     -43.054  57.427 -55.072  1.00  0.00     0.149 A 
HETATM    3  N   UNL     1     -43.184  57.729 -56.390  1.00  0.00    -0.235 NA
HETATM    4  C   UNL     1     -43.142  56.698 -57.259  1.00  0.00     0.169 A 
HETATM    5  C   UNL     1     -43.017  55.374 -56.871  1.00  0.00     0.060 A 
HETATM    6  C   UNL     1     -42.872  55.094 -55.512  1.00  0.00     0.035 A 
ENDROOT
BRANCH   1   7
HETATM    7  N   UNL     1     -42.677  55.796 -53.224  1.00  0.00    -0.325 N 
HETATM    8  C   UNL     1     -41.555  55.199 -52.676  1.00  0.00     0.231 C 
HETATM    9  O   UNL     1     -40.527  54.958 -53.300  1.00  0.00    -0.272 OA
HETATM   10  H   UNL     1     -43.449  56.003 -52.604  1.00  0.00     0.169 HD
BRANCH   8  11
HETATM   11  C   UNL     1     -41.692  54.817 -51.183  1.00  0.00     0.046 C 
HETATM   12  C   UNL     1     -41.559  56.076 -50.307  1.00  0.00     0.026 C 
HETATM   13  C   UNL     1     -43.068  54.160 -50.965  1.00  0.00     0.026 C 
BRANCH  11  14
HETATM   14  C   UNL     1     -40.556  53.813 -50.867  1.00  0.00     0.133 C 
HETATM   15 CL   UNL     1     -39.494  54.312 -49.519  1.00  0.00    -0.129 Cl
ENDBRANCH  11  14
ENDBRANCH   8  11
ENDBRANCH   1   7
BRANCH   4  16
HETATM   16  O   UNL     1     -43.256  56.938 -58.620  1.00  0.00    -0.289 OA
BRANCH  16  17
HETATM   17  C   UNL     1     -44.502  56.797 -59.187  1.00  0.00     0.116 A 
HETATM   18  C   UNL     1     -44.703  55.703 -60.030  1.00  0.00     0.153 A 
HETATM   19  F   UNL     1     -43.720  54.811 -60.223  1.00  0.00    -0.203 F 
HETATM   20  C   UNL     1     -45.912  55.522 -60.692  1.00  0.00     0.087 A 
HETATM   21  C   UNL     1     -46.922  56.457 -60.513  1.00  0.00     0.119 A 
HETATM   22  F   UNL     1     -48.090  56.296 -61.148  1.00  0.00    -0.206 F 
HETATM   23  C   UNL     1     -46.739  57.567 -59.694  1.00  0.00     0.045 A 
HETATM   24  C   UNL     1     -45.521  57.746 -59.035  1.00  0.00     0.043 A 
ENDBRANCH  16  17
ENDBRANCH   4  16
TORSDOF 5
ENDMDL
MODEL 8
REMARK VINA RESULT:      -6.7     15.257     17.061
REMARK  5 active torsions:
REMARK  status: ('A' for Active; 'I' for Inactive)
REMARK    1  A    between atoms: C_2  and  C_3 
REMARK    2  A    between atoms: C_2  and  C_21 
REMARK       I    between atoms: C_3  and  N_4 
REMARK    3  A    between atoms: N_4  and  C_5 
REMARK    4  A    between atoms: C_8  and  O_9 
REMARK    5  A    between atoms: O_9  and  C_10 
ROOT
HETATM    1  C   UNL     1     -35.216  41.612 -54.577  1.00  0.00     0.052 A 
HETATM    2  C   UNL     1     -34.693  41.763 -55.860  1.00  0.00     0.149 A 
HETATM    3  N   UNL     1     -35.450  41.895 -56.980  1.00  0.00    -0.235 NA
HETATM    4  C   UNL     1     -36.789  41.880 -56.818  1.00  0.00     0.169 A 
HETATM    5  C   UNL     1     -37.409  41.779 -55.583  1.00  0.00     0.060 A 
HETATM    6  C   UNL     1     -36.607  41.632 -54.451  1.00  0.00     0.035 A 
ENDROOT
BRANCH   1   7
HETATM    7  N   UNL     1     -34.458  41.408 -53.404  1.00  0.00    -0.325 N 
HETATM    8  C   UNL     1     -34.026  40.196 -52.894  1.00  0.00     0.231 C 
HETATM    9  O   UNL     1     -34.177  39.117 -53.458  1.00  0.00    -0.272 OA
HETATM   10  H   UNL     1     -34.229  42.245 -52.883  1.00  0.00     0.169 HD
BRANCH   8  11
HETATM   11  C   UNL     1     -33.342  40.286 -51.509  1.00  0.00     0.046 C 
HETATM   12  C   UNL     1     -31.841  40.579 -51.686  1.00  0.00     0.026 C 
HETATM   13  C   UNL     1     -34.012  41.410 -50.699  1.00  0.00     0.026 C 
BRANCH  11  14
HETATM   14  C   UNL     1     -33.549  38.917 -50.813  1.00  0.00     0.133 C 
HETATM   15 CL   UNL     1     -34.700  38.960 -49.447  1.00  0.00    -0.129 Cl
ENDBRANCH  11  14
ENDBRANCH   8  11
ENDBRANCH   1   7
BRANCH   4  16
HETATM   16  O   UNL     1     -37.619  41.997 -57.921  1.00  0.00    -0.289 OA
BRANCH  16  17
HETATM   17  C   UNL     1     -37.733  40.904 -58.750  1.00  0.00     0.116 A 
HETATM   18  C   UNL     1     -37.441  41.092 -60.102  1.00  0.00     0.153 A 
HETATM   19  F   UNL     1     -37.020  42.288 -60.541  1.00  0.00    -0.203 F 
HETATM   20  C   UNL     1     -37.589  40.056 -61.017  1.00  0.00     0.087 A 
HETATM   21  C   UNL     1     -38.049  38.825 -60.569  1.00  0.00     0.119 A 
HETATM   22  F   UNL     1     -38.200  37.820 -61.442  1.00  0.00    -0.206 F 
HETATM   23  C   UNL     1     -38.366  38.620 -59.230  1.00  0.00     0.045 A 
HETATM   24  C   UNL     1     -38.219  39.665 -58.316  1.00  0.00     0.043 A 
ENDBRANCH  16  17
ENDBRANCH   4  16
TORSDOF 5
ENDMDL
MODEL 9
REMARK VINA RESULT:      -6.5      2.339      3.314
REMARK  5 active torsions:
REMARK  status: ('A' for Active; 'I' for Inactive)
REMARK    1  A    between atoms: C_2  and  C_3 
REMARK    2  A    between atoms: C_2  and  C_21 
REMARK       I    between atoms: C_3  and  N_4 
REMARK    3  A    between atoms: N_4  and  C_5 
REMARK    4  A    between atoms: C_8  and  O_9 
REMARK    5  A    between atoms: O_9  and  C_10 
ROOT
HETATM    1  C   UNL     1     -43.129  58.044 -51.571  1.00  0.00     0.052 A 
HETATM    2  C   UNL     1     -43.787  56.878 -51.960  1.00  0.00     0.149 A 
HETATM    3  N   UNL     1     -43.203  55.871 -52.658  1.00  0.00    -0.235 NA
HETATM    4  C   UNL     1     -41.902  56.026 -52.982  1.00  0.00     0.169 A 
HETATM    5  C   UNL     1     -41.147  57.124 -52.605  1.00  0.00     0.060 A 
HETATM    6  C   UNL     1     -41.775  58.150 -51.900  1.00  0.00     0.035 A 
ENDROOT
BRANCH   1   7
HETATM    7  N   UNL     1     -43.724  59.135 -50.902  1.00  0.00    -0.325 N 
HETATM    8  C   UNL     1     -44.199  60.302 -51.475  1.00  0.00     0.231 C 
HETATM    9  O   UNL     1     -44.244  60.508 -52.685  1.00  0.00    -0.272 OA
HETATM   10  H   UNL     1     -43.788  59.047 -49.896  1.00  0.00     0.169 HD
BRANCH   8  11
HETATM   11  C   UNL     1     -44.661  61.377 -50.464  1.00  0.00     0.046 C 
HETATM   12  C   UNL     1     -43.462  62.245 -50.040  1.00  0.00     0.026 C 
HETATM   13  C   UNL     1     -45.741  62.250 -51.128  1.00  0.00     0.026 C 
BRANCH  11  14
HETATM   14  C   UNL     1     -45.246  60.626 -49.241  1.00  0.00     0.133 C 
HETATM   15 CL   UNL     1     -44.902  61.408 -47.671  1.00  0.00    -0.129 Cl
ENDBRANCH  11  14
ENDBRANCH   8  11
ENDBRANCH   1   7
BRANCH   4  16
HETATM   16  O   UNL     1     -41.249  55.040 -53.705  1.00  0.00    -0.289 OA
BRANCH  16  17
HETATM   17  C   UNL     1     -40.705  53.992 -53.000  1.00  0.00     0.116 A 
HETATM   18  C   UNL     1     -40.290  52.875 -53.728  1.00  0.00     0.153 A 
HETATM   19  F   UNL     1     -40.383  52.872 -55.067  1.00  0.00    -0.203 F 
HETATM   20  C   UNL     1     -39.787  51.749 -53.088  1.00  0.00     0.087 A 
HETATM   21  C   UNL     1     -39.713  51.741 -51.702  1.00  0.00     0.119 A 
HETATM   22  F   UNL     1     -39.234  50.660 -51.073  1.00  0.00    -0.206 F 
HETATM   23  C   UNL     1     -40.139  52.834 -50.952  1.00  0.00     0.045 A 
HETATM   24  C   UNL     1     -40.648  53.961 -51.600  1.00  0.00     0.043 A 
ENDBRANCH  16  17
ENDBRANCH   4  16
TORSDOF 5
ENDMDL
MODEL 10
REMARK VINA RESULT:      -6.5     15.023     17.072
REMARK  5 active torsions:
REMARK  status: ('A' for Active; 'I' for Inactive)
REMARK    1  A    between atoms: C_2  and  C_3 
REMARK    2  A    between atoms: C_2  and  C_21 
REMARK       I    between atoms: C_3  and  N_4 
REMARK    3  A    between atoms: N_4  and  C_5 
REMARK    4  A    between atoms: C_8  and  O_9 
REMARK    5  A    between atoms: O_9  and  C_10 
ROOT
HETATM    1  C   UNL     1     -34.382  40.665 -52.001  1.00  0.00     0.052 A 
HETATM    2  C   UNL     1     -35.297  41.688 -51.759  1.00  0.00     0.149 A 
HETATM    3  N   UNL     1     -35.921  42.397 -52.734  1.00  0.00    -0.235 NA
HETATM    4  C   UNL     1     -35.626  42.072 -54.010  1.00  0.00     0.169 A 
HETATM    5  C   UNL     1     -34.766  41.043 -54.358  1.00  0.00     0.060 A 
HETATM    6  C   UNL     1     -34.129  40.340 -53.336  1.00  0.00     0.035 A 
ENDROOT
BRANCH   1   7
HETATM    7  N   UNL     1     -33.669  39.954 -51.011  1.00  0.00    -0.325 N 
HETATM    8  C   UNL     1     -34.199  39.113 -50.048  1.00  0.00     0.231 C 
HETATM    9  O   UNL     1     -35.384  38.800 -49.983  1.00  0.00    -0.272 OA
HETATM   10  H   UNL     1     -32.667  40.098 -51.008  1.00  0.00     0.169 HD
BRANCH   8  11
HETATM   11  C   UNL     1     -33.177  38.596 -49.009  1.00  0.00     0.046 C 
HETATM   12  C   UNL     1     -33.903  38.218 -47.705  1.00  0.00     0.026 C 
HETATM   13  C   UNL     1     -32.458  37.366 -49.593  1.00  0.00     0.026 C 
BRANCH  11  14
HETATM   14  C   UNL     1     -32.169  39.744 -48.755  1.00  0.00     0.133 C 
HETATM   15 CL   UNL     1     -31.114  39.490 -47.336  1.00  0.00    -0.129 Cl
ENDBRANCH  11  14
ENDBRANCH   8  11
ENDBRANCH   1   7
BRANCH   4  16
HETATM   16  O   UNL     1     -36.220  42.765 -55.054  1.00  0.00    -0.289 OA
BRANCH  16  17
HETATM   17  C   UNL     1     -36.796  42.024 -56.060  1.00  0.00     0.116 A 
HETATM   18  C   UNL     1     -36.147  42.006 -57.296  1.00  0.00     0.153 A 
HETATM   19  F   UNL     1     -34.981  42.652 -57.454  1.00  0.00    -0.203 F 
HETATM   20  C   UNL     1     -36.694  41.334 -58.383  1.00  0.00     0.087 A 
HETATM   21  C   UNL     1     -37.911  40.687 -58.228  1.00  0.00     0.119 A 
HETATM   22  F   UNL     1     -38.451  40.039 -59.269  1.00  0.00    -0.206 F 
HETATM   23  C   UNL     1     -38.588  40.708 -57.012  1.00  0.00     0.045 A 
HETATM   24  C   UNL     1     -38.036  41.388 -55.925  1.00  0.00     0.043 A 
ENDBRANCH  16  17
ENDBRANCH   4  16
TORSDOF 5
ENDMDL
