MODEL 1
REMARK VINA RESULT:      -8.9      0.000      0.000
REMARK  4 active torsions:
REMARK  status: ('A' for Active; 'I' for Inactive)
REMARK    1  A    between atoms: C_7  and  C_8 
REMARK    2  A    between atoms: C_11  and  O_12 
REMARK    3  A    between atoms: C_17  and  C_18 
REMARK    4  A    between atoms: C_25  and  C_26 
REMARK       I    between atoms: C_26  and  N_27 
ROOT
HETATM    1  C   UNL     1     -44.311  54.638 -50.062  1.00  0.00     0.070 C 
HETATM    2  C   UNL     1     -43.402  54.719 -51.264  1.00  0.00     0.037 C 
HETATM    3  N   UNL     1     -44.033  54.984 -52.479  1.00  0.00    -0.192 N 
HETATM    4  C   UNL     1     -43.354  55.299 -53.599  1.00  0.00     0.726 A 
HETATM    5  N   UNL     1     -41.997  55.168 -53.609  1.00  0.00    -0.083 N 
HETATM    6  N   UNL     1     -41.460  55.615 -54.758  1.00  0.00    -0.135 NA
HETATM    7  C   UNL     1     -42.566  55.945 -55.453  1.00  0.00     0.199 A 
HETATM    8  N   UNL     1     -43.749  55.765 -54.753  1.00  0.00    -0.041 NA
HETATM    9  C   UNL     1     -41.221  54.615 -52.496  1.00  0.00     0.202 C 
HETATM   10  C   UNL     1     -42.053  54.552 -51.218  1.00  0.00     0.062 C 
HETATM   11  H   UNL     1     -45.027  55.199 -52.447  1.00  0.00     0.184 HD
ENDROOT
BRANCH   7  12
HETATM   12  C   UNL     1     -42.541  56.446 -56.825  1.00  0.00     0.014 A 
HETATM   13  C   UNL     1     -42.101  57.746 -57.110  1.00  0.00     0.018 A 
HETATM   14  C   UNL     1     -42.068  58.210 -58.428  1.00  0.00     0.037 A 
HETATM   15  C   UNL     1     -42.467  57.389 -59.483  1.00  0.00     0.068 A 
HETATM   16  C   UNL     1     -42.915  56.097 -59.208  1.00  0.00     0.037 A 
HETATM   17  C   UNL     1     -42.952  55.630 -57.888  1.00  0.00     0.018 A 
BRANCH  15  18
HETATM   18  O   UNL     1     -42.377  57.963 -60.721  1.00  0.00    -0.356 OA
HETATM   19  C   UNL     1     -42.019  59.339 -60.766  1.00  0.00     0.210 C 
ENDBRANCH  15  18
ENDBRANCH   7  12
BRANCH   9  20
HETATM   20  C   UNL     1     -40.649  53.261 -52.933  1.00  0.00    -0.028 A 
HETATM   21  C   UNL     1     -41.135  52.649 -54.103  1.00  0.00     0.012 A 
HETATM   22  C   UNL     1     -40.640  51.410 -54.515  1.00  0.00     0.043 A 
HETATM   23  C   UNL     1     -39.663  50.775 -53.759  1.00  0.00     0.116 A 
HETATM   24  F   UNL     1     -39.189  49.588 -54.157  1.00  0.00    -0.206 F 
HETATM   25  C   UNL     1     -39.177  51.352 -52.593  1.00  0.00     0.043 A 
HETATM   26  C   UNL     1     -39.671  52.587 -52.175  1.00  0.00     0.012 A 
ENDBRANCH   9  20
BRANCH  10  27
HETATM   27  C   UNL     1     -41.338  54.479 -49.916  1.00  0.00     0.249 C 
HETATM   28  N   UNL     1     -41.075  55.649 -49.280  1.00  0.00    -0.366 N 
HETATM   29  H   UNL     1     -41.164  56.568 -49.688  1.00  0.00     0.159 HD
HETATM   30  H   UNL     1     -40.549  55.580 -48.416  1.00  0.00     0.159 HD
HETATM   31  O   UNL     1     -41.014  53.418 -49.396  1.00  0.00    -0.268 OA
ENDBRANCH  10  27
TORSDOF 4
ENDMDL
MODEL 2
REMARK VINA RESULT:      -8.9      3.632      7.603
REMARK  4 active torsions:
REMARK  status: ('A' for Active; 'I' for Inactive)
REMARK    1  A    between atoms: C_7  and  C_8 
REMARK    2  A    between atoms: C_11  and  O_12 
REMARK    3  A    between atoms: C_17  and  C_18 
REMARK    4  A    between atoms: C_25  and  C_26 
REMARK       I    between atoms: C_26  and  N_27 
ROOT
HETATM    1  C   UNL     1     -44.559  58.431 -57.057  1.00  0.00     0.070 C 
HETATM    2  C   UNL     1     -43.496  57.894 -56.129  1.00  0.00     0.037 C 
HETATM    3  N   UNL     1     -43.655  56.564 -55.738  1.00  0.00    -0.192 N 
HETATM    4  C   UNL     1     -42.693  55.875 -55.095  1.00  0.00     0.726 A 
HETATM    5  N   UNL     1     -41.598  56.542 -54.632  1.00  0.00    -0.083 N 
HETATM    6  N   UNL     1     -40.687  55.703 -54.105  1.00  0.00    -0.135 NA
HETATM    7  C   UNL     1     -41.328  54.523 -54.211  1.00  0.00     0.199 A 
HETATM    8  N   UNL     1     -42.568  54.603 -54.827  1.00  0.00    -0.041 NA
HETATM    9  C   UNL     1     -41.433  57.995 -54.709  1.00  0.00     0.202 C 
HETATM   10  C   UNL     1     -42.436  58.616 -55.677  1.00  0.00     0.062 C 
HETATM   11  H   UNL     1     -44.405  56.039 -56.180  1.00  0.00     0.184 HD
ENDROOT
BRANCH   7  12
HETATM   12  C   UNL     1     -40.782  53.259 -53.722  1.00  0.00     0.014 A 
HETATM   13  C   UNL     1     -40.379  53.115 -52.387  1.00  0.00     0.018 A 
HETATM   14  C   UNL     1     -39.872  51.897 -51.926  1.00  0.00     0.037 A 
HETATM   15  C   UNL     1     -39.762  50.801 -52.784  1.00  0.00     0.068 A 
HETATM   16  C   UNL     1     -40.153  50.936 -54.115  1.00  0.00     0.037 A 
HETATM   17  C   UNL     1     -40.658  52.158 -54.580  1.00  0.00     0.018 A 
BRANCH  15  18
HETATM   18  O   UNL     1     -39.259  49.669 -52.203  1.00  0.00    -0.356 OA
HETATM   19  C   UNL     1     -39.400  49.555 -50.793  1.00  0.00     0.210 C 
ENDBRANCH  15  18
ENDBRANCH   7  12
BRANCH   9  20
HETATM   20  C   UNL     1     -41.506  58.565 -53.287  1.00  0.00    -0.028 A 
HETATM   21  C   UNL     1     -40.315  58.857 -52.596  1.00  0.00     0.012 A 
HETATM   22  C   UNL     1     -40.354  59.364 -51.296  1.00  0.00     0.043 A 
HETATM   23  C   UNL     1     -41.580  59.576 -50.679  1.00  0.00     0.116 A 
HETATM   24  F   UNL     1     -41.614  60.064 -49.432  1.00  0.00    -0.206 F 
HETATM   25  C   UNL     1     -42.768  59.283 -51.333  1.00  0.00     0.043 A 
HETATM   26  C   UNL     1     -42.735  58.772 -52.631  1.00  0.00     0.012 A 
ENDBRANCH   9  20
BRANCH  10  27
HETATM   27  C   UNL     1     -42.132  59.958 -56.242  1.00  0.00     0.249 C 
HETATM   28  N   UNL     1     -42.574  61.041 -55.554  1.00  0.00    -0.366 N 
HETATM   29  H   UNL     1     -43.235  61.018 -54.791  1.00  0.00     0.159 HD
HETATM   30  H   UNL     1     -42.394  61.944 -55.977  1.00  0.00     0.159 HD
HETATM   31  O   UNL     1     -41.482  60.114 -57.269  1.00  0.00    -0.268 OA
ENDBRANCH  10  27
TORSDOF 4
ENDMDL
MODEL 3
REMARK VINA RESULT:      -8.6      3.261      7.484
REMARK  4 active torsions:
REMARK  status: ('A' for Active; 'I' for Inactive)
REMARK    1  A    between atoms: C_7  and  C_8 
REMARK    2  A    between atoms: C_11  and  O_12 
REMARK    3  A    between atoms: C_17  and  C_18 
REMARK    4  A    between atoms: C_25  and  C_26 
REMARK       I    between atoms: C_26  and  N_27 
ROOT
HETATM    1  C   UNL     1     -42.638  61.023 -53.349  1.00  0.00     0.070 C 
HETATM    2  C   UNL     1     -42.643  59.614 -53.892  1.00  0.00     0.037 C 
HETATM    3  N   UNL     1     -41.626  58.784 -53.419  1.00  0.00    -0.192 N 
HETATM    4  C   UNL     1     -41.614  57.454 -53.633  1.00  0.00     0.726 A 
HETATM    5  N   UNL     1     -42.514  56.916 -54.504  1.00  0.00    -0.083 N 
HETATM    6  N   UNL     1     -42.440  55.573 -54.533  1.00  0.00    -0.135 NA
HETATM    7  C   UNL     1     -41.408  55.350 -53.697  1.00  0.00     0.199 A 
HETATM    8  N   UNL     1     -40.885  56.499 -53.122  1.00  0.00    -0.041 NA
HETATM    9  C   UNL     1     -43.451  57.708 -55.304  1.00  0.00     0.202 C 
HETATM   10  C   UNL     1     -43.553  59.139 -54.783  1.00  0.00     0.062 C 
HETATM   11  H   UNL     1     -41.033  59.154 -52.680  1.00  0.00     0.184 HD
ENDROOT
BRANCH   7  12
HETATM   12  C   UNL     1     -40.870  54.022 -53.411  1.00  0.00     0.014 A 
HETATM   13  C   UNL     1     -40.518  53.652 -52.105  1.00  0.00     0.018 A 
HETATM   14  C   UNL     1     -40.017  52.375 -51.840  1.00  0.00     0.037 A 
HETATM   15  C   UNL     1     -39.863  51.443 -52.868  1.00  0.00     0.068 A 
HETATM   16  C   UNL     1     -40.202  51.804 -54.171  1.00  0.00     0.037 A 
HETATM   17  C   UNL     1     -40.701  53.086 -54.440  1.00  0.00     0.018 A 
BRANCH  15  18
HETATM   18  O   UNL     1     -39.371  50.230 -52.471  1.00  0.00    -0.356 OA
HETATM   19  C   UNL     1     -39.454  49.927 -51.084  1.00  0.00     0.210 C 
ENDBRANCH  15  18
ENDBRANCH   7  12
BRANCH   9  20
HETATM   20  C   UNL     1     -43.032  57.610 -56.776  1.00  0.00    -0.028 A 
HETATM   21  C   UNL     1     -42.213  58.611 -57.330  1.00  0.00     0.012 A 
HETATM   22  C   UNL     1     -41.828  58.552 -58.671  1.00  0.00     0.043 A 
HETATM   23  C   UNL     1     -42.264  57.499 -59.465  1.00  0.00     0.116 A 
HETATM   24  F   UNL     1     -41.892  57.443 -60.750  1.00  0.00    -0.206 F 
HETATM   25  C   UNL     1     -43.085  56.506 -58.946  1.00  0.00     0.043 A 
HETATM   26  C   UNL     1     -43.475  56.562 -57.607  1.00  0.00     0.012 A 
ENDBRANCH   9  20
BRANCH  10  27
HETATM   27  C   UNL     1     -44.759  59.933 -55.138  1.00  0.00     0.249 C 
HETATM   28  N   UNL     1     -45.819  59.872 -54.294  1.00  0.00    -0.366 N 
HETATM   29  H   UNL     1     -45.930  59.206 -53.543  1.00  0.00     0.159 HD
HETATM   30  H   UNL     1     -46.646  60.386 -54.576  1.00  0.00     0.159 HD
HETATM   31  O   UNL     1     -44.813  60.650 -56.131  1.00  0.00    -0.268 OA
ENDBRANCH  10  27
TORSDOF 4
ENDMDL
MODEL 4
REMARK VINA RESULT:      -8.6      4.107      7.238
REMARK  4 active torsions:
REMARK  status: ('A' for Active; 'I' for Inactive)
REMARK    1  A    between atoms: C_7  and  C_8 
REMARK    2  A    between atoms: C_11  and  O_12 
REMARK    3  A    between atoms: C_17  and  C_18 
REMARK    4  A    between atoms: C_25  and  C_26 
REMARK       I    between atoms: C_26  and  N_27 
ROOT
HETATM    1  C   UNL     1     -43.523  60.628 -50.244  1.00  0.00     0.070 C 
HETATM    2  C   UNL     1     -43.525  59.435 -51.168  1.00  0.00     0.037 C 
HETATM    3  N   UNL     1     -42.370  58.652 -51.143  1.00  0.00    -0.192 N 
HETATM    4  C   UNL     1     -42.295  57.447 -51.738  1.00  0.00     0.726 A 
HETATM    5  N   UNL     1     -43.307  57.050 -52.561  1.00  0.00    -0.083 N 
HETATM    6  N   UNL     1     -43.133  55.788 -52.995  1.00  0.00    -0.135 NA
HETATM    7  C   UNL     1     -41.937  55.488 -52.453  1.00  0.00     0.199 A 
HETATM    8  N   UNL     1     -41.403  56.495 -51.664  1.00  0.00    -0.041 NA
HETATM    9  C   UNL     1     -44.448  57.895 -52.918  1.00  0.00     0.202 C 
HETATM   10  C   UNL     1     -44.556  59.102 -51.990  1.00  0.00     0.062 C 
HETATM   11  H   UNL     1     -41.670  58.884 -50.442  1.00  0.00     0.184 HD
ENDROOT
BRANCH   7  12
HETATM   12  C   UNL     1     -41.247  54.218 -52.667  1.00  0.00     0.014 A 
HETATM   13  C   UNL     1     -41.221  53.616 -53.933  1.00  0.00     0.018 A 
HETATM   14  C   UNL     1     -40.546  52.408 -54.130  1.00  0.00     0.037 A 
HETATM   15  C   UNL     1     -39.880  51.784 -53.075  1.00  0.00     0.068 A 
HETATM   16  C   UNL     1     -39.907  52.371 -51.810  1.00  0.00     0.037 A 
HETATM   17  C   UNL     1     -40.587  53.580 -51.609  1.00  0.00     0.018 A 
BRANCH  15  18
HETATM   18  O   UNL     1     -39.253  50.614 -53.406  1.00  0.00    -0.356 OA
HETATM   19  C   UNL     1     -39.772  49.902 -54.522  1.00  0.00     0.210 C 
ENDBRANCH  15  18
ENDBRANCH   7  12
BRANCH   9  20
HETATM   20  C   UNL     1     -44.332  58.261 -54.403  1.00  0.00    -0.028 A 
HETATM   21  C   UNL     1     -45.360  57.891 -55.290  1.00  0.00     0.012 A 
HETATM   22  C   UNL     1     -45.271  58.200 -56.648  1.00  0.00     0.043 A 
HETATM   23  C   UNL     1     -44.155  58.874 -57.127  1.00  0.00     0.116 A 
HETATM   24  F   UNL     1     -44.074  59.172 -58.431  1.00  0.00    -0.206 F 
HETATM   25  C   UNL     1     -43.121  59.238 -56.276  1.00  0.00     0.043 A 
HETATM   26  C   UNL     1     -43.203  58.928 -54.918  1.00  0.00     0.012 A 
ENDBRANCH   9  20
BRANCH  10  27
HETATM   27  C   UNL     1     -45.869  59.792 -51.882  1.00  0.00     0.249 C 
HETATM   28  N   UNL     1     -46.230  60.612 -52.901  1.00  0.00    -0.366 N 
HETATM   29  H   UNL     1     -45.618  60.931 -53.638  1.00  0.00     0.159 HD
HETATM   30  H   UNL     1     -47.108  61.107 -52.789  1.00  0.00     0.159 HD
HETATM   31  O   UNL     1     -46.633  59.623 -50.939  1.00  0.00    -0.268 OA
ENDBRANCH  10  27
TORSDOF 4
ENDMDL
MODEL 5
REMARK VINA RESULT:      -7.9      3.272      4.637
REMARK  4 active torsions:
REMARK  status: ('A' for Active; 'I' for Inactive)
REMARK    1  A    between atoms: C_7  and  C_8 
REMARK    2  A    between atoms: C_11  and  O_12 
REMARK    3  A    between atoms: C_17  and  C_18 
REMARK    4  A    between atoms: C_25  and  C_26 
REMARK       I    between atoms: C_26  and  N_27 
ROOT
HETATM    1  C   UNL     1     -40.745  53.085 -51.632  1.00  0.00     0.070 C 
HETATM    2  C   UNL     1     -41.410  54.262 -52.305  1.00  0.00     0.037 C 
HETATM    3  N   UNL     1     -40.933  54.576 -53.577  1.00  0.00    -0.192 N 
HETATM    4  C   UNL     1     -41.555  55.450 -54.392  1.00  0.00     0.726 A 
HETATM    5  N   UNL     1     -42.577  56.205 -53.898  1.00  0.00    -0.083 N 
HETATM    6  N   UNL     1     -43.158  56.949 -54.856  1.00  0.00    -0.135 NA
HETATM    7  C   UNL     1     -42.385  56.656 -55.920  1.00  0.00     0.199 A 
HETATM    8  N   UNL     1     -41.392  55.724 -55.659  1.00  0.00    -0.041 NA
HETATM    9  C   UNL     1     -42.994  56.196 -52.494  1.00  0.00     0.202 C 
HETATM   10  C   UNL     1     -42.410  54.998 -51.750  1.00  0.00     0.062 C 
HETATM   11  H   UNL     1     -40.257  53.938 -53.988  1.00  0.00     0.184 HD
ENDROOT
BRANCH   7  12
HETATM   12  C   UNL     1     -42.560  57.258 -57.239  1.00  0.00     0.014 A 
HETATM   13  C   UNL     1     -42.290  58.617 -57.453  1.00  0.00     0.018 A 
HETATM   14  C   UNL     1     -42.447  59.181 -58.722  1.00  0.00     0.037 A 
HETATM   15  C   UNL     1     -42.870  58.401 -59.800  1.00  0.00     0.068 A 
HETATM   16  C   UNL     1     -43.148  57.050 -59.595  1.00  0.00     0.037 A 
HETATM   17  C   UNL     1     -42.995  56.484 -58.323  1.00  0.00     0.018 A 
BRANCH  15  18
HETATM   18  O   UNL     1     -42.973  59.074 -60.987  1.00  0.00    -0.356 OA
HETATM   19  C   UNL     1     -41.996  60.074 -61.244  1.00  0.00     0.210 C 
ENDBRANCH  15  18
ENDBRANCH   7  12
BRANCH   9  20
HETATM   20  C   UNL     1     -42.631  57.550 -51.874  1.00  0.00    -0.028 A 
HETATM   21  C   UNL     1     -43.649  58.484 -51.604  1.00  0.00     0.012 A 
HETATM   22  C   UNL     1     -43.343  59.729 -51.052  1.00  0.00     0.043 A 
HETATM   23  C   UNL     1     -42.021  60.050 -50.773  1.00  0.00     0.116 A 
HETATM   24  F   UNL     1     -41.730  61.244 -50.242  1.00  0.00    -0.206 F 
HETATM   25  C   UNL     1     -40.996  59.153 -51.043  1.00  0.00     0.043 A 
HETATM   26  C   UNL     1     -41.297  57.908 -51.599  1.00  0.00     0.012 A 
ENDBRANCH   9  20
BRANCH  10  27
HETATM   27  C   UNL     1     -43.075  54.557 -50.494  1.00  0.00     0.249 C 
HETATM   28  N   UNL     1     -44.356  54.120 -50.585  1.00  0.00    -0.366 N 
HETATM   29  H   UNL     1     -44.955  54.230 -51.391  1.00  0.00     0.159 HD
HETATM   30  H   UNL     1     -44.805  53.866 -49.712  1.00  0.00     0.159 HD
HETATM   31  O   UNL     1     -42.504  54.546 -49.410  1.00  0.00    -0.268 OA
ENDBRANCH  10  27
TORSDOF 4
ENDMDL
MODEL 6
REMARK VINA RESULT:      -7.9      2.061      2.487
REMARK  4 active torsions:
REMARK  status: ('A' for Active; 'I' for Inactive)
REMARK    1  A    between atoms: C_7  and  C_8 
REMARK    2  A    between atoms: C_11  and  O_12 
REMARK    3  A    between atoms: C_17  and  C_18 
REMARK    4  A    between atoms: C_25  and  C_26 
REMARK       I    between atoms: C_26  and  N_27 
ROOT
HETATM    1  C   UNL     1     -44.834  56.888 -50.631  1.00  0.00     0.070 C 
HETATM    2  C   UNL     1     -43.985  56.897 -51.879  1.00  0.00     0.037 C 
HETATM    3  N   UNL     1     -44.665  57.161 -53.068  1.00  0.00    -0.192 N 
HETATM    4  C   UNL     1     -44.030  57.416 -54.228  1.00  0.00     0.726 A 
HETATM    5  N   UNL     1     -42.683  57.221 -54.303  1.00  0.00    -0.083 N 
HETATM    6  N   UNL     1     -42.185  57.614 -55.489  1.00  0.00    -0.135 NA
HETATM    7  C   UNL     1     -43.309  57.978 -56.136  1.00  0.00     0.199 A 
HETATM    8  N   UNL     1     -44.462  57.871 -55.374  1.00  0.00    -0.041 NA
HETATM    9  C   UNL     1     -41.877  56.660 -53.216  1.00  0.00     0.202 C 
HETATM   10  C   UNL     1     -42.644  56.668 -51.896  1.00  0.00     0.062 C 
HETATM   11  H   UNL     1     -45.644  57.423 -52.992  1.00  0.00     0.184 HD
ENDROOT
BRANCH   7  12
HETATM   12  C   UNL     1     -43.332  58.443 -57.521  1.00  0.00     0.014 A 
HETATM   13  C   UNL     1     -44.512  58.405 -58.276  1.00  0.00     0.018 A 
HETATM   14  C   UNL     1     -44.527  58.865 -59.595  1.00  0.00     0.037 A 
HETATM   15  C   UNL     1     -43.369  59.377 -60.183  1.00  0.00     0.068 A 
HETATM   16  C   UNL     1     -42.188  59.412 -59.444  1.00  0.00     0.037 A 
HETATM   17  C   UNL     1     -42.170  58.947 -58.122  1.00  0.00     0.018 A 
BRANCH  15  18
HETATM   18  O   UNL     1     -43.524  59.801 -61.475  1.00  0.00    -0.356 OA
HETATM   19  C   UNL     1     -42.605  60.781 -61.942  1.00  0.00     0.210 C 
ENDBRANCH  15  18
ENDBRANCH   7  12
BRANCH   9  20
HETATM   20  C   UNL     1     -41.390  55.270 -53.643  1.00  0.00    -0.028 A 
HETATM   21  C   UNL     1     -40.397  55.159 -54.635  1.00  0.00     0.012 A 
HETATM   22  C   UNL     1     -39.946  53.905 -55.051  1.00  0.00     0.043 A 
HETATM   23  C   UNL     1     -40.488  52.759 -54.485  1.00  0.00     0.116 A 
HETATM   24  F   UNL     1     -40.053  51.557 -54.885  1.00  0.00    -0.206 F 
HETATM   25  C   UNL     1     -41.479  52.841 -53.516  1.00  0.00     0.043 A 
HETATM   26  C   UNL     1     -41.936  54.091 -53.099  1.00  0.00     0.012 A 
ENDBRANCH   9  20
BRANCH  10  27
HETATM   27  C   UNL     1     -41.868  56.594 -50.630  1.00  0.00     0.249 C 
HETATM   28  N   UNL     1     -41.346  57.750 -50.147  1.00  0.00    -0.366 N 
HETATM   29  H   UNL     1     -41.288  58.621 -50.655  1.00  0.00     0.159 HD
HETATM   30  H   UNL     1     -40.784  57.671 -49.307  1.00  0.00     0.159 HD
HETATM   31  O   UNL     1     -41.715  55.550 -50.006  1.00  0.00    -0.268 OA
ENDBRANCH  10  27
TORSDOF 4
ENDMDL
MODEL 7
REMARK VINA RESULT:      -7.8     14.724     18.090
REMARK  4 active torsions:
REMARK  status: ('A' for Active; 'I' for Inactive)
REMARK    1  A    between atoms: C_7  and  C_8 
REMARK    2  A    between atoms: C_11  and  O_12 
REMARK    3  A    between atoms: C_17  and  C_18 
REMARK    4  A    between atoms: C_25  and  C_26 
REMARK       I    between atoms: C_26  and  N_27 
ROOT
HETATM    1  C   UNL     1     -35.125  41.915 -51.600  1.00  0.00     0.070 C 
HETATM    2  C   UNL     1     -34.893  41.160 -52.887  1.00  0.00     0.037 C 
HETATM    3  N   UNL     1     -33.578  41.156 -53.353  1.00  0.00    -0.192 N 
HETATM    4  C   UNL     1     -33.165  40.360 -54.357  1.00  0.00     0.726 A 
HETATM    5  N   UNL     1     -34.092  39.670 -55.081  1.00  0.00    -0.083 N 
HETATM    6  N   UNL     1     -33.517  38.847 -55.976  1.00  0.00    -0.135 NA
HETATM    7  C   UNL     1     -32.214  39.137 -55.799  1.00  0.00     0.199 A 
HETATM    8  N   UNL     1     -31.971  40.065 -54.797  1.00  0.00    -0.041 NA
HETATM    9  C   UNL     1     -35.539  39.807 -54.896  1.00  0.00     0.202 C 
HETATM   10  C   UNL     1     -35.865  40.511 -53.582  1.00  0.00     0.062 C 
HETATM   11  H   UNL     1     -32.872  41.569 -52.749  1.00  0.00     0.184 HD
ENDROOT
BRANCH   7  12
HETATM   12  C   UNL     1     -31.137  38.541 -56.585  1.00  0.00     0.014 A 
HETATM   13  C   UNL     1     -31.415  37.782 -57.731  1.00  0.00     0.018 A 
HETATM   14  C   UNL     1     -30.377  37.228 -58.484  1.00  0.00     0.037 A 
HETATM   15  C   UNL     1     -29.046  37.423 -58.114  1.00  0.00     0.068 A 
HETATM   16  C   UNL     1     -28.759  38.169 -56.972  1.00  0.00     0.037 A 
HETATM   17  C   UNL     1     -29.799  38.723 -56.213  1.00  0.00     0.018 A 
BRANCH  15  18
HETATM   18  O   UNL     1     -28.130  36.834 -58.942  1.00  0.00    -0.356 OA
HETATM   19  C   UNL     1     -27.671  37.607 -60.044  1.00  0.00     0.210 C 
ENDBRANCH  15  18
ENDBRANCH   7  12
BRANCH   9  20
HETATM   20  C   UNL     1     -36.120  40.499 -56.134  1.00  0.00    -0.028 A 
HETATM   21  C   UNL     1     -37.221  39.924 -56.796  1.00  0.00     0.012 A 
HETATM   22  C   UNL     1     -37.761  40.527 -57.933  1.00  0.00     0.043 A 
HETATM   23  C   UNL     1     -37.202  41.703 -58.417  1.00  0.00     0.116 A 
HETATM   24  F   UNL     1     -37.722  42.280 -59.508  1.00  0.00    -0.206 F 
HETATM   25  C   UNL     1     -36.107  42.283 -57.791  1.00  0.00     0.043 A 
HETATM   26  C   UNL     1     -35.561  41.681 -56.657  1.00  0.00     0.012 A 
ENDBRANCH   9  20
BRANCH  10  27
HETATM   27  C   UNL     1     -37.222  40.324 -53.001  1.00  0.00     0.249 C 
HETATM   28  N   UNL     1     -38.144  41.290 -53.242  1.00  0.00    -0.366 N 
HETATM   29  H   UNL     1     -37.947  42.201 -53.630  1.00  0.00     0.159 HD
HETATM   30  H   UNL     1     -39.048  41.165 -52.801  1.00  0.00     0.159 HD
HETATM   31  O   UNL     1     -37.535  39.333 -52.352  1.00  0.00    -0.268 OA
ENDBRANCH  10  27
TORSDOF 4
ENDMDL
MODEL 8
REMARK VINA RESULT:      -7.5      3.275      4.741
REMARK  4 active torsions:
REMARK  status: ('A' for Active; 'I' for Inactive)
REMARK    1  A    between atoms: C_7  and  C_8 
REMARK    2  A    between atoms: C_11  and  O_12 
REMARK    3  A    between atoms: C_17  and  C_18 
REMARK    4  A    between atoms: C_25  and  C_26 
REMARK       I    between atoms: C_26  and  N_27 
ROOT
HETATM    1  C   UNL     1     -40.877  52.697 -53.696  1.00  0.00     0.070 C 
HETATM    2  C   UNL     1     -41.661  53.957 -53.972  1.00  0.00     0.037 C 
HETATM    3  N   UNL     1     -41.536  54.473 -55.262  1.00  0.00    -0.192 N 
HETATM    4  C   UNL     1     -42.327  55.456 -55.733  1.00  0.00     0.726 A 
HETATM    5  N   UNL     1     -43.152  56.113 -54.869  1.00  0.00    -0.083 N 
HETATM    6  N   UNL     1     -43.945  56.993 -55.506  1.00  0.00    -0.135 NA
HETATM    7  C   UNL     1     -43.500  56.878 -56.771  1.00  0.00     0.199 A 
HETATM    8  N   UNL     1     -42.504  55.928 -56.938  1.00  0.00    -0.041 NA
HETATM    9  C   UNL     1     -43.173  55.880 -53.423  1.00  0.00     0.202 C 
HETATM   10  C   UNL     1     -42.449  54.587 -53.059  1.00  0.00     0.062 C 
HETATM   11  H   UNL     1     -41.018  53.914 -55.935  1.00  0.00     0.184 HD
ENDROOT
BRANCH   7  12
HETATM   12  C   UNL     1     -44.006  57.678 -57.884  1.00  0.00     0.014 A 
HETATM   13  C   UNL     1     -43.373  57.657 -59.135  1.00  0.00     0.018 A 
HETATM   14  C   UNL     1     -43.873  58.415 -60.197  1.00  0.00     0.037 A 
HETATM   15  C   UNL     1     -45.014  59.202 -60.034  1.00  0.00     0.068 A 
HETATM   16  C   UNL     1     -45.646  59.236 -58.792  1.00  0.00     0.037 A 
HETATM   17  C   UNL     1     -45.144  58.480 -57.725  1.00  0.00     0.018 A 
BRANCH  15  18
HETATM   18  O   UNL     1     -45.402  59.885 -61.154  1.00  0.00    -0.356 OA
HETATM   19  C   UNL     1     -44.441  60.755 -61.739  1.00  0.00     0.210 C 
ENDBRANCH  15  18
ENDBRANCH   7  12
BRANCH   9  20
HETATM   20  C   UNL     1     -42.611  57.125 -52.725  1.00  0.00    -0.028 A 
HETATM   21  C   UNL     1     -41.243  57.431 -52.852  1.00  0.00     0.012 A 
HETATM   22  C   UNL     1     -40.705  58.551 -52.215  1.00  0.00     0.043 A 
HETATM   23  C   UNL     1     -41.526  59.365 -51.446  1.00  0.00     0.116 A 
HETATM   24  F   UNL     1     -41.007  60.439 -50.838  1.00  0.00    -0.206 F 
HETATM   25  C   UNL     1     -42.875  59.076 -51.293  1.00  0.00     0.043 A 
HETATM   26  C   UNL     1     -43.418  57.956 -51.924  1.00  0.00     0.012 A 
ENDBRANCH   9  20
BRANCH  10  27
HETATM   27  C   UNL     1     -42.762  53.947 -51.754  1.00  0.00     0.249 C 
HETATM   28  N   UNL     1     -44.071  53.781 -51.437  1.00  0.00    -0.366 N 
HETATM   29  H   UNL     1     -44.848  54.205 -51.923  1.00  0.00     0.159 HD
HETATM   30  H   UNL     1     -44.263  53.384 -50.524  1.00  0.00     0.159 HD
HETATM   31  O   UNL     1     -41.895  53.546 -50.986  1.00  0.00    -0.268 OA
ENDBRANCH  10  27
TORSDOF 4
ENDMDL
MODEL 9
REMARK VINA RESULT:      -7.1      3.877      4.865
REMARK  4 active torsions:
REMARK  status: ('A' for Active; 'I' for Inactive)
REMARK    1  A    between atoms: C_7  and  C_8 
REMARK    2  A    between atoms: C_11  and  O_12 
REMARK    3  A    between atoms: C_17  and  C_18 
REMARK    4  A    between atoms: C_25  and  C_26 
REMARK       I    between atoms: C_26  and  N_27 
ROOT
HETATM    1  C   UNL     1     -43.087  61.332 -50.518  1.00  0.00     0.070 C 
HETATM    2  C   UNL     1     -42.614  60.645 -51.776  1.00  0.00     0.037 C 
HETATM    3  N   UNL     1     -43.193  61.095 -52.962  1.00  0.00    -0.192 N 
HETATM    4  C   UNL     1     -42.731  60.743 -54.177  1.00  0.00     0.726 A 
HETATM    5  N   UNL     1     -41.790  59.762 -54.269  1.00  0.00    -0.083 N 
HETATM    6  N   UNL     1     -41.360  59.597 -55.533  1.00  0.00    -0.135 NA
HETATM    7  C   UNL     1     -42.144  60.473 -56.192  1.00  0.00     0.199 A 
HETATM    8  N   UNL     1     -42.995  61.199 -55.372  1.00  0.00    -0.041 NA
HETATM    9  C   UNL     1     -41.302  58.988 -53.125  1.00  0.00     0.202 C 
HETATM   10  C   UNL     1     -41.688  59.649 -51.804  1.00  0.00     0.062 C 
HETATM   11  H   UNL     1     -43.803  61.907 -52.899  1.00  0.00     0.184 HD
ENDROOT
BRANCH   7  12
HETATM   12  C   UNL     1     -42.117  60.654 -57.641  1.00  0.00     0.014 A 
HETATM   13  C   UNL     1     -41.247  61.577 -58.237  1.00  0.00     0.018 A 
HETATM   14  C   UNL     1     -41.219  61.732 -59.625  1.00  0.00     0.037 A 
HETATM   15  C   UNL     1     -42.051  60.967 -60.444  1.00  0.00     0.068 A 
HETATM   16  C   UNL     1     -42.925  60.052 -59.861  1.00  0.00     0.037 A 
HETATM   17  C   UNL     1     -42.958  59.897 -58.468  1.00  0.00     0.018 A 
BRANCH  15  18
HETATM   18  O   UNL     1     -41.916  61.212 -61.784  1.00  0.00    -0.356 OA
HETATM   19  C   UNL     1     -43.069  61.007 -62.591  1.00  0.00     0.210 C 
ENDBRANCH  15  18
ENDBRANCH   7  12
BRANCH   9  20
HETATM   20  C   UNL     1     -41.802  57.546 -53.269  1.00  0.00    -0.028 A 
HETATM   21  C   UNL     1     -40.891  56.528 -53.607  1.00  0.00     0.012 A 
HETATM   22  C   UNL     1     -41.324  55.209 -53.757  1.00  0.00     0.043 A 
HETATM   23  C   UNL     1     -42.667  54.902 -53.576  1.00  0.00     0.116 A 
HETATM   24  F   UNL     1     -43.079  53.636 -53.719  1.00  0.00    -0.206 F 
HETATM   25  C   UNL     1     -43.588  55.891 -53.257  1.00  0.00     0.043 A 
HETATM   26  C   UNL     1     -43.161  57.211 -53.110  1.00  0.00     0.012 A 
ENDBRANCH   9  20
BRANCH  10  27
HETATM   27  C   UNL     1     -40.908  59.298 -50.587  1.00  0.00     0.249 C 
HETATM   28  N   UNL     1     -41.353  58.259 -49.837  1.00  0.00    -0.366 N 
HETATM   29  H   UNL     1     -42.255  57.815 -49.931  1.00  0.00     0.159 HD
HETATM   30  H   UNL     1     -40.833  58.064 -48.989  1.00  0.00     0.159 HD
HETATM   31  O   UNL     1     -39.882  59.885 -50.265  1.00  0.00    -0.268 OA
ENDBRANCH  10  27
TORSDOF 4
ENDMDL
MODEL 10
REMARK VINA RESULT:      -7.1      3.263      4.728
REMARK  4 active torsions:
REMARK  status: ('A' for Active; 'I' for Inactive)
REMARK    1  A    between atoms: C_7  and  C_8 
REMARK    2  A    between atoms: C_11  and  O_12 
REMARK    3  A    between atoms: C_17  and  C_18 
REMARK    4  A    between atoms: C_25  and  C_26 
REMARK       I    between atoms: C_26  and  N_27 
ROOT
HETATM    1  C   UNL     1     -39.775  53.271 -51.140  1.00  0.00     0.070 C 
HETATM    2  C   UNL     1     -40.706  54.135 -51.955  1.00  0.00     0.037 C 
HETATM    3  N   UNL     1     -40.443  54.179 -53.324  1.00  0.00    -0.192 N 
HETATM    4  C   UNL     1     -41.297  54.722 -54.212  1.00  0.00     0.726 A 
HETATM    5  N   UNL     1     -42.368  55.430 -53.754  1.00  0.00    -0.083 N 
HETATM    6  N   UNL     1     -43.177  55.819 -54.756  1.00  0.00    -0.135 NA
HETATM    7  C   UNL     1     -42.495  55.375 -55.830  1.00  0.00     0.199 A 
HETATM    8  N   UNL     1     -41.332  54.686 -55.518  1.00  0.00    -0.041 NA
HETATM    9  C   UNL     1     -42.610  55.720 -52.339  1.00  0.00     0.202 C 
HETATM   10  C   UNL     1     -41.746  54.843 -51.437  1.00  0.00     0.062 C 
HETATM   11  H   UNL     1     -39.719  53.557 -53.676  1.00  0.00     0.184 HD
ENDROOT
BRANCH   7  12
HETATM   12  C   UNL     1     -42.924  55.593 -57.209  1.00  0.00     0.014 A 
HETATM   13  C   UNL     1     -43.623  54.602 -57.912  1.00  0.00     0.018 A 
HETATM   14  C   UNL     1     -44.042  54.825 -59.226  1.00  0.00     0.037 A 
HETATM   15  C   UNL     1     -43.777  56.040 -59.861  1.00  0.00     0.068 A 
HETATM   16  C   UNL     1     -43.076  57.029 -59.173  1.00  0.00     0.037 A 
HETATM   17  C   UNL     1     -42.652  56.806 -57.856  1.00  0.00     0.018 A 
BRANCH  15  18
HETATM   18  O   UNL     1     -44.249  56.131 -61.142  1.00  0.00    -0.356 OA
HETATM   19  C   UNL     1     -45.115  55.092 -61.581  1.00  0.00     0.210 C 
ENDBRANCH  15  18
ENDBRANCH   7  12
BRANCH   9  20
HETATM   20  C   UNL     1     -42.415  57.224 -52.115  1.00  0.00    -0.028 A 
HETATM   21  C   UNL     1     -43.531  58.081 -52.157  1.00  0.00     0.012 A 
HETATM   22  C   UNL     1     -43.378  59.456 -51.969  1.00  0.00     0.043 A 
HETATM   23  C   UNL     1     -42.113  59.982 -51.745  1.00  0.00     0.116 A 
HETATM   24  F   UNL     1     -41.969  61.301 -51.563  1.00  0.00    -0.206 F 
HETATM   25  C   UNL     1     -40.994  59.160 -51.713  1.00  0.00     0.043 A 
HETATM   26  C   UNL     1     -41.141  57.786 -51.904  1.00  0.00     0.012 A 
ENDBRANCH   9  20
BRANCH  10  27
HETATM   27  C   UNL     1     -42.173  54.648 -50.026  1.00  0.00     0.249 C 
HETATM   28  N   UNL     1     -43.419  54.155 -49.812  1.00  0.00    -0.366 N 
HETATM   29  H   UNL     1     -44.143  54.073 -50.511  1.00  0.00     0.159 HD
HETATM   30  H   UNL     1     -43.707  54.071 -48.843  1.00  0.00     0.159 HD
HETATM   31  O   UNL     1     -41.440  54.883 -49.073  1.00  0.00    -0.268 OA
ENDBRANCH  10  27
TORSDOF 4
ENDMDL
