MODEL 1
REMARK VINA RESULT:      -9.0      0.000      0.000
REMARK  8 active torsions:
REMARK  status: ('A' for Active; 'I' for Inactive)
REMARK    1  A    between atoms: C_5  and  C_6 
REMARK       I    between atoms: C_6  and  N_7 
REMARK    2  A    between atoms: N_7  and  N_8 
REMARK       I    between atoms: N_8  and  C_9 
REMARK    3  A    between atoms: C_9  and  C_10 
REMARK    4  A    between atoms: C_10  and  S_11 
REMARK    5  A    between atoms: S_11  and  C_12 
REMARK    6  A    between atoms: N_13  and  C_14 
REMARK    7  A    between atoms: C_21  and  C_22 
REMARK    8  A    between atoms: C_22  and  N_23 
ROOT
HETATM    1  C   UNL     1     -44.137  57.764 -53.530  1.00  0.00     0.196 A 
HETATM    2  N   UNL     1     -42.885  57.245 -53.253  1.00  0.00    -0.274 N 
HETATM    3  C   UNL     1     -42.932  55.955 -53.784  1.00  0.00     0.166 A 
HETATM    4  N   UNL     1     -44.085  55.787 -54.405  1.00  0.00    -0.131 NA
HETATM    5  N   UNL     1     -44.836  56.910 -54.239  1.00  0.00    -0.122 NA
ENDROOT
BRANCH   1   6
HETATM    6  S   UNL     1     -44.672  59.368 -53.161  1.00  0.00    -0.080 SA
BRANCH   6   7
HETATM    7  C   UNL     1     -45.406  59.084 -51.525  1.00  0.00     0.187 C 
BRANCH   7   8
HETATM    8  C   UNL     1     -44.728  59.975 -50.499  1.00  0.00     0.245 C 
HETATM    9  N   UNL     1     -45.353  59.971 -49.270  1.00  0.00    -0.267 N 
HETATM   10  H   UNL     1     -46.208  59.454 -49.060  1.00  0.00     0.190 HD
HETATM   11  O   UNL     1     -43.707  60.625 -50.737  1.00  0.00    -0.271 OA
BRANCH   9  12
HETATM   12  N   UNL     1     -44.888  60.794 -48.239  1.00  0.00    -0.263 N 
HETATM   13  C   UNL     1     -45.515  60.653 -47.012  1.00  0.00     0.270 C 
HETATM   14  O   UNL     1     -46.384  59.796 -46.843  1.00  0.00    -0.266 OA
HETATM   15  H   UNL     1     -44.258  61.546 -48.494  1.00  0.00     0.190 HD
BRANCH  13  16
HETATM   16  C   UNL     1     -45.130  61.579 -45.908  1.00  0.00     0.033 A 
HETATM   17  C   UNL     1     -45.487  62.932 -45.877  1.00  0.00     0.017 A 
HETATM   18  C   UNL     1     -45.087  63.741 -44.805  1.00  0.00     0.007 A 
HETATM   19  C   UNL     1     -44.329  63.212 -43.754  1.00  0.00    -0.062 A 
HETATM   20  C   UNL     1     -43.873  64.078 -42.617  1.00  0.00     0.048 C 
HETATM   21  C   UNL     1     -43.957  61.865 -43.796  1.00  0.00     0.007 A 
HETATM   22  C   UNL     1     -44.356  61.055 -44.862  1.00  0.00     0.017 A 
ENDBRANCH  13  16
ENDBRANCH   9  12
ENDBRANCH   7   8
ENDBRANCH   6   7
ENDBRANCH   1   6
BRANCH   2  23
HETATM   23  C   UNL     1     -41.807  57.851 -52.563  1.00  0.00     0.043 A 
HETATM   24  C   UNL     1     -40.743  58.419 -53.279  1.00  0.00     0.033 A 
HETATM   25  C   UNL     1     -39.697  59.040 -52.591  1.00  0.00     0.044 A 
HETATM   26  C   UNL     1     -39.715  59.081 -51.203  1.00  0.00     0.116 A 
HETATM   27  F   UNL     1     -38.713  59.678 -50.546  1.00  0.00    -0.206 F 
HETATM   28  C   UNL     1     -40.759  58.509 -50.483  1.00  0.00     0.044 A 
HETATM   29  C   UNL     1     -41.811  57.889 -51.160  1.00  0.00     0.033 A 
ENDBRANCH   2  23
BRANCH   3  30
HETATM   30  C   UNL     1     -41.915  54.869 -53.578  1.00  0.00     0.255 C 
HETATM   31  C   UNL     1     -40.664  55.067 -54.443  1.00  0.00     0.049 C 
BRANCH  30  32
HETATM   32  N   UNL     1     -41.446  54.675 -52.108  1.00  0.00    -0.060 N 
HETATM   33  H   UNL     1     -41.044  55.578 -51.832  1.00  0.00     0.280 HD
HETATM   34  C   UNL     1     -42.550  54.373 -51.107  1.00  0.00     0.236 C 
HETATM   35  C   UNL     1     -41.972  54.448 -49.697  1.00  0.00     0.028 C 
HETATM   36  C   UNL     1     -40.796  53.494 -49.522  1.00  0.00     0.003 C 
HETATM   37  C   UNL     1     -39.734  53.723 -50.592  1.00  0.00     0.028 C 
HETATM   38  C   UNL     1     -40.324  53.661 -51.996  1.00  0.00     0.236 C 
ENDBRANCH  30  32
ENDBRANCH   3  30
TORSDOF 8
ENDMDL
MODEL 2
REMARK VINA RESULT:      -8.9      1.245      1.999
REMARK  8 active torsions:
REMARK  status: ('A' for Active; 'I' for Inactive)
REMARK    1  A    between atoms: C_5  and  C_6 
REMARK       I    between atoms: C_6  and  N_7 
REMARK    2  A    between atoms: N_7  and  N_8 
REMARK       I    between atoms: N_8  and  C_9 
REMARK    3  A    between atoms: C_9  and  C_10 
REMARK    4  A    between atoms: C_10  and  S_11 
REMARK    5  A    between atoms: S_11  and  C_12 
REMARK    6  A    between atoms: N_13  and  C_14 
REMARK    7  A    between atoms: C_21  and  C_22 
REMARK    8  A    between atoms: C_22  and  N_23 
ROOT
HETATM    1  C   UNL     1     -43.958  58.672 -53.040  1.00  0.00     0.196 A 
HETATM    2  N   UNL     1     -42.866  57.997 -52.527  1.00  0.00    -0.274 N 
HETATM    3  C   UNL     1     -43.159  56.653 -52.770  1.00  0.00     0.166 A 
HETATM    4  N   UNL     1     -44.282  56.575 -53.458  1.00  0.00    -0.131 NA
HETATM    5  N   UNL     1     -44.783  57.831 -53.618  1.00  0.00    -0.122 NA
ENDROOT
BRANCH   1   6
HETATM    6  S   UNL     1     -44.156  60.391 -53.084  1.00  0.00    -0.080 SA
BRANCH   6   7
HETATM    7  C   UNL     1     -45.440  60.591 -51.817  1.00  0.00     0.187 C 
BRANCH   7   8
HETATM    8  C   UNL     1     -44.821  61.148 -50.547  1.00  0.00     0.245 C 
HETATM    9  N   UNL     1     -45.054  60.367 -49.434  1.00  0.00    -0.267 N 
HETATM   10  H   UNL     1     -45.614  59.512 -49.437  1.00  0.00     0.190 HD
HETATM   11  O   UNL     1     -44.160  62.188 -50.516  1.00  0.00    -0.271 OA
BRANCH   9  12
HETATM   12  N   UNL     1     -44.608  60.779 -48.175  1.00  0.00    -0.263 N 
HETATM   13  C   UNL     1     -45.547  61.388 -47.360  1.00  0.00     0.270 C 
HETATM   14  O   UNL     1     -46.721  61.489 -47.718  1.00  0.00    -0.266 OA
HETATM   15  H   UNL     1     -43.607  60.766 -48.010  1.00  0.00     0.190 HD
BRANCH  13  16
HETATM   16  C   UNL     1     -45.097  61.941 -46.050  1.00  0.00     0.033 A 
HETATM   17  C   UNL     1     -45.288  63.274 -45.668  1.00  0.00     0.017 A 
HETATM   18  C   UNL     1     -44.836  63.720 -44.420  1.00  0.00     0.007 A 
HETATM   19  C   UNL     1     -44.191  62.846 -43.538  1.00  0.00    -0.062 A 
HETATM   20  C   UNL     1     -43.679  63.323 -42.211  1.00  0.00     0.048 C 
HETATM   21  C   UNL     1     -43.984  61.519 -43.928  1.00  0.00     0.007 A 
HETATM   22  C   UNL     1     -44.435  61.070 -45.172  1.00  0.00     0.017 A 
ENDBRANCH  13  16
ENDBRANCH   9  12
ENDBRANCH   7   8
ENDBRANCH   6   7
ENDBRANCH   1   6
BRANCH   2  23
HETATM   23  C   UNL     1     -41.724  58.523 -51.874  1.00  0.00     0.043 A 
HETATM   24  C   UNL     1     -40.508  58.633 -52.564  1.00  0.00     0.033 A 
HETATM   25  C   UNL     1     -39.394  59.180 -51.921  1.00  0.00     0.044 A 
HETATM   26  C   UNL     1     -39.498  59.601 -50.602  1.00  0.00     0.116 A 
HETATM   27  F   UNL     1     -38.431  60.126 -49.989  1.00  0.00    -0.206 F 
HETATM   28  C   UNL     1     -40.697  59.483 -49.905  1.00  0.00     0.044 A 
HETATM   29  C   UNL     1     -41.817  58.942 -50.539  1.00  0.00     0.033 A 
ENDBRANCH   2  23
BRANCH   3  30
HETATM   30  C   UNL     1     -42.413  55.467 -52.228  1.00  0.00     0.255 C 
HETATM   31  C   UNL     1     -43.288  54.586 -51.328  1.00  0.00     0.049 C 
BRANCH  30  32
HETATM   32  N   UNL     1     -41.768  54.547 -53.303  1.00  0.00    -0.060 N 
HETATM   33  H   UNL     1     -42.528  54.318 -53.954  1.00  0.00     0.280 HD
HETATM   34  C   UNL     1     -40.670  55.189 -54.136  1.00  0.00     0.236 C 
HETATM   35  C   UNL     1     -40.310  54.254 -55.286  1.00  0.00     0.028 C 
HETATM   36  C   UNL     1     -39.883  52.881 -54.779  1.00  0.00     0.003 C 
HETATM   37  C   UNL     1     -40.937  52.280 -53.856  1.00  0.00     0.028 C 
HETATM   38  C   UNL     1     -41.299  53.228 -52.719  1.00  0.00     0.236 C 
ENDBRANCH  30  32
ENDBRANCH   3  30
TORSDOF 8
ENDMDL
MODEL 3
REMARK VINA RESULT:      -8.5      4.813      8.814
REMARK  8 active torsions:
REMARK  status: ('A' for Active; 'I' for Inactive)
REMARK    1  A    between atoms: C_5  and  C_6 
REMARK       I    between atoms: C_6  and  N_7 
REMARK    2  A    between atoms: N_7  and  N_8 
REMARK       I    between atoms: N_8  and  C_9 
REMARK    3  A    between atoms: C_9  and  C_10 
REMARK    4  A    between atoms: C_10  and  S_11 
REMARK    5  A    between atoms: S_11  and  C_12 
REMARK    6  A    between atoms: N_13  and  C_14 
REMARK    7  A    between atoms: C_21  and  C_22 
REMARK    8  A    between atoms: C_22  and  N_23 
ROOT
HETATM    1  C   UNL     1     -43.297  60.567 -53.163  1.00  0.00     0.196 A 
HETATM    2  N   UNL     1     -43.347  59.899 -54.372  1.00  0.00    -0.274 N 
HETATM    3  C   UNL     1     -43.367  60.924 -55.320  1.00  0.00     0.166 A 
HETATM    4  N   UNL     1     -43.236  62.083 -54.703  1.00  0.00    -0.131 NA
HETATM    5  N   UNL     1     -43.201  61.860 -53.360  1.00  0.00    -0.122 NA
ENDROOT
BRANCH   1   6
HETATM    6  S   UNL     1     -43.198  59.826 -51.601  1.00  0.00    -0.080 SA
BRANCH   6   7
HETATM    7  C   UNL     1     -41.402  59.872 -51.346  1.00  0.00     0.187 C 
BRANCH   7   8
HETATM    8  C   UNL     1     -40.753  58.704 -52.070  1.00  0.00     0.245 C 
HETATM    9  N   UNL     1     -41.332  57.487 -51.777  1.00  0.00    -0.267 N 
HETATM   10  H   UNL     1     -42.100  57.358 -51.116  1.00  0.00     0.190 HD
HETATM   11  O   UNL     1     -39.813  58.833 -52.857  1.00  0.00    -0.271 OA
BRANCH   9  12
HETATM   12  N   UNL     1     -40.805  56.307 -52.312  1.00  0.00    -0.263 N 
HETATM   13  C   UNL     1     -41.488  55.140 -52.013  1.00  0.00     0.270 C 
HETATM   14  O   UNL     1     -42.536  55.170 -51.368  1.00  0.00    -0.266 OA
HETATM   15  H   UNL     1     -39.881  56.358 -52.727  1.00  0.00     0.190 HD
BRANCH  13  16
HETATM   16  C   UNL     1     -40.909  53.843 -52.470  1.00  0.00     0.033 A 
HETATM   17  C   UNL     1     -40.281  52.933 -51.611  1.00  0.00     0.017 A 
HETATM   18  C   UNL     1     -39.760  51.735 -52.115  1.00  0.00     0.007 A 
HETATM   19  C   UNL     1     -39.859  51.429 -53.477  1.00  0.00    -0.062 A 
HETATM   20  C   UNL     1     -39.279  50.160 -54.028  1.00  0.00     0.048 C 
HETATM   21  C   UNL     1     -40.469  52.347 -54.337  1.00  0.00     0.007 A 
HETATM   22  C   UNL     1     -40.992  53.542 -53.837  1.00  0.00     0.017 A 
ENDBRANCH  13  16
ENDBRANCH   9  12
ENDBRANCH   7   8
ENDBRANCH   6   7
ENDBRANCH   1   6
BRANCH   2  23
HETATM   23  C   UNL     1     -43.401  58.505 -54.615  1.00  0.00     0.043 A 
HETATM   24  C   UNL     1     -44.532  57.767 -54.235  1.00  0.00     0.033 A 
HETATM   25  C   UNL     1     -44.589  56.397 -54.504  1.00  0.00     0.044 A 
HETATM   26  C   UNL     1     -43.521  55.775 -55.138  1.00  0.00     0.116 A 
HETATM   27  F   UNL     1     -43.578  54.463 -55.397  1.00  0.00    -0.206 F 
HETATM   28  C   UNL     1     -42.389  56.495 -55.507  1.00  0.00     0.044 A 
HETATM   29  C   UNL     1     -42.323  57.866 -55.246  1.00  0.00     0.033 A 
ENDBRANCH   2  23
BRANCH   3  30
HETATM   30  C   UNL     1     -43.634  60.773 -56.791  1.00  0.00     0.255 C 
HETATM   31  C   UNL     1     -42.344  60.735 -57.619  1.00  0.00     0.049 C 
BRANCH  30  32
HETATM   32  N   UNL     1     -44.483  59.531 -57.182  1.00  0.00    -0.060 N 
HETATM   33  H   UNL     1     -44.344  58.858 -56.420  1.00  0.00     0.280 HD
HETATM   34  C   UNL     1     -45.982  59.768 -57.275  1.00  0.00     0.236 C 
HETATM   35  C   UNL     1     -46.687  58.425 -57.429  1.00  0.00     0.028 C 
HETATM   36  C   UNL     1     -46.176  57.659 -58.644  1.00  0.00     0.003 C 
HETATM   37  C   UNL     1     -44.659  57.512 -58.607  1.00  0.00     0.028 C 
HETATM   38  C   UNL     1     -43.965  58.859 -58.440  1.00  0.00     0.236 C 
ENDBRANCH  30  32
ENDBRANCH   3  30
TORSDOF 8
ENDMDL
MODEL 4
REMARK VINA RESULT:      -8.4      5.201      8.867
REMARK  8 active torsions:
REMARK  status: ('A' for Active; 'I' for Inactive)
REMARK    1  A    between atoms: C_5  and  C_6 
REMARK       I    between atoms: C_6  and  N_7 
REMARK    2  A    between atoms: N_7  and  N_8 
REMARK       I    between atoms: N_8  and  C_9 
REMARK    3  A    between atoms: C_9  and  C_10 
REMARK    4  A    between atoms: C_10  and  S_11 
REMARK    5  A    between atoms: S_11  and  C_12 
REMARK    6  A    between atoms: N_13  and  C_14 
REMARK    7  A    between atoms: C_21  and  C_22 
REMARK    8  A    between atoms: C_22  and  N_23 
ROOT
HETATM    1  C   UNL     1     -43.992  59.591 -55.059  1.00  0.00     0.196 A 
HETATM    2  N   UNL     1     -43.645  59.321 -56.370  1.00  0.00    -0.274 N 
HETATM    3  C   UNL     1     -44.005  57.982 -56.543  1.00  0.00     0.166 A 
HETATM    4  N   UNL     1     -44.603  57.553 -55.448  1.00  0.00    -0.131 NA
HETATM    5  N   UNL     1     -44.588  58.552 -54.523  1.00  0.00    -0.122 NA
ENDROOT
BRANCH   1   6
HETATM    6  S   UNL     1     -43.837  61.122 -54.266  1.00  0.00    -0.080 SA
BRANCH   6   7
HETATM    7  C   UNL     1     -42.785  60.643 -52.867  1.00  0.00     0.187 C 
BRANCH   7   8
HETATM    8  C   UNL     1     -41.912  59.465 -53.263  1.00  0.00     0.245 C 
HETATM    9  N   UNL     1     -42.320  58.269 -52.712  1.00  0.00    -0.267 N 
HETATM   10  H   UNL     1     -43.110  58.170 -52.071  1.00  0.00     0.190 HD
HETATM   11  O   UNL     1     -40.943  59.565 -54.018  1.00  0.00    -0.271 OA
BRANCH   9  12
HETATM   12  N   UNL     1     -41.580  57.102 -52.927  1.00  0.00    -0.263 N 
HETATM   13  C   UNL     1     -42.286  55.912 -52.886  1.00  0.00     0.270 C 
HETATM   14  O   UNL     1     -43.508  55.908 -52.736  1.00  0.00    -0.266 OA
HETATM   15  H   UNL     1     -40.569  57.187 -52.923  1.00  0.00     0.190 HD
BRANCH  13  16
HETATM   16  C   UNL     1     -41.526  54.633 -53.004  1.00  0.00     0.033 A 
HETATM   17  C   UNL     1     -40.832  54.047 -51.939  1.00  0.00     0.017 A 
HETATM   18  C   UNL     1     -40.141  52.844 -52.127  1.00  0.00     0.007 A 
HETATM   19  C   UNL     1     -40.133  52.211 -53.375  1.00  0.00    -0.062 A 
HETATM   20  C   UNL     1     -39.371  50.936 -53.591  1.00  0.00     0.048 C 
HETATM   21  C   UNL     1     -40.811  52.807 -54.443  1.00  0.00     0.007 A 
HETATM   22  C   UNL     1     -41.503  54.006 -54.258  1.00  0.00     0.017 A 
ENDBRANCH  13  16
ENDBRANCH   9  12
ENDBRANCH   7   8
ENDBRANCH   6   7
ENDBRANCH   1   6
BRANCH   2  23
HETATM   23  C   UNL     1     -43.035  60.175 -57.321  1.00  0.00     0.043 A 
HETATM   24  C   UNL     1     -43.825  60.890 -58.234  1.00  0.00     0.033 A 
HETATM   25  C   UNL     1     -43.217  61.752 -59.149  1.00  0.00     0.044 A 
HETATM   26  C   UNL     1     -41.835  61.889 -59.154  1.00  0.00     0.116 A 
HETATM   27  F   UNL     1     -41.255  62.717 -60.030  1.00  0.00    -0.206 F 
HETATM   28  C   UNL     1     -41.042  61.175 -58.261  1.00  0.00     0.044 A 
HETATM   29  C   UNL     1     -41.640  60.312 -57.340  1.00  0.00     0.033 A 
ENDBRANCH   2  23
BRANCH   3  30
HETATM   30  C   UNL     1     -43.656  57.110 -57.715  1.00  0.00     0.255 C 
HETATM   31  C   UNL     1     -42.874  55.857 -57.300  1.00  0.00     0.049 C 
BRANCH  30  32
HETATM   32  N   UNL     1     -44.865  56.647 -58.576  1.00  0.00    -0.060 N 
HETATM   33  H   UNL     1     -45.430  56.058 -57.952  1.00  0.00     0.280 HD
HETATM   34  C   UNL     1     -45.782  57.758 -59.062  1.00  0.00     0.236 C 
HETATM   35  C   UNL     1     -47.030  57.135 -59.677  1.00  0.00     0.028 C 
HETATM   36  C   UNL     1     -46.680  56.177 -60.810  1.00  0.00     0.003 C 
HETATM   37  C   UNL     1     -45.676  55.124 -60.353  1.00  0.00     0.028 C 
HETATM   38  C   UNL     1     -44.439  55.757 -59.727  1.00  0.00     0.236 C 
ENDBRANCH  30  32
ENDBRANCH   3  30
TORSDOF 8
ENDMDL
MODEL 5
REMARK VINA RESULT:      -8.4      4.526      9.139
REMARK  8 active torsions:
REMARK  status: ('A' for Active; 'I' for Inactive)
REMARK    1  A    between atoms: C_5  and  C_6 
REMARK       I    between atoms: C_6  and  N_7 
REMARK    2  A    between atoms: N_7  and  N_8 
REMARK       I    between atoms: N_8  and  C_9 
REMARK    3  A    between atoms: C_9  and  C_10 
REMARK    4  A    between atoms: C_10  and  S_11 
REMARK    5  A    between atoms: S_11  and  C_12 
REMARK    6  A    between atoms: N_13  and  C_14 
REMARK    7  A    between atoms: C_21  and  C_22 
REMARK    8  A    between atoms: C_22  and  N_23 
ROOT
HETATM    1  C   UNL     1     -43.344  60.910 -52.477  1.00  0.00     0.196 A 
HETATM    2  N   UNL     1     -43.356  60.445 -53.779  1.00  0.00    -0.274 N 
HETATM    3  C   UNL     1     -43.330  61.608 -54.551  1.00  0.00     0.166 A 
HETATM    4  N   UNL     1     -43.211  62.651 -53.752  1.00  0.00    -0.131 NA
HETATM    5  N   UNL     1     -43.228  62.217 -52.462  1.00  0.00    -0.122 NA
ENDROOT
BRANCH   1   6
HETATM    6  S   UNL     1     -43.311  59.929 -51.052  1.00  0.00    -0.080 SA
BRANCH   6   7
HETATM    7  C   UNL     1     -41.528  59.931 -50.712  1.00  0.00     0.187 C 
BRANCH   7   8
HETATM    8  C   UNL     1     -40.853  58.837 -51.522  1.00  0.00     0.245 C 
HETATM    9  N   UNL     1     -41.497  57.621 -51.446  1.00  0.00    -0.267 N 
HETATM   10  H   UNL     1     -42.329  57.443 -50.879  1.00  0.00     0.190 HD
HETATM   11  O   UNL     1     -39.837  59.023 -52.196  1.00  0.00    -0.271 OA
BRANCH   9  12
HETATM   12  N   UNL     1     -40.961  56.496 -52.081  1.00  0.00    -0.263 N 
HETATM   13  C   UNL     1     -41.717  55.337 -52.018  1.00  0.00     0.270 C 
HETATM   14  O   UNL     1     -42.827  55.337 -51.485  1.00  0.00    -0.266 OA
HETATM   15  H   UNL     1     -39.997  56.553 -52.389  1.00  0.00     0.190 HD
BRANCH  13  16
HETATM   16  C   UNL     1     -41.142  54.084 -52.587  1.00  0.00     0.033 A 
HETATM   17  C   UNL     1     -41.273  53.716 -53.931  1.00  0.00     0.017 A 
HETATM   18  C   UNL     1     -40.705  52.522 -54.393  1.00  0.00     0.007 A 
HETATM   19  C   UNL     1     -40.000  51.682 -53.523  1.00  0.00    -0.062 A 
HETATM   20  C   UNL     1     -39.414  50.388 -54.003  1.00  0.00     0.048 C 
HETATM   21  C   UNL     1     -39.887  52.041 -52.176  1.00  0.00     0.007 A 
HETATM   22  C   UNL     1     -40.450  53.233 -51.713  1.00  0.00     0.017 A 
ENDBRANCH  13  16
ENDBRANCH   9  12
ENDBRANCH   7   8
ENDBRANCH   6   7
ENDBRANCH   1   6
BRANCH   2  23
HETATM   23  C   UNL     1     -43.414  59.107 -54.243  1.00  0.00     0.043 A 
HETATM   24  C   UNL     1     -42.311  58.541 -54.898  1.00  0.00     0.033 A 
HETATM   25  C   UNL     1     -42.367  57.212 -55.327  1.00  0.00     0.044 A 
HETATM   26  C   UNL     1     -43.518  56.466 -55.108  1.00  0.00     0.116 A 
HETATM   27  F   UNL     1     -43.568  55.193 -55.517  1.00  0.00    -0.206 F 
HETATM   28  C   UNL     1     -44.622  57.023 -54.470  1.00  0.00     0.044 A 
HETATM   29  C   UNL     1     -44.576  58.349 -54.035  1.00  0.00     0.033 A 
ENDBRANCH   2  23
BRANCH   3  30
HETATM   30  C   UNL     1     -43.544  61.697 -56.035  1.00  0.00     0.255 C 
HETATM   31  C   UNL     1     -44.796  62.505 -56.399  1.00  0.00     0.049 C 
BRANCH  30  32
HETATM   32  N   UNL     1     -42.351  62.289 -56.839  1.00  0.00    -0.060 N 
HETATM   33  H   UNL     1     -41.614  62.456 -56.143  1.00  0.00     0.280 HD
HETATM   34  C   UNL     1     -41.751  61.368 -57.888  1.00  0.00     0.236 C 
HETATM   35  C   UNL     1     -40.462  61.990 -58.413  1.00  0.00     0.028 C 
HETATM   36  C   UNL     1     -40.702  63.385 -58.980  1.00  0.00     0.003 C 
HETATM   37  C   UNL     1     -41.402  64.281 -57.965  1.00  0.00     0.028 C 
HETATM   38  C   UNL     1     -42.682  63.644 -57.436  1.00  0.00     0.236 C 
ENDBRANCH  30  32
ENDBRANCH   3  30
TORSDOF 8
ENDMDL
MODEL 6
REMARK VINA RESULT:      -8.3      5.164      8.753
REMARK  8 active torsions:
REMARK  status: ('A' for Active; 'I' for Inactive)
REMARK    1  A    between atoms: C_5  and  C_6 
REMARK       I    between atoms: C_6  and  N_7 
REMARK    2  A    between atoms: N_7  and  N_8 
REMARK       I    between atoms: N_8  and  C_9 
REMARK    3  A    between atoms: C_9  and  C_10 
REMARK    4  A    between atoms: C_10  and  S_11 
REMARK    5  A    between atoms: S_11  and  C_12 
REMARK    6  A    between atoms: N_13  and  C_14 
REMARK    7  A    between atoms: C_21  and  C_22 
REMARK    8  A    between atoms: C_22  and  N_23 
ROOT
HETATM    1  C   UNL     1     -45.027  58.478 -57.493  1.00  0.00     0.196 A 
HETATM    2  N   UNL     1     -44.239  59.377 -56.797  1.00  0.00    -0.274 N 
HETATM    3  C   UNL     1     -44.483  59.069 -55.457  1.00  0.00     0.166 A 
HETATM    4  N   UNL     1     -45.269  58.011 -55.396  1.00  0.00    -0.131 NA
HETATM    5  N   UNL     1     -45.613  57.650 -56.662  1.00  0.00    -0.122 NA
ENDROOT
BRANCH   1   6
HETATM    6  S   UNL     1     -45.112  58.330 -59.215  1.00  0.00    -0.080 SA
BRANCH   6   7
HETATM    7  C   UNL     1     -43.489  57.589 -59.547  1.00  0.00     0.187 C 
BRANCH   7   8
HETATM    8  C   UNL     1     -43.292  56.373 -58.658  1.00  0.00     0.245 C 
HETATM    9  N   UNL     1     -42.425  56.595 -57.609  1.00  0.00    -0.267 N 
HETATM   10  H   UNL     1     -41.929  57.473 -57.446  1.00  0.00     0.190 HD
HETATM   11  O   UNL     1     -43.864  55.297 -58.847  1.00  0.00    -0.271 OA
BRANCH   9  12
HETATM   12  N   UNL     1     -42.086  55.552 -56.740  1.00  0.00    -0.263 N 
HETATM   13  C   UNL     1     -41.721  55.919 -55.455  1.00  0.00     0.270 C 
HETATM   14  O   UNL     1     -41.764  57.097 -55.100  1.00  0.00    -0.266 OA
HETATM   15  H   UNL     1     -41.963  54.631 -57.146  1.00  0.00     0.190 HD
BRANCH  13  16
HETATM   16  C   UNL     1     -41.249  54.855 -54.522  1.00  0.00     0.033 A 
HETATM   17  C   UNL     1     -41.428  54.910 -53.135  1.00  0.00     0.017 A 
HETATM   18  C   UNL     1     -40.956  53.872 -52.323  1.00  0.00     0.007 A 
HETATM   19  C   UNL     1     -40.302  52.767 -52.881  1.00  0.00    -0.062 A 
HETATM   20  C   UNL     1     -39.769  51.665 -52.015  1.00  0.00     0.048 C 
HETATM   21  C   UNL     1     -40.107  52.722 -54.265  1.00  0.00     0.007 A 
HETATM   22  C   UNL     1     -40.579  53.756 -55.078  1.00  0.00     0.017 A 
ENDBRANCH  13  16
ENDBRANCH   9  12
ENDBRANCH   7   8
ENDBRANCH   6   7
ENDBRANCH   1   6
BRANCH   2  23
HETATM   23  C   UNL     1     -43.401  60.400 -57.304  1.00  0.00     0.043 A 
HETATM   24  C   UNL     1     -42.037  60.154 -57.514  1.00  0.00     0.033 A 
HETATM   25  C   UNL     1     -41.223  61.160 -58.041  1.00  0.00     0.044 A 
HETATM   26  C   UNL     1     -41.771  62.400 -58.345  1.00  0.00     0.116 A 
HETATM   27  F   UNL     1     -40.991  63.361 -58.852  1.00  0.00    -0.206 F 
HETATM   28  C   UNL     1     -43.121  62.658 -58.129  1.00  0.00     0.044 A 
HETATM   29  C   UNL     1     -43.944  61.659 -57.605  1.00  0.00     0.033 A 
ENDBRANCH   2  23
BRANCH   3  30
HETATM   30  C   UNL     1     -44.050  59.874 -54.265  1.00  0.00     0.255 C 
HETATM   31  C   UNL     1     -45.237  60.347 -53.416  1.00  0.00     0.049 C 
BRANCH  30  32
HETATM   32  N   UNL     1     -43.047  59.159 -53.315  1.00  0.00    -0.060 N 
HETATM   33  H   UNL     1     -42.742  58.322 -53.826  1.00  0.00     0.280 HD
HETATM   34  C   UNL     1     -41.787  59.944 -52.988  1.00  0.00     0.236 C 
HETATM   35  C   UNL     1     -40.811  59.030 -52.256  1.00  0.00     0.028 C 
HETATM   36  C   UNL     1     -41.433  58.441 -50.995  1.00  0.00     0.003 C 
HETATM   37  C   UNL     1     -42.753  57.743 -51.304  1.00  0.00     0.028 C 
HETATM   38  C   UNL     1     -43.716  58.661 -52.048  1.00  0.00     0.236 C 
ENDBRANCH  30  32
ENDBRANCH   3  30
TORSDOF 8
ENDMDL
MODEL 7
REMARK VINA RESULT:      -8.3      4.777      8.949
REMARK  8 active torsions:
REMARK  status: ('A' for Active; 'I' for Inactive)
REMARK    1  A    between atoms: C_5  and  C_6 
REMARK       I    between atoms: C_6  and  N_7 
REMARK    2  A    between atoms: N_7  and  N_8 
REMARK       I    between atoms: N_8  and  C_9 
REMARK    3  A    between atoms: C_9  and  C_10 
REMARK    4  A    between atoms: C_10  and  S_11 
REMARK    5  A    between atoms: S_11  and  C_12 
REMARK    6  A    between atoms: N_13  and  C_14 
REMARK    7  A    between atoms: C_21  and  C_22 
REMARK    8  A    between atoms: C_22  and  N_23 
ROOT
HETATM    1  C   UNL     1     -44.655  58.318 -53.897  1.00  0.00     0.196 A 
HETATM    2  N   UNL     1     -44.531  58.885 -55.152  1.00  0.00    -0.274 N 
HETATM    3  C   UNL     1     -44.305  57.792 -55.992  1.00  0.00     0.166 A 
HETATM    4  N   UNL     1     -44.394  56.681 -55.286  1.00  0.00    -0.131 NA
HETATM    5  N   UNL     1     -44.604  57.010 -53.982  1.00  0.00    -0.122 NA
ENDROOT
BRANCH   1   6
HETATM    6  S   UNL     1     -45.002  59.171 -52.432  1.00  0.00    -0.080 SA
BRANCH   6   7
HETATM    7  C   UNL     1     -43.370  59.111 -51.640  1.00  0.00     0.187 C 
BRANCH   7   8
HETATM    8  C   UNL     1     -42.967  57.664 -51.410  1.00  0.00     0.245 C 
HETATM    9  N   UNL     1     -41.816  57.302 -52.078  1.00  0.00    -0.267 N 
HETATM   10  H   UNL     1     -41.289  57.921 -52.697  1.00  0.00     0.190 HD
HETATM   11  O   UNL     1     -43.598  56.894 -50.684  1.00  0.00    -0.271 OA
BRANCH   9  12
HETATM   12  N   UNL     1     -41.352  55.984 -52.022  1.00  0.00    -0.263 N 
HETATM   13  C   UNL     1     -41.053  55.387 -53.235  1.00  0.00     0.270 C 
HETATM   14  O   UNL     1     -41.133  56.023 -54.287  1.00  0.00    -0.266 OA
HETATM   15  H   UNL     1     -41.429  55.502 -51.133  1.00  0.00     0.190 HD
BRANCH  13  16
HETATM   16  C   UNL     1     -40.656  53.950 -53.239  1.00  0.00     0.033 A 
HETATM   17  C   UNL     1     -40.186  53.275 -52.106  1.00  0.00     0.017 A 
HETATM   18  C   UNL     1     -39.832  51.923 -52.188  1.00  0.00     0.007 A 
HETATM   19  C   UNL     1     -39.942  51.227 -53.398  1.00  0.00    -0.062 A 
HETATM   20  C   UNL     1     -39.537  49.786 -53.500  1.00  0.00     0.048 C 
HETATM   21  C   UNL     1     -40.393  51.906 -54.533  1.00  0.00     0.007 A 
HETATM   22  C   UNL     1     -40.749  53.255 -54.454  1.00  0.00     0.017 A 
ENDBRANCH  13  16
ENDBRANCH   9  12
ENDBRANCH   7   8
ENDBRANCH   6   7
ENDBRANCH   1   6
BRANCH   2  23
HETATM   23  C   UNL     1     -44.583  60.252 -55.518  1.00  0.00     0.043 A 
HETATM   24  C   UNL     1     -45.791  60.820 -55.950  1.00  0.00     0.033 A 
HETATM   25  C   UNL     1     -45.840  62.177 -56.281  1.00  0.00     0.044 A 
HETATM   26  C   UNL     1     -44.690  62.950 -56.188  1.00  0.00     0.116 A 
HETATM   27  F   UNL     1     -44.740  64.250 -56.503  1.00  0.00    -0.206 F 
HETATM   28  C   UNL     1     -43.484  62.394 -55.773  1.00  0.00     0.044 A 
HETATM   29  C   UNL     1     -43.425  61.039 -55.436  1.00  0.00     0.033 A 
ENDBRANCH   2  23
BRANCH   3  30
HETATM   30  C   UNL     1     -43.888  57.848 -57.434  1.00  0.00     0.255 C 
HETATM   31  C   UNL     1     -42.367  57.745 -57.608  1.00  0.00     0.049 C 
BRANCH  30  32
HETATM   32  N   UNL     1     -44.541  56.776 -58.352  1.00  0.00    -0.060 N 
HETATM   33  H   UNL     1     -45.129  56.210 -57.729  1.00  0.00     0.280 HD
HETATM   34  C   UNL     1     -45.460  57.317 -59.435  1.00  0.00     0.236 C 
HETATM   35  C   UNL     1     -46.198  56.152 -60.085  1.00  0.00     0.028 C 
HETATM   36  C   UNL     1     -45.230  55.120 -60.652  1.00  0.00     0.003 C 
HETATM   37  C   UNL     1     -44.237  54.654 -59.593  1.00  0.00     0.028 C 
HETATM   38  C   UNL     1     -43.514  55.827 -58.940  1.00  0.00     0.236 C 
ENDBRANCH  30  32
ENDBRANCH   3  30
TORSDOF 8
ENDMDL
MODEL 8
REMARK VINA RESULT:      -8.1      4.621      8.673
REMARK  8 active torsions:
REMARK  status: ('A' for Active; 'I' for Inactive)
REMARK    1  A    between atoms: C_5  and  C_6 
REMARK       I    between atoms: C_6  and  N_7 
REMARK    2  A    between atoms: N_7  and  N_8 
REMARK       I    between atoms: N_8  and  C_9 
REMARK    3  A    between atoms: C_9  and  C_10 
REMARK    4  A    between atoms: C_10  and  S_11 
REMARK    5  A    between atoms: S_11  and  C_12 
REMARK    6  A    between atoms: N_13  and  C_14 
REMARK    7  A    between atoms: C_21  and  C_22 
REMARK    8  A    between atoms: C_22  and  N_23 
ROOT
HETATM    1  C   UNL     1     -42.143  59.936 -53.241  1.00  0.00     0.196 A 
HETATM    2  N   UNL     1     -42.879  60.319 -54.347  1.00  0.00    -0.274 N 
HETATM    3  C   UNL     1     -42.294  59.611 -55.399  1.00  0.00     0.166 A 
HETATM    4  N   UNL     1     -41.364  58.811 -54.914  1.00  0.00    -0.131 NA
HETATM    5  N   UNL     1     -41.265  59.020 -53.573  1.00  0.00    -0.122 NA
ENDROOT
BRANCH   1   6
HETATM    6  S   UNL     1     -42.428  60.444 -51.611  1.00  0.00    -0.080 SA
BRANCH   6   7
HETATM    7  C   UNL     1     -43.849  59.392 -51.199  1.00  0.00     0.187 C 
BRANCH   7   8
HETATM    8  C   UNL     1     -43.730  58.065 -51.929  1.00  0.00     0.245 C 
HETATM    9  N   UNL     1     -42.612  57.340 -51.571  1.00  0.00    -0.267 N 
HETATM   10  H   UNL     1     -41.905  57.661 -50.907  1.00  0.00     0.190 HD
HETATM   11  O   UNL     1     -44.560  57.667 -52.749  1.00  0.00    -0.271 OA
BRANCH   9  12
HETATM   12  N   UNL     1     -42.325  56.127 -52.205  1.00  0.00    -0.263 N 
HETATM   13  C   UNL     1     -41.311  55.367 -51.644  1.00  0.00     0.270 C 
HETATM   14  O   UNL     1     -40.755  55.727 -50.606  1.00  0.00    -0.266 OA
HETATM   15  H   UNL     1     -42.745  55.967 -53.114  1.00  0.00     0.190 HD
BRANCH  13  16
HETATM   16  C   UNL     1     -40.894  54.117 -52.342  1.00  0.00     0.033 A 
HETATM   17  C   UNL     1     -41.203  53.839 -53.679  1.00  0.00     0.017 A 
HETATM   18  C   UNL     1     -40.775  52.642 -54.265  1.00  0.00     0.007 A 
HETATM   19  C   UNL     1     -40.037  51.708 -53.529  1.00  0.00    -0.062 A 
HETATM   20  C   UNL     1     -39.600  50.410 -54.143  1.00  0.00     0.048 C 
HETATM   21  C   UNL     1     -39.746  51.978 -52.189  1.00  0.00     0.007 A 
HETATM   22  C   UNL     1     -40.168  53.173 -51.601  1.00  0.00     0.017 A 
ENDBRANCH  13  16
ENDBRANCH   9  12
ENDBRANCH   7   8
ENDBRANCH   6   7
ENDBRANCH   1   6
BRANCH   2  23
HETATM   23  C   UNL     1     -43.954  61.238 -54.423  1.00  0.00     0.043 A 
HETATM   24  C   UNL     1     -45.278  60.780 -54.343  1.00  0.00     0.033 A 
HETATM   25  C   UNL     1     -46.332  61.696 -54.390  1.00  0.00     0.044 A 
HETATM   26  C   UNL     1     -46.060  63.052 -54.525  1.00  0.00     0.116 A 
HETATM   27  F   UNL     1     -47.072  63.927 -54.567  1.00  0.00    -0.206 F 
HETATM   28  C   UNL     1     -44.752  63.514 -54.618  1.00  0.00     0.044 A 
HETATM   29  C   UNL     1     -43.690  62.607 -54.569  1.00  0.00     0.033 A 
ENDBRANCH   2  23
BRANCH   3  30
HETATM   30  C   UNL     1     -42.561  59.810 -56.864  1.00  0.00     0.255 C 
HETATM   31  C   UNL     1     -41.696  60.920 -57.472  1.00  0.00     0.049 C 
BRANCH  30  32
HETATM   32  N   UNL     1     -42.385  58.540 -57.745  1.00  0.00    -0.060 N 
HETATM   33  H   UNL     1     -41.507  58.112 -57.428  1.00  0.00     0.280 HD
HETATM   34  C   UNL     1     -43.462  57.479 -57.582  1.00  0.00     0.236 C 
HETATM   35  C   UNL     1     -43.028  56.217 -58.318  1.00  0.00     0.028 C 
HETATM   36  C   UNL     1     -42.749  56.494 -59.791  1.00  0.00     0.003 C 
HETATM   37  C   UNL     1     -41.747  57.631 -59.959  1.00  0.00     0.028 C 
HETATM   38  C   UNL     1     -42.184  58.884 -59.208  1.00  0.00     0.236 C 
ENDBRANCH  30  32
ENDBRANCH   3  30
TORSDOF 8
ENDMDL
MODEL 9
REMARK VINA RESULT:      -8.0      6.403     10.408
REMARK  8 active torsions:
REMARK  status: ('A' for Active; 'I' for Inactive)
REMARK    1  A    between atoms: C_5  and  C_6 
REMARK       I    between atoms: C_6  and  N_7 
REMARK    2  A    between atoms: N_7  and  N_8 
REMARK       I    between atoms: N_8  and  C_9 
REMARK    3  A    between atoms: C_9  and  C_10 
REMARK    4  A    between atoms: C_10  and  S_11 
REMARK    5  A    between atoms: S_11  and  C_12 
REMARK    6  A    between atoms: N_13  and  C_14 
REMARK    7  A    between atoms: C_21  and  C_22 
REMARK    8  A    between atoms: C_22  and  N_23 
ROOT
HETATM    1  C   UNL     1     -44.535  59.855 -56.729  1.00  0.00     0.196 A 
HETATM    2  N   UNL     1     -44.055  59.369 -57.931  1.00  0.00    -0.274 N 
HETATM    3  C   UNL     1     -43.561  60.504 -58.578  1.00  0.00     0.166 A 
HETATM    4  N   UNL     1     -43.660  61.539 -57.765  1.00  0.00    -0.131 NA
HETATM    5  N   UNL     1     -44.273  61.136 -56.619  1.00  0.00    -0.122 NA
ENDROOT
BRANCH   1   6
HETATM    6  S   UNL     1     -45.228  58.906 -55.458  1.00  0.00    -0.080 SA
BRANCH   6   7
HETATM    7  C   UNL     1     -43.744  58.580 -54.466  1.00  0.00     0.187 C 
BRANCH   7   8
HETATM    8  C   UNL     1     -43.511  57.082 -54.371  1.00  0.00     0.245 C 
HETATM    9  N   UNL     1     -42.177  56.735 -54.326  1.00  0.00    -0.267 N 
HETATM   10  H   UNL     1     -41.406  57.402 -54.384  1.00  0.00     0.190 HD
HETATM   11  O   UNL     1     -44.426  56.257 -54.321  1.00  0.00    -0.271 OA
BRANCH   9  12
HETATM   12  N   UNL     1     -41.798  55.389 -54.307  1.00  0.00    -0.263 N 
HETATM   13  C   UNL     1     -41.246  54.924 -53.125  1.00  0.00     0.270 C 
HETATM   14  O   UNL     1     -41.166  55.655 -52.137  1.00  0.00    -0.266 OA
HETATM   15  H   UNL     1     -41.788  54.897 -55.194  1.00  0.00     0.190 HD
BRANCH  13  16
HETATM   16  C   UNL     1     -40.727  53.526 -53.086  1.00  0.00     0.033 A 
HETATM   17  C   UNL     1     -40.144  52.950 -51.951  1.00  0.00     0.017 A 
HETATM   18  C   UNL     1     -39.680  51.630 -51.992  1.00  0.00     0.007 A 
HETATM   19  C   UNL     1     -39.790  50.869 -53.162  1.00  0.00    -0.062 A 
HETATM   20  C   UNL     1     -39.269  49.463 -53.222  1.00  0.00     0.048 C 
HETATM   21  C   UNL     1     -40.355  51.451 -54.300  1.00  0.00     0.007 A 
HETATM   22  C   UNL     1     -40.822  52.767 -54.262  1.00  0.00     0.017 A 
ENDBRANCH  13  16
ENDBRANCH   9  12
ENDBRANCH   7   8
ENDBRANCH   6   7
ENDBRANCH   1   6
BRANCH   2  23
HETATM   23  C   UNL     1     -44.079  58.042 -58.425  1.00  0.00     0.043 A 
HETATM   24  C   UNL     1     -45.152  57.604 -59.216  1.00  0.00     0.033 A 
HETATM   25  C   UNL     1     -45.153  56.303 -59.723  1.00  0.00     0.044 A 
HETATM   26  C   UNL     1     -44.096  55.449 -59.433  1.00  0.00     0.116 A 
HETATM   27  F   UNL     1     -44.099  54.203 -59.922  1.00  0.00    -0.206 F 
HETATM   28  C   UNL     1     -43.034  55.870 -58.639  1.00  0.00     0.044 A 
HETATM   29  C   UNL     1     -43.021  57.170 -58.130  1.00  0.00     0.033 A 
ENDBRANCH   2  23
BRANCH   3  30
HETATM   30  C   UNL     1     -43.116  60.591 -60.011  1.00  0.00     0.255 C 
HETATM   31  C   UNL     1     -44.289  60.808 -60.976  1.00  0.00     0.049 C 
BRANCH  30  32
HETATM   32  N   UNL     1     -42.054  61.688 -60.306  1.00  0.00    -0.060 N 
HETATM   33  H   UNL     1     -42.557  62.579 -60.222  1.00  0.00     0.280 HD
HETATM   34  C   UNL     1     -40.897  61.755 -59.322  1.00  0.00     0.236 C 
HETATM   35  C   UNL     1     -40.082  63.013 -59.603  1.00  0.00     0.028 C 
HETATM   36  C   UNL     1     -39.582  63.049 -61.043  1.00  0.00     0.003 C 
HETATM   37  C   UNL     1     -40.730  62.874 -62.031  1.00  0.00     0.028 C 
HETATM   38  C   UNL     1     -41.546  61.621 -61.733  1.00  0.00     0.236 C 
ENDBRANCH  30  32
ENDBRANCH   3  30
TORSDOF 8
ENDMDL
MODEL 10
REMARK VINA RESULT:      -8.0      5.241      8.928
REMARK  8 active torsions:
REMARK  status: ('A' for Active; 'I' for Inactive)
REMARK    1  A    between atoms: C_5  and  C_6 
REMARK       I    between atoms: C_6  and  N_7 
REMARK    2  A    between atoms: N_7  and  N_8 
REMARK       I    between atoms: N_8  and  C_9 
REMARK    3  A    between atoms: C_9  and  C_10 
REMARK    4  A    between atoms: C_10  and  S_11 
REMARK    5  A    between atoms: S_11  and  C_12 
REMARK    6  A    between atoms: N_13  and  C_14 
REMARK    7  A    between atoms: C_21  and  C_22 
REMARK    8  A    between atoms: C_22  and  N_23 
ROOT
HETATM    1  C   UNL     1     -44.460  57.775 -52.960  1.00  0.00     0.196 A 
HETATM    2  N   UNL     1     -43.806  56.598 -52.648  1.00  0.00    -0.274 N 
HETATM    3  C   UNL     1     -44.218  56.322 -51.342  1.00  0.00     0.166 A 
HETATM    4  N   UNL     1     -45.116  57.217 -50.977  1.00  0.00    -0.131 NA
HETATM    5  N   UNL     1     -45.260  58.125 -51.981  1.00  0.00    -0.122 NA
ENDROOT
BRANCH   1   6
HETATM    6  S   UNL     1     -44.389  58.599 -54.481  1.00  0.00    -0.080 SA
BRANCH   6   7
HETATM    7  C   UNL     1     -43.444  60.070 -53.997  1.00  0.00     0.187 C 
BRANCH   7   8
HETATM    8  C   UNL     1     -42.357  60.339 -55.024  1.00  0.00     0.245 C 
HETATM    9  N   UNL     1     -42.621  61.427 -55.830  1.00  0.00    -0.267 N 
HETATM   10  H   UNL     1     -43.473  61.989 -55.779  1.00  0.00     0.190 HD
HETATM   11  O   UNL     1     -41.331  59.663 -55.116  1.00  0.00    -0.271 OA
BRANCH   9  12
HETATM   12  N   UNL     1     -41.749  61.764 -56.870  1.00  0.00    -0.263 N 
HETATM   13  C   UNL     1     -42.336  62.128 -58.069  1.00  0.00     0.270 C 
HETATM   14  O   UNL     1     -43.561  62.210 -58.172  1.00  0.00    -0.266 OA
HETATM   15  H   UNL     1     -40.765  61.555 -56.736  1.00  0.00     0.190 HD
BRANCH  13  16
HETATM   16  C   UNL     1     -41.451  62.394 -59.240  1.00  0.00     0.033 A 
HETATM   17  C   UNL     1     -40.274  63.147 -59.162  1.00  0.00     0.017 A 
HETATM   18  C   UNL     1     -39.494  63.354 -60.307  1.00  0.00     0.007 A 
HETATM   19  C   UNL     1     -39.876  62.814 -61.540  1.00  0.00    -0.062 A 
HETATM   20  C   UNL     1     -39.061  63.055 -62.776  1.00  0.00     0.048 C 
HETATM   21  C   UNL     1     -41.062  62.078 -61.621  1.00  0.00     0.007 A 
HETATM   22  C   UNL     1     -41.841  61.868 -60.480  1.00  0.00     0.017 A 
ENDBRANCH  13  16
ENDBRANCH   9  12
ENDBRANCH   7   8
ENDBRANCH   6   7
ENDBRANCH   1   6
BRANCH   2  23
HETATM   23  C   UNL     1     -42.899  55.850 -53.438  1.00  0.00     0.043 A 
HETATM   24  C   UNL     1     -43.324  54.675 -54.075  1.00  0.00     0.033 A 
HETATM   25  C   UNL     1     -42.431  53.958 -54.875  1.00  0.00     0.044 A 
HETATM   26  C   UNL     1     -41.126  54.411 -55.027  1.00  0.00     0.116 A 
HETATM   27  F   UNL     1     -40.273  53.724 -55.796  1.00  0.00    -0.206 F 
HETATM   28  C   UNL     1     -40.691  55.568 -54.389  1.00  0.00     0.044 A 
HETATM   29  C   UNL     1     -41.577  56.294 -53.589  1.00  0.00     0.033 A 
ENDBRANCH   2  23
BRANCH   3  30
HETATM   30  C   UNL     1     -43.649  55.272 -50.431  1.00  0.00     0.255 C 
HETATM   31  C   UNL     1     -44.408  53.943 -50.522  1.00  0.00     0.049 C 
BRANCH  30  32
HETATM   32  N   UNL     1     -42.138  54.967 -50.639  1.00  0.00    -0.060 N 
HETATM   33  H   UNL     1     -41.859  55.531 -51.451  1.00  0.00     0.280 HD
HETATM   34  C   UNL     1     -41.226  55.382 -49.496  1.00  0.00     0.236 C 
HETATM   35  C   UNL     1     -39.775  55.240 -49.945  1.00  0.00     0.028 C 
HETATM   36  C   UNL     1     -39.467  53.819 -50.405  1.00  0.00     0.003 C 
HETATM   37  C   UNL     1     -40.449  53.361 -51.478  1.00  0.00     0.028 C 
HETATM   38  C   UNL     1     -41.896  53.521 -51.025  1.00  0.00     0.236 C 
ENDBRANCH  30  32
ENDBRANCH   3  30
TORSDOF 8
ENDMDL
