MODEL 1
REMARK VINA RESULT:      -7.4      0.000      0.000
REMARK  7 active torsions:
REMARK  status: ('A' for Active; 'I' for Inactive)
REMARK    1  A    between atoms: C_2  and  C_3 
REMARK    2  A    between atoms: C_3  and  N_4 
REMARK    3  A    between atoms: N_4  and  C_5 
REMARK    4  A    between atoms: C_7  and  N_8 
REMARK    5  A    between atoms: N_8  and  C_9 
REMARK    6  A    between atoms: C_9  and  C_10 
REMARK    7  A    between atoms: C_11  and  O_12 
ROOT
HETATM    1  C   UNL     1     -40.451  53.429 -53.699  1.00  0.00     0.134 A 
HETATM    2  N   UNL     1     -40.571  54.369 -52.741  1.00  0.00    -0.052 NA
HETATM    3  C   UNL     1     -40.427  53.991 -51.463  1.00  0.00     0.702 A 
HETATM    4  N   UNL     1     -40.176  52.736 -51.104  1.00  0.00    -0.189 N 
HETATM    5  H   UNL     1     -40.032  52.542 -50.123  1.00  0.00     0.184 HD
HETATM    6  C   UNL     1     -40.018  51.769 -52.019  1.00  0.00     0.062 A 
HETATM    7  C   UNL     1     -40.144  52.089 -53.384  1.00  0.00     0.032 A 
HETATM    8  C   UNL     1     -39.692  50.465 -51.616  1.00  0.00     0.031 A 
HETATM    9  C   UNL     1     -39.478  49.468 -52.568  1.00  0.00     0.002 A 
HETATM   10  C   UNL     1     -39.586  49.768 -53.922  1.00  0.00     0.001 A 
HETATM   11  C   UNL     1     -39.916  51.062 -54.330  1.00  0.00     0.017 A 
ENDROOT
BRANCH   3  12
HETATM   12  N   UNL     1     -40.412  54.997 -50.526  1.00  0.00    -0.220 N 
HETATM   13  H   UNL     1     -39.821  55.752 -50.870  1.00  0.00     0.178 HD
BRANCH  12  14
HETATM   14  C   UNL     1     -41.603  55.455 -49.828  1.00  0.00     0.179 C 
BRANCH  14  15
HETATM   15  C   UNL     1     -42.413  56.500 -50.566  1.00  0.00    -0.007 A 
HETATM   16  C   UNL     1     -41.762  57.658 -51.046  1.00  0.00     0.076 A 
HETATM   17  C   UNL     1     -42.463  58.587 -51.823  1.00  0.00     0.037 A 
HETATM   18  C   UNL     1     -43.801  58.369 -52.148  1.00  0.00     0.003 A 
HETATM   19  C   UNL     1     -44.449  57.225 -51.695  1.00  0.00     0.001 A 
HETATM   20  C   UNL     1     -43.760  56.293 -50.916  1.00  0.00     0.011 A 
BRANCH  16  21
HETATM   21  O   UNL     1     -40.443  57.794 -50.691  1.00  0.00    -0.355 OA
HETATM   22  C   UNL     1     -39.858  59.083 -50.874  1.00  0.00     0.210 C 
ENDBRANCH  16  21
ENDBRANCH  14  15
ENDBRANCH  12  14
ENDBRANCH   3  12
BRANCH   1  23
HETATM   23  N   UNL     1     -40.546  53.812 -55.042  1.00  0.00    -0.276 NA
HETATM   24  H   UNL     1     -40.636  53.002 -55.653  1.00  0.00     0.129 HD
BRANCH  23  25
HETATM   25  C   UNL     1     -41.524  54.847 -55.373  1.00  0.00     0.093 C 
BRANCH  25  26
HETATM   26  C   UNL     1     -42.926  54.238 -55.439  1.00  0.00     0.010 C 
HETATM   27  C   UNL     1     -43.845  54.761 -54.342  1.00  0.00     0.006 C 
ENDBRANCH  25  26
ENDBRANCH  23  25
ENDBRANCH   1  23
TORSDOF 7
ENDMDL
MODEL 2
REMARK VINA RESULT:      -7.2      2.286      6.329
REMARK  7 active torsions:
REMARK  status: ('A' for Active; 'I' for Inactive)
REMARK    1  A    between atoms: C_2  and  C_3 
REMARK    2  A    between atoms: C_3  and  N_4 
REMARK    3  A    between atoms: N_4  and  C_5 
REMARK    4  A    between atoms: C_7  and  N_8 
REMARK    5  A    between atoms: N_8  and  C_9 
REMARK    6  A    between atoms: C_9  and  C_10 
REMARK    7  A    between atoms: C_11  and  O_12 
ROOT
HETATM    1  C   UNL     1     -43.331  55.936 -55.381  1.00  0.00     0.134 A 
HETATM    2  N   UNL     1     -42.619  54.797 -55.488  1.00  0.00    -0.052 NA
HETATM    3  C   UNL     1     -42.213  54.197 -54.360  1.00  0.00     0.702 A 
HETATM    4  N   UNL     1     -42.481  54.677 -53.149  1.00  0.00    -0.189 N 
HETATM    5  H   UNL     1     -42.182  54.138 -52.348  1.00  0.00     0.184 HD
HETATM    6  C   UNL     1     -43.210  55.789 -52.987  1.00  0.00     0.062 A 
HETATM    7  C   UNL     1     -43.682  56.472 -54.124  1.00  0.00     0.032 A 
HETATM    8  C   UNL     1     -43.530  56.240 -51.697  1.00  0.00     0.031 A 
HETATM    9  C   UNL     1     -44.332  57.369 -51.526  1.00  0.00     0.002 A 
HETATM   10  C   UNL     1     -44.816  58.050 -52.638  1.00  0.00     0.001 A 
HETATM   11  C   UNL     1     -44.497  57.611 -53.924  1.00  0.00     0.017 A 
ENDROOT
BRANCH   3  12
HETATM   12  N   UNL     1     -41.616  52.967 -54.502  1.00  0.00    -0.220 N 
HETATM   13  H   UNL     1     -41.952  52.541 -55.364  1.00  0.00     0.178 HD
BRANCH  12  14
HETATM   14  C   UNL     1     -40.205  52.730 -54.241  1.00  0.00     0.179 C 
BRANCH  14  15
HETATM   15  C   UNL     1     -39.917  51.695 -53.174  1.00  0.00    -0.007 A 
HETATM   16  C   UNL     1     -40.013  52.068 -51.815  1.00  0.00     0.076 A 
HETATM   17  C   UNL     1     -39.859  51.107 -50.809  1.00  0.00     0.037 A 
HETATM   18  C   UNL     1     -39.629  49.773 -51.140  1.00  0.00     0.003 A 
HETATM   19  C   UNL     1     -39.548  49.390 -52.474  1.00  0.00     0.001 A 
HETATM   20  C   UNL     1     -39.697  50.341 -53.485  1.00  0.00     0.011 A 
BRANCH  16  21
HETATM   21  O   UNL     1     -40.251  53.399 -51.574  1.00  0.00    -0.355 OA
HETATM   22  C   UNL     1     -39.922  53.885 -50.273  1.00  0.00     0.210 C 
ENDBRANCH  16  21
ENDBRANCH  14  15
ENDBRANCH  12  14
ENDBRANCH   3  12
BRANCH   1  23
HETATM   23  N   UNL     1     -43.807  56.550 -56.545  1.00  0.00    -0.276 NA
HETATM   24  H   UNL     1     -44.619  57.134 -56.350  1.00  0.00     0.129 HD
BRANCH  23  25
HETATM   25  C   UNL     1     -42.831  57.248 -57.380  1.00  0.00     0.093 C 
BRANCH  25  26
HETATM   26  C   UNL     1     -43.249  57.167 -58.850  1.00  0.00     0.010 C 
HETATM   27  C   UNL     1     -42.800  55.873 -59.517  1.00  0.00     0.006 C 
ENDBRANCH  25  26
ENDBRANCH  23  25
ENDBRANCH   1  23
TORSDOF 7
ENDMDL
MODEL 3
REMARK VINA RESULT:      -7.2      2.270      4.746
REMARK  7 active torsions:
REMARK  status: ('A' for Active; 'I' for Inactive)
REMARK    1  A    between atoms: C_2  and  C_3 
REMARK    2  A    between atoms: C_3  and  N_4 
REMARK    3  A    between atoms: N_4  and  C_5 
REMARK    4  A    between atoms: C_7  and  N_8 
REMARK    5  A    between atoms: N_8  and  C_9 
REMARK    6  A    between atoms: C_9  and  C_10 
REMARK    7  A    between atoms: C_11  and  O_12 
ROOT
HETATM    1  C   UNL     1     -40.230  53.515 -52.223  1.00  0.00     0.134 A 
HETATM    2  N   UNL     1     -40.539  54.328 -53.253  1.00  0.00    -0.052 NA
HETATM    3  C   UNL     1     -40.570  53.802 -54.486  1.00  0.00     0.702 A 
HETATM    4  N   UNL     1     -40.310  52.522 -54.733  1.00  0.00    -0.189 N 
HETATM    5  H   UNL     1     -40.404  52.193 -55.683  1.00  0.00     0.184 HD
HETATM    6  C   UNL     1     -40.027  51.666 -53.741  1.00  0.00     0.062 A 
HETATM    7  C   UNL     1     -39.984  52.140 -52.417  1.00  0.00     0.032 A 
HETATM    8  C   UNL     1     -39.816  50.307 -54.023  1.00  0.00     0.031 A 
HETATM    9  C   UNL     1     -39.571  49.405 -52.987  1.00  0.00     0.002 A 
HETATM   10  C   UNL     1     -39.536  49.853 -51.671  1.00  0.00     0.001 A 
HETATM   11  C   UNL     1     -39.740  51.204 -51.384  1.00  0.00     0.017 A 
ENDROOT
BRANCH   3  12
HETATM   12  N   UNL     1     -41.028  54.622 -55.489  1.00  0.00    -0.220 N 
HETATM   13  H   UNL     1     -40.425  54.508 -56.302  1.00  0.00     0.178 HD
BRANCH  12  14
HETATM   14  C   UNL     1     -42.437  54.767 -55.820  1.00  0.00     0.179 C 
BRANCH  14  15
HETATM   15  C   UNL     1     -42.750  55.860 -56.821  1.00  0.00    -0.007 A 
HETATM   16  C   UNL     1     -42.458  57.201 -56.484  1.00  0.00     0.076 A 
HETATM   17  C   UNL     1     -42.636  58.217 -57.430  1.00  0.00     0.037 A 
HETATM   18  C   UNL     1     -43.081  57.914 -58.715  1.00  0.00     0.003 A 
HETATM   19  C   UNL     1     -43.356  56.596 -59.064  1.00  0.00     0.001 A 
HETATM   20  C   UNL     1     -43.186  55.575 -58.128  1.00  0.00     0.011 A 
BRANCH  16  21
HETATM   21  O   UNL     1     -42.015  57.413 -55.202  1.00  0.00    -0.355 OA
HETATM   22  C   UNL     1     -42.883  58.145 -54.337  1.00  0.00     0.210 C 
ENDBRANCH  16  21
ENDBRANCH  14  15
ENDBRANCH  12  14
ENDBRANCH   3  12
BRANCH   1  23
HETATM   23  N   UNL     1     -40.242  54.033 -50.923  1.00  0.00    -0.276 NA
HETATM   24  H   UNL     1     -39.305  54.289 -50.618  1.00  0.00     0.129 HD
BRANCH  23  25
HETATM   25  C   UNL     1     -41.211  55.090 -50.634  1.00  0.00     0.093 C 
BRANCH  25  26
HETATM   26  C   UNL     1     -41.308  55.309 -49.122  1.00  0.00     0.010 C 
HETATM   27  C   UNL     1     -40.568  54.241 -48.326  1.00  0.00     0.006 C 
ENDBRANCH  25  26
ENDBRANCH  23  25
ENDBRANCH   1  23
TORSDOF 7
ENDMDL
MODEL 4
REMARK VINA RESULT:      -7.1      2.702      5.726
REMARK  7 active torsions:
REMARK  status: ('A' for Active; 'I' for Inactive)
REMARK    1  A    between atoms: C_2  and  C_3 
REMARK    2  A    between atoms: C_3  and  N_4 
REMARK    3  A    between atoms: N_4  and  C_5 
REMARK    4  A    between atoms: C_7  and  N_8 
REMARK    5  A    between atoms: N_8  and  C_9 
REMARK    6  A    between atoms: C_9  and  C_10 
REMARK    7  A    between atoms: C_11  and  O_12 
ROOT
HETATM    1  C   UNL     1     -40.370  53.157 -52.933  1.00  0.00     0.134 A 
HETATM    2  N   UNL     1     -40.674  53.404 -54.222  1.00  0.00    -0.052 NA
HETATM    3  C   UNL     1     -41.297  54.554 -54.515  1.00  0.00     0.702 A 
HETATM    4  N   UNL     1     -41.626  55.454 -53.594  1.00  0.00    -0.189 N 
HETATM    5  H   UNL     1     -42.049  56.317 -53.903  1.00  0.00     0.184 HD
HETATM    6  C   UNL     1     -41.320  55.271 -52.303  1.00  0.00     0.062 A 
HETATM    7  C   UNL     1     -40.656  54.091 -51.915  1.00  0.00     0.032 A 
HETATM    8  C   UNL     1     -41.624  56.264 -51.359  1.00  0.00     0.031 A 
HETATM    9  C   UNL     1     -41.261  56.098 -50.022  1.00  0.00     0.002 A 
HETATM   10  C   UNL     1     -40.595  54.944 -49.622  1.00  0.00     0.001 A 
HETATM   11  C   UNL     1     -40.294  53.949 -50.555  1.00  0.00     0.017 A 
ENDROOT
BRANCH   3  12
HETATM   12  N   UNL     1     -41.461  54.837 -55.851  1.00  0.00    -0.220 N 
HETATM   13  H   UNL     1     -40.841  54.234 -56.389  1.00  0.00     0.178 HD
BRANCH  12  14
HETATM   14  C   UNL     1     -42.762  55.040 -56.469  1.00  0.00     0.179 C 
BRANCH  14  15
HETATM   15  C   UNL     1     -42.798  56.101 -57.549  1.00  0.00    -0.007 A 
HETATM   16  C   UNL     1     -42.473  57.434 -57.212  1.00  0.00     0.076 A 
HETATM   17  C   UNL     1     -42.393  58.412 -58.210  1.00  0.00     0.037 A 
HETATM   18  C   UNL     1     -42.612  58.076 -59.545  1.00  0.00     0.003 A 
HETATM   19  C   UNL     1     -42.917  56.764 -59.892  1.00  0.00     0.001 A 
HETATM   20  C   UNL     1     -43.003  55.782 -58.904  1.00  0.00     0.011 A 
BRANCH  16  21
HETATM   21  O   UNL     1     -42.262  57.680 -55.877  1.00  0.00    -0.355 OA
HETATM   22  C   UNL     1     -42.311  59.044 -55.461  1.00  0.00     0.210 C 
ENDBRANCH  16  21
ENDBRANCH  14  15
ENDBRANCH  12  14
ENDBRANCH   3  12
BRANCH   1  23
HETATM   23  N   UNL     1     -39.674  51.986 -52.611  1.00  0.00    -0.276 NA
HETATM   24  H   UNL     1     -39.823  51.722 -51.639  1.00  0.00     0.129 HD
BRANCH  23  25
HETATM   25  C   UNL     1     -39.836  50.845 -53.511  1.00  0.00     0.093 C 
BRANCH  25  26
HETATM   26  C   UNL     1     -39.671  49.539 -52.731  1.00  0.00     0.010 C 
HETATM   27  C   UNL     1     -39.628  49.756 -51.224  1.00  0.00     0.006 C 
ENDBRANCH  25  26
ENDBRANCH  23  25
ENDBRANCH   1  23
TORSDOF 7
ENDMDL
MODEL 5
REMARK VINA RESULT:      -7.1      1.810      6.350
REMARK  7 active torsions:
REMARK  status: ('A' for Active; 'I' for Inactive)
REMARK    1  A    between atoms: C_2  and  C_3 
REMARK    2  A    between atoms: C_3  and  N_4 
REMARK    3  A    between atoms: N_4  and  C_5 
REMARK    4  A    between atoms: C_7  and  N_8 
REMARK    5  A    between atoms: N_8  and  C_9 
REMARK    6  A    between atoms: C_9  and  C_10 
REMARK    7  A    between atoms: C_11  and  O_12 
ROOT
HETATM    1  C   UNL     1     -42.973  56.354 -52.198  1.00  0.00     0.134 A 
HETATM    2  N   UNL     1     -42.463  55.146 -51.891  1.00  0.00    -0.052 NA
HETATM    3  C   UNL     1     -41.411  55.096 -51.061  1.00  0.00     0.702 A 
HETATM    4  N   UNL     1     -40.855  56.182 -50.533  1.00  0.00    -0.189 N 
HETATM    5  H   UNL     1     -40.097  56.056 -49.877  1.00  0.00     0.184 HD
HETATM    6  C   UNL     1     -41.343  57.405 -50.782  1.00  0.00     0.062 A 
HETATM    7  C   UNL     1     -42.453  57.539 -51.637  1.00  0.00     0.032 A 
HETATM    8  C   UNL     1     -40.775  58.529 -50.164  1.00  0.00     0.031 A 
HETATM    9  C   UNL     1     -41.313  59.798 -50.382  1.00  0.00     0.002 A 
HETATM   10  C   UNL     1     -42.417  59.949 -51.215  1.00  0.00     0.001 A 
HETATM   11  C   UNL     1     -42.983  58.836 -51.838  1.00  0.00     0.017 A 
ENDROOT
BRANCH   3  12
HETATM   12  N   UNL     1     -41.008  53.845 -50.657  1.00  0.00    -0.220 N 
HETATM   13  H   UNL     1     -41.803  53.211 -50.727  1.00  0.00     0.178 HD
BRANCH  12  14
HETATM   14  C   UNL     1     -39.744  53.247 -51.056  1.00  0.00     0.179 C 
BRANCH  14  15
HETATM   15  C   UNL     1     -39.863  52.057 -51.985  1.00  0.00    -0.007 A 
HETATM   16  C   UNL     1     -40.100  52.283 -53.359  1.00  0.00     0.076 A 
HETATM   17  C   UNL     1     -40.106  51.209 -54.257  1.00  0.00     0.037 A 
HETATM   18  C   UNL     1     -39.861  49.913 -53.807  1.00  0.00     0.003 A 
HETATM   19  C   UNL     1     -39.611  49.680 -52.459  1.00  0.00     0.001 A 
HETATM   20  C   UNL     1     -39.605  50.743 -51.555  1.00  0.00     0.011 A 
BRANCH  16  21
HETATM   21  O   UNL     1     -40.323  53.588 -53.723  1.00  0.00    -0.355 OA
HETATM   22  C   UNL     1     -40.166  53.905 -55.105  1.00  0.00     0.210 C 
ENDBRANCH  16  21
ENDBRANCH  14  15
ENDBRANCH  12  14
ENDBRANCH   3  12
BRANCH   1  23
HETATM   23  N   UNL     1     -44.103  56.424 -53.022  1.00  0.00    -0.276 NA
HETATM   24  H   UNL     1     -44.447  57.380 -53.098  1.00  0.00     0.129 HD
BRANCH  23  25
HETATM   25  C   UNL     1     -44.017  55.777 -54.329  1.00  0.00     0.093 C 
BRANCH  25  26
HETATM   26  C   UNL     1     -43.391  56.735 -55.345  1.00  0.00     0.010 C 
HETATM   27  C   UNL     1     -42.853  56.015 -56.575  1.00  0.00     0.006 C 
ENDBRANCH  25  26
ENDBRANCH  23  25
ENDBRANCH   1  23
TORSDOF 7
ENDMDL
MODEL 6
REMARK VINA RESULT:      -7.0      2.035      7.045
REMARK  7 active torsions:
REMARK  status: ('A' for Active; 'I' for Inactive)
REMARK    1  A    between atoms: C_2  and  C_3 
REMARK    2  A    between atoms: C_3  and  N_4 
REMARK    3  A    between atoms: N_4  and  C_5 
REMARK    4  A    between atoms: C_7  and  N_8 
REMARK    5  A    between atoms: N_8  and  C_9 
REMARK    6  A    between atoms: C_9  and  C_10 
REMARK    7  A    between atoms: C_11  and  O_12 
ROOT
HETATM    1  C   UNL     1     -42.930  56.886 -51.972  1.00  0.00     0.134 A 
HETATM    2  N   UNL     1     -42.527  55.626 -52.228  1.00  0.00    -0.052 NA
HETATM    3  C   UNL     1     -42.926  55.056 -53.374  1.00  0.00     0.702 A 
HETATM    4  N   UNL     1     -43.699  55.677 -54.260  1.00  0.00    -0.189 N 
HETATM    5  H   UNL     1     -43.913  55.196 -55.122  1.00  0.00     0.184 HD
HETATM    6  C   UNL     1     -44.102  56.940 -54.068  1.00  0.00     0.062 A 
HETATM    7  C   UNL     1     -43.716  57.611 -52.892  1.00  0.00     0.032 A 
HETATM    8  C   UNL     1     -44.866  57.592 -55.047  1.00  0.00     0.031 A 
HETATM    9  C   UNL     1     -45.244  58.924 -54.872  1.00  0.00     0.002 A 
HETATM   10  C   UNL     1     -44.863  59.608 -53.722  1.00  0.00     0.001 A 
HETATM   11  C   UNL     1     -44.108  58.963 -52.740  1.00  0.00     0.017 A 
ENDROOT
BRANCH   3  12
HETATM   12  N   UNL     1     -42.380  53.829 -53.669  1.00  0.00    -0.220 N 
HETATM   13  H   UNL     1     -43.022  53.327 -54.280  1.00  0.00     0.178 HD
BRANCH  12  14
HETATM   14  C   UNL     1     -40.979  53.641 -54.009  1.00  0.00     0.179 C 
BRANCH  14  15
HETATM   15  C   UNL     1     -40.373  52.340 -53.526  1.00  0.00    -0.007 A 
HETATM   16  C   UNL     1     -40.003  52.220 -52.167  1.00  0.00     0.076 A 
HETATM   17  C   UNL     1     -39.543  50.995 -51.670  1.00  0.00     0.037 A 
HETATM   18  C   UNL     1     -39.464  49.881 -52.504  1.00  0.00     0.003 A 
HETATM   19  C   UNL     1     -39.840  49.982 -53.839  1.00  0.00     0.001 A 
HETATM   20  C   UNL     1     -40.297  51.199 -54.345  1.00  0.00     0.011 A 
BRANCH  16  21
HETATM   21  O   UNL     1     -40.120  53.360 -51.411  1.00  0.00    -0.355 OA
HETATM   22  C   UNL     1     -40.285  53.184 -50.005  1.00  0.00     0.210 C 
ENDBRANCH  16  21
ENDBRANCH  14  15
ENDBRANCH  12  14
ENDBRANCH   3  12
BRANCH   1  23
HETATM   23  N   UNL     1     -42.483  57.518 -50.806  1.00  0.00    -0.276 NA
HETATM   24  H   UNL     1     -43.032  57.233 -49.997  1.00  0.00     0.129 HD
BRANCH  23  25
HETATM   25  C   UNL     1     -41.048  57.470 -50.529  1.00  0.00     0.093 C 
BRANCH  25  26
HETATM   26  C   UNL     1     -40.440  58.866 -50.682  1.00  0.00     0.010 C 
HETATM   27  C   UNL     1     -41.435  59.977 -50.372  1.00  0.00     0.006 C 
ENDBRANCH  25  26
ENDBRANCH  23  25
ENDBRANCH   1  23
TORSDOF 7
ENDMDL
MODEL 7
REMARK VINA RESULT:      -7.0      2.048      4.040
REMARK  7 active torsions:
REMARK  status: ('A' for Active; 'I' for Inactive)
REMARK    1  A    between atoms: C_2  and  C_3 
REMARK    2  A    between atoms: C_3  and  N_4 
REMARK    3  A    between atoms: N_4  and  C_5 
REMARK    4  A    between atoms: C_7  and  N_8 
REMARK    5  A    between atoms: N_8  and  C_9 
REMARK    6  A    between atoms: C_9  and  C_10 
REMARK    7  A    between atoms: C_11  and  O_12 
ROOT
HETATM    1  C   UNL     1     -40.254  53.524 -52.188  1.00  0.00     0.134 A 
HETATM    2  N   UNL     1     -40.559  54.333 -53.221  1.00  0.00    -0.052 NA
HETATM    3  C   UNL     1     -40.567  53.807 -54.454  1.00  0.00     0.702 A 
HETATM    4  N   UNL     1     -40.289  52.531 -54.698  1.00  0.00    -0.189 N 
HETATM    5  H   UNL     1     -40.366  52.201 -55.650  1.00  0.00     0.184 HD
HETATM    6  C   UNL     1     -40.009  51.677 -53.704  1.00  0.00     0.062 A 
HETATM    7  C   UNL     1     -39.990  52.151 -52.379  1.00  0.00     0.032 A 
HETATM    8  C   UNL     1     -39.779  50.322 -53.983  1.00  0.00     0.031 A 
HETATM    9  C   UNL     1     -39.537  49.422 -52.945  1.00  0.00     0.002 A 
HETATM   10  C   UNL     1     -39.525  49.869 -51.627  1.00  0.00     0.001 A 
HETATM   11  C   UNL     1     -39.748  51.218 -51.343  1.00  0.00     0.017 A 
ENDROOT
BRANCH   3  12
HETATM   12  N   UNL     1     -41.021  54.623 -55.464  1.00  0.00    -0.220 N 
HETATM   13  H   UNL     1     -40.465  54.446 -56.299  1.00  0.00     0.178 HD
BRANCH  12  14
HETATM   14  C   UNL     1     -42.433  54.845 -55.735  1.00  0.00     0.179 C 
BRANCH  14  15
HETATM   15  C   UNL     1     -43.016  56.092 -55.105  1.00  0.00    -0.007 A 
HETATM   16  C   UNL     1     -42.914  57.321 -55.795  1.00  0.00     0.076 A 
HETATM   17  C   UNL     1     -43.538  58.466 -55.287  1.00  0.00     0.037 A 
HETATM   18  C   UNL     1     -44.281  58.401 -54.110  1.00  0.00     0.003 A 
HETATM   19  C   UNL     1     -44.403  57.194 -53.430  1.00  0.00     0.001 A 
HETATM   20  C   UNL     1     -43.782  56.046 -53.926  1.00  0.00     0.011 A 
BRANCH  16  21
HETATM   21  O   UNL     1     -42.173  57.299 -56.950  1.00  0.00    -0.355 OA
HETATM   22  C   UNL     1     -42.844  57.680 -58.151  1.00  0.00     0.210 C 
ENDBRANCH  16  21
ENDBRANCH  14  15
ENDBRANCH  12  14
ENDBRANCH   3  12
BRANCH   1  23
HETATM   23  N   UNL     1     -40.290  54.041 -50.887  1.00  0.00    -0.276 NA
HETATM   24  H   UNL     1     -39.576  54.755 -50.754  1.00  0.00     0.129 HD
BRANCH  23  25
HETATM   25  C   UNL     1     -41.589  54.474 -50.377  1.00  0.00     0.093 C 
BRANCH  25  26
HETATM   26  C   UNL     1     -41.481  55.892 -49.810  1.00  0.00     0.010 C 
HETATM   27  C   UNL     1     -41.386  56.953 -50.899  1.00  0.00     0.006 C 
ENDBRANCH  25  26
ENDBRANCH  23  25
ENDBRANCH   1  23
TORSDOF 7
ENDMDL
MODEL 8
REMARK VINA RESULT:      -6.9      3.067      5.404
REMARK  7 active torsions:
REMARK  status: ('A' for Active; 'I' for Inactive)
REMARK    1  A    between atoms: C_2  and  C_3 
REMARK    2  A    between atoms: C_3  and  N_4 
REMARK    3  A    between atoms: N_4  and  C_5 
REMARK    4  A    between atoms: C_7  and  N_8 
REMARK    5  A    between atoms: N_8  and  C_9 
REMARK    6  A    between atoms: C_9  and  C_10 
REMARK    7  A    between atoms: C_11  and  O_12 
ROOT
HETATM    1  C   UNL     1     -41.712  54.864 -52.376  1.00  0.00     0.134 A 
HETATM    2  N   UNL     1     -42.503  55.433 -53.307  1.00  0.00    -0.052 NA
HETATM    3  C   UNL     1     -42.549  54.874 -54.524  1.00  0.00     0.702 A 
HETATM    4  N   UNL     1     -41.851  53.791 -54.850  1.00  0.00    -0.189 N 
HETATM    5  H   UNL     1     -41.980  53.403 -55.773  1.00  0.00     0.184 HD
HETATM    6  C   UNL     1     -41.074  53.169 -53.953  1.00  0.00     0.062 A 
HETATM    7  C   UNL     1     -40.980  53.689 -52.648  1.00  0.00     0.032 A 
HETATM    8  C   UNL     1     -40.395  51.992 -54.304  1.00  0.00     0.031 A 
HETATM    9  C   UNL     1     -39.626  51.315 -53.358  1.00  0.00     0.002 A 
HETATM   10  C   UNL     1     -39.530  51.807 -52.060  1.00  0.00     0.001 A 
HETATM   11  C   UNL     1     -40.198  52.981 -51.705  1.00  0.00     0.017 A 
ENDROOT
BRANCH   3  12
HETATM   12  N   UNL     1     -43.472  55.394 -55.401  1.00  0.00    -0.220 N 
HETATM   13  H   UNL     1     -44.402  55.108 -55.100  1.00  0.00     0.178 HD
BRANCH  12  14
HETATM   14  C   UNL     1     -43.412  56.756 -55.907  1.00  0.00     0.179 C 
BRANCH  14  15
HETATM   15  C   UNL     1     -43.039  56.880 -57.369  1.00  0.00    -0.007 A 
HETATM   16  C   UNL     1     -42.342  58.029 -57.804  1.00  0.00     0.076 A 
HETATM   17  C   UNL     1     -41.890  58.120 -59.125  1.00  0.00     0.037 A 
HETATM   18  C   UNL     1     -42.105  57.070 -60.017  1.00  0.00     0.003 A 
HETATM   19  C   UNL     1     -42.775  55.927 -59.597  1.00  0.00     0.001 A 
HETATM   20  C   UNL     1     -43.233  55.827 -58.283  1.00  0.00     0.011 A 
BRANCH  16  21
HETATM   21  O   UNL     1     -42.163  59.013 -56.862  1.00  0.00    -0.355 OA
HETATM   22  C   UNL     1     -42.011  60.346 -57.348  1.00  0.00     0.210 C 
ENDBRANCH  16  21
ENDBRANCH  14  15
ENDBRANCH  12  14
ENDBRANCH   3  12
BRANCH   1  23
HETATM   23  N   UNL     1     -41.690  55.401 -51.083  1.00  0.00    -0.276 NA
HETATM   24  H   UNL     1     -40.809  55.198 -50.614  1.00  0.00     0.129 HD
BRANCH  23  25
HETATM   25  C   UNL     1     -42.067  56.806 -50.938  1.00  0.00     0.093 C 
BRANCH  25  26
HETATM   26  C   UNL     1     -40.813  57.670 -50.786  1.00  0.00     0.010 C 
HETATM   27  C   UNL     1     -40.770  58.822 -51.781  1.00  0.00     0.006 C 
ENDBRANCH  25  26
ENDBRANCH  23  25
ENDBRANCH   1  23
TORSDOF 7
ENDMDL
MODEL 9
REMARK VINA RESULT:      -6.9      3.596      5.877
REMARK  7 active torsions:
REMARK  status: ('A' for Active; 'I' for Inactive)
REMARK    1  A    between atoms: C_2  and  C_3 
REMARK    2  A    between atoms: C_3  and  N_4 
REMARK    3  A    between atoms: N_4  and  C_5 
REMARK    4  A    between atoms: C_7  and  N_8 
REMARK    5  A    between atoms: N_8  and  C_9 
REMARK    6  A    between atoms: C_9  and  C_10 
REMARK    7  A    between atoms: C_11  and  O_12 
ROOT
HETATM    1  C   UNL     1     -41.130  55.299 -53.097  1.00  0.00     0.134 A 
HETATM    2  N   UNL     1     -41.504  55.764 -54.305  1.00  0.00    -0.052 NA
HETATM    3  C   UNL     1     -41.319  54.973 -55.371  1.00  0.00     0.702 A 
HETATM    4  N   UNL     1     -40.785  53.759 -55.288  1.00  0.00    -0.189 N 
HETATM    5  H   UNL     1     -40.726  53.207 -56.131  1.00  0.00     0.184 HD
HETATM    6  C   UNL     1     -40.424  53.238 -54.107  1.00  0.00     0.062 A 
HETATM    7  C   UNL     1     -40.596  54.004 -52.938  1.00  0.00     0.032 A 
HETATM    8  C   UNL     1     -39.920  51.931 -54.039  1.00  0.00     0.031 A 
HETATM    9  C   UNL     1     -39.590  51.367 -52.806  1.00  0.00     0.002 A 
HETATM   10  C   UNL     1     -39.764  52.104 -51.638  1.00  0.00     0.001 A 
HETATM   11  C   UNL     1     -40.260  53.408 -51.699  1.00  0.00     0.017 A 
ENDROOT
BRANCH   3  12
HETATM   12  N   UNL     1     -41.843  55.420 -56.562  1.00  0.00    -0.220 N 
HETATM   13  H   UNL     1     -42.170  54.616 -57.094  1.00  0.00     0.178 HD
BRANCH  12  14
HETATM   14  C   UNL     1     -42.709  56.584 -56.666  1.00  0.00     0.179 C 
BRANCH  14  15
HETATM   15  C   UNL     1     -42.459  57.461 -57.875  1.00  0.00    -0.007 A 
HETATM   16  C   UNL     1     -42.656  56.919 -59.165  1.00  0.00     0.076 A 
HETATM   17  C   UNL     1     -42.538  57.736 -60.295  1.00  0.00     0.037 A 
HETATM   18  C   UNL     1     -42.247  59.092 -60.158  1.00  0.00     0.003 A 
HETATM   19  C   UNL     1     -42.067  59.641 -58.892  1.00  0.00     0.001 A 
HETATM   20  C   UNL     1     -42.179  58.834 -57.759  1.00  0.00     0.011 A 
BRANCH  16  21
HETATM   21  O   UNL     1     -42.949  55.579 -59.214  1.00  0.00    -0.355 OA
HETATM   22  C   UNL     1     -44.150  55.209 -59.892  1.00  0.00     0.210 C 
ENDBRANCH  16  21
ENDBRANCH  14  15
ENDBRANCH  12  14
ENDBRANCH   3  12
BRANCH   1  23
HETATM   23  N   UNL     1     -41.362  56.089 -51.964  1.00  0.00    -0.276 NA
HETATM   24  H   UNL     1     -40.855  56.970 -52.018  1.00  0.00     0.129 HD
BRANCH  23  25
HETATM   25  C   UNL     1     -42.753  56.290 -51.564  1.00  0.00     0.093 C 
BRANCH  25  26
HETATM   26  C   UNL     1     -43.129  55.293 -50.466  1.00  0.00     0.010 C 
HETATM   27  C   UNL     1     -43.869  54.076 -51.006  1.00  0.00     0.006 C 
ENDBRANCH  25  26
ENDBRANCH  23  25
ENDBRANCH   1  23
TORSDOF 7
ENDMDL
MODEL 10
REMARK VINA RESULT:      -6.8      3.780      6.878
REMARK  7 active torsions:
REMARK  status: ('A' for Active; 'I' for Inactive)
REMARK    1  A    between atoms: C_2  and  C_3 
REMARK    2  A    between atoms: C_3  and  N_4 
REMARK    3  A    between atoms: N_4  and  C_5 
REMARK    4  A    between atoms: C_7  and  N_8 
REMARK    5  A    between atoms: N_8  and  C_9 
REMARK    6  A    between atoms: C_9  and  C_10 
REMARK    7  A    between atoms: C_11  and  O_12 
ROOT
HETATM    1  C   UNL     1     -42.180  54.029 -54.447  1.00  0.00     0.134 A 
HETATM    2  N   UNL     1     -42.046  54.673 -55.622  1.00  0.00    -0.052 NA
HETATM    3  C   UNL     1     -42.486  55.937 -55.704  1.00  0.00     0.702 A 
HETATM    4  N   UNL     1     -43.045  56.576 -54.681  1.00  0.00    -0.189 N 
HETATM    5  H   UNL     1     -43.304  57.544 -54.809  1.00  0.00     0.184 HD
HETATM    6  C   UNL     1     -43.173  55.991 -53.482  1.00  0.00     0.062 A 
HETATM    7  C   UNL     1     -42.726  54.666 -53.314  1.00  0.00     0.032 A 
HETATM    8  C   UNL     1     -43.711  56.708 -52.402  1.00  0.00     0.031 A 
HETATM    9  C   UNL     1     -43.799  56.118 -51.141  1.00  0.00     0.002 A 
HETATM   10  C   UNL     1     -43.353  54.814 -50.952  1.00  0.00     0.001 A 
HETATM   11  C   UNL     1     -42.822  54.092 -52.023  1.00  0.00     0.017 A 
ENDROOT
BRANCH   3  12
HETATM   12  N   UNL     1     -42.204  56.609 -56.870  1.00  0.00    -0.220 N 
HETATM   13  H   UNL     1     -41.653  55.998 -57.470  1.00  0.00     0.178 HD
BRANCH  12  14
HETATM   14  C   UNL     1     -43.186  57.408 -57.587  1.00  0.00     0.179 C 
BRANCH  14  15
HETATM   15  C   UNL     1     -44.031  56.640 -58.581  1.00  0.00    -0.007 A 
HETATM   16  C   UNL     1     -45.294  57.156 -58.950  1.00  0.00     0.076 A 
HETATM   17  C   UNL     1     -46.047  56.526 -59.946  1.00  0.00     0.037 A 
HETATM   18  C   UNL     1     -45.552  55.397 -60.596  1.00  0.00     0.003 A 
HETATM   19  C   UNL     1     -44.304  54.888 -60.254  1.00  0.00     0.001 A 
HETATM   20  C   UNL     1     -43.545  55.508 -59.260  1.00  0.00     0.011 A 
BRANCH  16  21
HETATM   21  O   UNL     1     -45.705  58.276 -58.268  1.00  0.00    -0.355 OA
HETATM   22  C   UNL     1     -46.990  58.214 -57.650  1.00  0.00     0.210 C 
ENDBRANCH  16  21
ENDBRANCH  14  15
ENDBRANCH  12  14
ENDBRANCH   3  12
BRANCH   1  23
HETATM   23  N   UNL     1     -41.681  52.726 -54.326  1.00  0.00    -0.276 NA
HETATM   24  H   UNL     1     -42.146  52.091 -54.972  1.00  0.00     0.129 HD
BRANCH  23  25
HETATM   25  C   UNL     1     -40.229  52.562 -54.361  1.00  0.00     0.093 C 
BRANCH  25  26
HETATM   26  C   UNL     1     -39.825  51.321 -53.561  1.00  0.00     0.010 C 
HETATM   27  C   UNL     1     -39.802  50.057 -54.411  1.00  0.00     0.006 C 
ENDBRANCH  25  26
ENDBRANCH  23  25
ENDBRANCH   1  23
TORSDOF 7
ENDMDL
