MODEL 1
REMARK VINA RESULT:      -8.0      0.000      0.000
REMARK  5 active torsions:
REMARK  status: ('A' for Active; 'I' for Inactive)
REMARK    1  A    between atoms: C_8  and  C_9 
REMARK       I    between atoms: C_9  and  N_10 
REMARK    2  A    between atoms: N_10  and  C_11 
REMARK    3  A    between atoms: C_14  and  N_15 
REMARK       I    between atoms: N_15  and  C_16 
REMARK       I    between atoms: C_16  and  N_17 
REMARK    4  A    between atoms: N_17  and  C_18 
REMARK    5  A    between atoms: C_18  and  C_19 
ROOT
HETATM    1  C   UNL     1     -42.492  54.843 -55.641  1.00  0.00     0.035 A 
HETATM    2  C   UNL     1     -41.108  54.776 -55.487  1.00  0.00     0.032 A 
HETATM    3  C   UNL     1     -40.535  54.574 -54.219  1.00  0.00     0.032 A 
HETATM    4  C   UNL     1     -41.339  54.420 -53.091  1.00  0.00     0.036 A 
HETATM    5  C   UNL     1     -42.726  54.529 -53.242  1.00  0.00     0.032 A 
HETATM    6  C   UNL     1     -43.296  54.731 -54.503  1.00  0.00     0.032 A 
ENDROOT
BRANCH   1   7
HETATM    7  N   UNL     1     -43.156  55.031 -56.871  1.00  0.00    -0.322 N 
HETATM    8  C   UNL     1     -43.111  56.132 -57.712  1.00  0.00     0.274 C 
HETATM    9  O   UNL     1     -42.427  57.128 -57.508  1.00  0.00    -0.266 OA
HETATM   10  H   UNL     1     -43.674  54.231 -57.205  1.00  0.00     0.169 HD
BRANCH   8  11
HETATM   11  C   UNL     1     -43.933  55.988 -58.897  1.00  0.00     0.126 A 
HETATM   12  N   UNL     1     -45.089  56.704 -59.181  1.00  0.00    -0.300 N 
HETATM   13  C   UNL     1     -45.750  57.705 -58.458  1.00  0.00     0.106 A 
HETATM   14  C   UNL     1     -45.537  56.264 -60.426  1.00  0.00     0.134 A 
HETATM   15  C   UNL     1     -46.860  58.279 -58.960  1.00  0.00    -0.046 A 
HETATM   16  C   UNL     1     -47.634  59.348 -58.255  1.00  0.00     0.049 C 
HETATM   17  C   UNL     1     -47.340  57.835 -60.266  1.00  0.00     0.012 A 
HETATM   18  C   UNL     1     -46.706  56.874 -60.962  1.00  0.00     0.051 A 
HETATM   19  N   UNL     1     -44.770  55.318 -60.917  1.00  0.00    -0.240 NA
HETATM   20  C   UNL     1     -43.797  55.130 -59.977  1.00  0.00     0.155 A 
ENDBRANCH   8  11
ENDBRANCH   1   7
BRANCH   4  21
HETATM   21  N   UNL     1     -40.869  54.210 -51.784  1.00  0.00    -0.309 N 
HETATM   22  C   UNL     1     -40.229  53.182 -51.163  1.00  0.00     0.320 C 
HETATM   23  N   UNL     1     -40.185  51.983 -51.796  1.00  0.00    -0.339 N 
HETATM   24  O   UNL     1     -39.774  53.372 -50.037  1.00  0.00    -0.247 OA
HETATM   25  H   UNL     1     -40.908  51.816 -52.476  1.00  0.00     0.164 HD
HETATM   26  H   UNL     1     -41.003  54.973 -51.130  1.00  0.00     0.170 HD
BRANCH  23  27
HETATM   27  C   UNL     1     -39.627  50.812 -51.161  1.00  0.00     0.150 C 
BRANCH  27  28
HETATM   28  C   UNL     1     -39.462  49.690 -52.142  1.00  0.00    -0.018 C 
HETATM   29  C   UNL     1     -39.724  49.704 -53.457  1.00  0.00     0.008 C 
ENDBRANCH  27  28
ENDBRANCH  23  27
ENDBRANCH   4  21
TORSDOF 5
ENDMDL
MODEL 2
REMARK VINA RESULT:      -7.8      1.930      9.385
REMARK  5 active torsions:
REMARK  status: ('A' for Active; 'I' for Inactive)
REMARK    1  A    between atoms: C_8  and  C_9 
REMARK       I    between atoms: C_9  and  N_10 
REMARK    2  A    between atoms: N_10  and  C_11 
REMARK    3  A    between atoms: C_14  and  N_15 
REMARK       I    between atoms: N_15  and  C_16 
REMARK       I    between atoms: C_16  and  N_17 
REMARK    4  A    between atoms: N_17  and  C_18 
REMARK    5  A    between atoms: C_18  and  C_19 
ROOT
HETATM    1  C   UNL     1     -42.919  55.785 -54.706  1.00  0.00     0.035 A 
HETATM    2  C   UNL     1     -42.618  55.666 -56.062  1.00  0.00     0.032 A 
HETATM    3  C   UNL     1     -43.247  56.489 -57.013  1.00  0.00     0.032 A 
HETATM    4  C   UNL     1     -44.174  57.452 -56.619  1.00  0.00     0.036 A 
HETATM    5  C   UNL     1     -44.506  57.541 -55.262  1.00  0.00     0.032 A 
HETATM    6  C   UNL     1     -43.881  56.722 -54.316  1.00  0.00     0.032 A 
ENDROOT
BRANCH   1   7
HETATM    7  N   UNL     1     -42.333  55.014 -53.680  1.00  0.00    -0.322 N 
HETATM    8  C   UNL     1     -41.042  55.087 -53.182  1.00  0.00     0.274 C 
HETATM    9  O   UNL     1     -40.202  55.896 -53.559  1.00  0.00    -0.266 OA
HETATM   10  H   UNL     1     -42.961  54.377 -53.212  1.00  0.00     0.169 HD
BRANCH   8  11
HETATM   11  C   UNL     1     -40.774  54.128 -52.129  1.00  0.00     0.126 A 
HETATM   12  N   UNL     1     -40.400  52.802 -52.308  1.00  0.00    -0.300 N 
HETATM   13  C   UNL     1     -40.185  52.059 -53.475  1.00  0.00     0.106 A 
HETATM   14  C   UNL     1     -40.222  52.261 -51.035  1.00  0.00     0.134 A 
HETATM   15  C   UNL     1     -39.795  50.772 -53.393  1.00  0.00    -0.046 A 
HETATM   16  C   UNL     1     -39.551  49.900 -54.586  1.00  0.00     0.049 C 
HETATM   17  C   UNL     1     -39.598  50.190 -52.068  1.00  0.00     0.012 A 
HETATM   18  C   UNL     1     -39.803  50.904 -50.946  1.00  0.00     0.051 A 
HETATM   19  N   UNL     1     -40.485  53.134 -50.089  1.00  0.00    -0.240 NA
HETATM   20  C   UNL     1     -40.842  54.274 -50.752  1.00  0.00     0.155 A 
ENDBRANCH   8  11
ENDBRANCH   1   7
BRANCH   4  21
HETATM   21  N   UNL     1     -44.854  58.324 -57.485  1.00  0.00    -0.309 N 
HETATM   22  C   UNL     1     -45.807  58.154 -58.441  1.00  0.00     0.320 C 
HETATM   23  N   UNL     1     -46.060  56.894 -58.873  1.00  0.00    -0.339 N 
HETATM   24  O   UNL     1     -46.349  59.153 -58.909  1.00  0.00    -0.247 OA
HETATM   25  H   UNL     1     -45.316  56.228 -58.750  1.00  0.00     0.164 HD
HETATM   26  H   UNL     1     -44.626  59.308 -57.402  1.00  0.00     0.170 HD
BRANCH  23  27
HETATM   27  C   UNL     1     -46.971  56.635 -59.963  1.00  0.00     0.150 C 
BRANCH  27  28
HETATM   28  C   UNL     1     -46.336  55.765 -61.006  1.00  0.00    -0.018 C 
HETATM   29  C   UNL     1     -45.079  55.298 -61.031  1.00  0.00     0.008 C 
ENDBRANCH  27  28
ENDBRANCH  23  27
ENDBRANCH   4  21
TORSDOF 5
ENDMDL
MODEL 3
REMARK VINA RESULT:      -7.7      2.135      9.609
REMARK  5 active torsions:
REMARK  status: ('A' for Active; 'I' for Inactive)
REMARK    1  A    between atoms: C_8  and  C_9 
REMARK       I    between atoms: C_9  and  N_10 
REMARK    2  A    between atoms: N_10  and  C_11 
REMARK    3  A    between atoms: C_14  and  N_15 
REMARK       I    between atoms: N_15  and  C_16 
REMARK       I    between atoms: C_16  and  N_17 
REMARK    4  A    between atoms: N_17  and  C_18 
REMARK    5  A    between atoms: C_18  and  C_19 
ROOT
HETATM    1  C   UNL     1     -42.402  56.238 -56.256  1.00  0.00     0.035 A 
HETATM    2  C   UNL     1     -42.820  55.548 -57.394  1.00  0.00     0.032 A 
HETATM    3  C   UNL     1     -43.264  56.244 -58.532  1.00  0.00     0.032 A 
HETATM    4  C   UNL     1     -43.283  57.637 -58.553  1.00  0.00     0.036 A 
HETATM    5  C   UNL     1     -42.904  58.325 -57.395  1.00  0.00     0.032 A 
HETATM    6  C   UNL     1     -42.462  57.634 -56.262  1.00  0.00     0.032 A 
ENDROOT
BRANCH   1   7
HETATM    7  N   UNL     1     -41.930  55.628 -55.074  1.00  0.00    -0.322 N 
HETATM    8  C   UNL     1     -42.642  54.878 -54.152  1.00  0.00     0.274 C 
HETATM    9  O   UNL     1     -43.830  54.598 -54.260  1.00  0.00    -0.266 OA
HETATM   10  H   UNL     1     -40.934  55.697 -54.926  1.00  0.00     0.169 HD
BRANCH   8  11
HETATM   11  C   UNL     1     -41.836  54.412 -53.041  1.00  0.00     0.126 A 
HETATM   12  N   UNL     1     -41.089  53.241 -53.008  1.00  0.00    -0.300 N 
HETATM   13  C   UNL     1     -40.907  52.242 -53.971  1.00  0.00     0.106 A 
HETATM   14  C   UNL     1     -40.456  53.204 -51.766  1.00  0.00     0.134 A 
HETATM   15  C   UNL     1     -40.099  51.195 -53.714  1.00  0.00    -0.046 A 
HETATM   16  C   UNL     1     -39.853  50.078 -54.679  1.00  0.00     0.049 C 
HETATM   17  C   UNL     1     -39.423  51.143 -52.420  1.00  0.00     0.012 A 
HETATM   18  C   UNL     1     -39.597  52.103 -51.494  1.00  0.00     0.051 A 
HETATM   19  N   UNL     1     -40.776  54.239 -51.022  1.00  0.00    -0.240 NA
HETATM   20  C   UNL     1     -41.635  54.972 -51.789  1.00  0.00     0.155 A 
ENDBRANCH   8  11
ENDBRANCH   1   7
BRANCH   4  21
HETATM   21  N   UNL     1     -43.703  58.426 -59.637  1.00  0.00    -0.309 N 
HETATM   22  C   UNL     1     -44.913  58.688 -60.201  1.00  0.00     0.320 C 
HETATM   23  N   UNL     1     -45.963  57.904 -59.854  1.00  0.00    -0.339 N 
HETATM   24  O   UNL     1     -44.983  59.583 -61.042  1.00  0.00    -0.247 OA
HETATM   25  H   UNL     1     -45.733  56.986 -59.509  1.00  0.00     0.164 HD
HETATM   26  H   UNL     1     -42.980  58.942 -60.124  1.00  0.00     0.170 HD
BRANCH  23  27
HETATM   27  C   UNL     1     -47.253  58.039 -60.490  1.00  0.00     0.150 C 
BRANCH  27  28
HETATM   28  C   UNL     1     -47.592  56.820 -61.295  1.00  0.00    -0.018 C 
HETATM   29  C   UNL     1     -48.506  56.707 -62.269  1.00  0.00     0.008 C 
ENDBRANCH  27  28
ENDBRANCH  23  27
ENDBRANCH   4  21
TORSDOF 5
ENDMDL
MODEL 4
REMARK VINA RESULT:      -7.7      5.703      9.259
REMARK  5 active torsions:
REMARK  status: ('A' for Active; 'I' for Inactive)
REMARK    1  A    between atoms: C_8  and  C_9 
REMARK       I    between atoms: C_9  and  N_10 
REMARK    2  A    between atoms: N_10  and  C_11 
REMARK    3  A    between atoms: C_14  and  N_15 
REMARK       I    between atoms: N_15  and  C_16 
REMARK       I    between atoms: C_16  and  N_17 
REMARK    4  A    between atoms: N_17  and  C_18 
REMARK    5  A    between atoms: C_18  and  C_19 
ROOT
HETATM    1  C   UNL     1     -43.509  57.813 -52.004  1.00  0.00     0.035 A 
HETATM    2  C   UNL     1     -44.821  57.631 -51.566  1.00  0.00     0.032 A 
HETATM    3  C   UNL     1     -45.503  58.661 -50.894  1.00  0.00     0.032 A 
HETATM    4  C   UNL     1     -44.889  59.891 -50.665  1.00  0.00     0.036 A 
HETATM    5  C   UNL     1     -43.559  60.056 -51.068  1.00  0.00     0.032 A 
HETATM    6  C   UNL     1     -42.879  59.032 -51.736  1.00  0.00     0.032 A 
ENDROOT
BRANCH   1   7
HETATM    7  N   UNL     1     -42.750  56.845 -52.695  1.00  0.00    -0.322 N 
HETATM    8  C   UNL     1     -41.594  56.204 -52.279  1.00  0.00     0.274 C 
HETATM    9  O   UNL     1     -41.066  56.373 -51.186  1.00  0.00    -0.266 OA
HETATM   10  H   UNL     1     -43.144  56.539 -53.572  1.00  0.00     0.169 HD
BRANCH   8  11
HETATM   11  C   UNL     1     -41.070  55.269 -53.254  1.00  0.00     0.126 A 
HETATM   12  N   UNL     1     -40.636  53.975 -52.995  1.00  0.00    -0.300 N 
HETATM   13  C   UNL     1     -40.586  53.247 -51.801  1.00  0.00     0.106 A 
HETATM   14  C   UNL     1     -40.241  53.432 -54.217  1.00  0.00     0.134 A 
HETATM   15  C   UNL     1     -40.142  51.974 -51.804  1.00  0.00    -0.046 A 
HETATM   16  C   UNL     1     -40.045  51.125 -50.575  1.00  0.00     0.049 C 
HETATM   17  C   UNL     1     -39.730  51.387 -53.076  1.00  0.00     0.012 A 
HETATM   18  C   UNL     1     -39.779  52.086 -54.225  1.00  0.00     0.051 A 
HETATM   19  N   UNL     1     -40.368  54.294 -55.201  1.00  0.00    -0.240 NA
HETATM   20  C   UNL     1     -40.857  55.427 -54.615  1.00  0.00     0.155 A 
ENDBRANCH   8  11
ENDBRANCH   1   7
BRANCH   4  21
HETATM   21  N   UNL     1     -45.482  60.983 -50.010  1.00  0.00    -0.309 N 
HETATM   22  C   UNL     1     -45.636  61.331 -48.704  1.00  0.00     0.320 C 
HETATM   23  N   UNL     1     -45.394  60.388 -47.759  1.00  0.00    -0.339 N 
HETATM   24  O   UNL     1     -46.043  62.461 -48.444  1.00  0.00    -0.247 OA
HETATM   25  H   UNL     1     -45.476  59.431 -48.060  1.00  0.00     0.164 HD
HETATM   26  H   UNL     1     -45.881  61.701 -50.603  1.00  0.00     0.170 HD
BRANCH  23  27
HETATM   27  C   UNL     1     -45.643  60.638 -46.358  1.00  0.00     0.150 C 
BRANCH  27  28
HETATM   28  C   UNL     1     -46.881  59.930 -45.893  1.00  0.00    -0.018 C 
HETATM   29  C   UNL     1     -47.017  58.632 -45.585  1.00  0.00     0.008 C 
ENDBRANCH  27  28
ENDBRANCH  23  27
ENDBRANCH   4  21
TORSDOF 5
ENDMDL
MODEL 5
REMARK VINA RESULT:      -7.7      2.551      3.015
REMARK  5 active torsions:
REMARK  status: ('A' for Active; 'I' for Inactive)
REMARK    1  A    between atoms: C_8  and  C_9 
REMARK       I    between atoms: C_9  and  N_10 
REMARK    2  A    between atoms: N_10  and  C_11 
REMARK    3  A    between atoms: C_14  and  N_15 
REMARK       I    between atoms: N_15  and  C_16 
REMARK       I    between atoms: C_16  and  N_17 
REMARK    4  A    between atoms: N_17  and  C_18 
REMARK    5  A    between atoms: C_18  and  C_19 
ROOT
HETATM    1  C   UNL     1     -42.008  55.351 -55.282  1.00  0.00     0.035 A 
HETATM    2  C   UNL     1     -43.044  54.702 -54.611  1.00  0.00     0.032 A 
HETATM    3  C   UNL     1     -42.843  54.163 -53.329  1.00  0.00     0.032 A 
HETATM    4  C   UNL     1     -41.607  54.278 -52.694  1.00  0.00     0.036 A 
HETATM    5  C   UNL     1     -40.558  54.893 -53.386  1.00  0.00     0.032 A 
HETATM    6  C   UNL     1     -40.758  55.429 -54.662  1.00  0.00     0.032 A 
ENDROOT
BRANCH   1   7
HETATM    7  N   UNL     1     -42.119  55.933 -56.563  1.00  0.00    -0.322 N 
HETATM    8  C   UNL     1     -43.030  56.881 -57.000  1.00  0.00     0.274 C 
HETATM    9  O   UNL     1     -43.885  57.395 -56.289  1.00  0.00    -0.266 OA
HETATM   10  H   UNL     1     -41.396  55.667 -57.217  1.00  0.00     0.169 HD
BRANCH   8  11
HETATM   11  C   UNL     1     -42.860  57.246 -58.392  1.00  0.00     0.126 A 
HETATM   12  N   UNL     1     -42.456  58.487 -58.867  1.00  0.00    -0.300 N 
HETATM   13  C   UNL     1     -42.118  59.664 -58.189  1.00  0.00     0.106 A 
HETATM   14  C   UNL     1     -42.403  58.386 -60.258  1.00  0.00     0.134 A 
HETATM   15  C   UNL     1     -41.724  60.752 -58.879  1.00  0.00    -0.046 A 
HETATM   16  C   UNL     1     -41.352  62.053 -58.238  1.00  0.00     0.049 C 
HETATM   17  C   UNL     1     -41.657  60.663 -60.335  1.00  0.00     0.012 A 
HETATM   18  C   UNL     1     -41.981  59.532 -60.988  1.00  0.00     0.051 A 
HETATM   19  N   UNL     1     -42.769  57.196 -60.677  1.00  0.00    -0.240 NA
HETATM   20  C   UNL     1     -43.068  56.499 -59.541  1.00  0.00     0.155 A 
ENDBRANCH   8  11
ENDBRANCH   1   7
BRANCH   4  21
HETATM   21  N   UNL     1     -41.304  53.780 -51.416  1.00  0.00    -0.309 N 
HETATM   22  C   UNL     1     -40.567  52.731 -50.962  1.00  0.00     0.320 C 
HETATM   23  N   UNL     1     -40.186  51.783 -51.855  1.00  0.00    -0.339 N 
HETATM   24  O   UNL     1     -40.332  52.660 -49.757  1.00  0.00    -0.247 OA
HETATM   25  H   UNL     1     -40.751  51.708 -52.684  1.00  0.00     0.164 HD
HETATM   26  H   UNL     1     -41.685  54.295 -50.630  1.00  0.00     0.170 HD
BRANCH  23  27
HETATM   27  C   UNL     1     -39.502  50.582 -51.439  1.00  0.00     0.150 C 
BRANCH  27  28
HETATM   28  C   UNL     1     -39.500  49.554 -52.531  1.00  0.00    -0.018 C 
HETATM   29  C   UNL     1     -39.725  49.745 -53.839  1.00  0.00     0.008 C 
ENDBRANCH  27  28
ENDBRANCH  23  27
ENDBRANCH   4  21
TORSDOF 5
ENDMDL
MODEL 6
REMARK VINA RESULT:      -7.5      2.991      9.641
REMARK  5 active torsions:
REMARK  status: ('A' for Active; 'I' for Inactive)
REMARK    1  A    between atoms: C_8  and  C_9 
REMARK       I    between atoms: C_9  and  N_10 
REMARK    2  A    between atoms: N_10  and  C_11 
REMARK    3  A    between atoms: C_14  and  N_15 
REMARK       I    between atoms: N_15  and  C_16 
REMARK       I    between atoms: C_16  and  N_17 
REMARK    4  A    between atoms: N_17  and  C_18 
REMARK    5  A    between atoms: C_18  and  C_19 
ROOT
HETATM    1  C   UNL     1     -42.693  56.396 -56.191  1.00  0.00     0.035 A 
HETATM    2  C   UNL     1     -42.907  55.753 -57.410  1.00  0.00     0.032 A 
HETATM    3  C   UNL     1     -43.453  56.450 -58.503  1.00  0.00     0.032 A 
HETATM    4  C   UNL     1     -43.778  57.801 -58.396  1.00  0.00     0.036 A 
HETATM    5  C   UNL     1     -43.602  58.432 -57.160  1.00  0.00     0.032 A 
HETATM    6  C   UNL     1     -43.059  57.739 -56.072  1.00  0.00     0.032 A 
ENDROOT
BRANCH   1   7
HETATM    7  N   UNL     1     -42.141  55.784 -55.046  1.00  0.00    -0.322 N 
HETATM    8  C   UNL     1     -42.749  54.902 -54.167  1.00  0.00     0.274 C 
HETATM    9  O   UNL     1     -43.894  54.485 -54.289  1.00  0.00    -0.266 OA
HETATM   10  H   UNL     1     -41.160  55.967 -54.895  1.00  0.00     0.169 HD
BRANCH   8  11
HETATM   11  C   UNL     1     -41.883  54.478 -53.084  1.00  0.00     0.126 A 
HETATM   12  N   UNL     1     -41.121  53.317 -53.054  1.00  0.00    -0.300 N 
HETATM   13  C   UNL     1     -40.975  52.291 -53.996  1.00  0.00     0.106 A 
HETATM   14  C   UNL     1     -40.427  53.324 -51.844  1.00  0.00     0.134 A 
HETATM   15  C   UNL     1     -40.142  51.261 -53.749  1.00  0.00    -0.046 A 
HETATM   16  C   UNL     1     -39.931  50.118 -54.692  1.00  0.00     0.049 C 
HETATM   17  C   UNL     1     -39.403  51.255 -52.489  1.00  0.00     0.012 A 
HETATM   18  C   UNL     1     -39.542  52.240 -51.584  1.00  0.00     0.051 A 
HETATM   19  N   UNL     1     -40.722  54.376 -51.116  1.00  0.00    -0.240 NA
HETATM   20  C   UNL     1     -41.627  55.078 -51.860  1.00  0.00     0.155 A 
ENDBRANCH   8  11
ENDBRANCH   1   7
BRANCH   4  21
HETATM   21  N   UNL     1     -44.323  58.587 -59.424  1.00  0.00    -0.309 N 
HETATM   22  C   UNL     1     -43.790  59.287 -60.462  1.00  0.00     0.320 C 
HETATM   23  N   UNL     1     -42.453  59.513 -60.460  1.00  0.00    -0.339 N 
HETATM   24  O   UNL     1     -44.551  59.732 -61.319  1.00  0.00    -0.247 OA
HETATM   25  H   UNL     1     -42.002  59.484 -59.560  1.00  0.00     0.164 HD
HETATM   26  H   UNL     1     -45.334  58.664 -59.444  1.00  0.00     0.170 HD
BRANCH  23  27
HETATM   27  C   UNL     1     -41.823  60.342 -61.460  1.00  0.00     0.150 C 
BRANCH  27  28
HETATM   28  C   UNL     1     -41.508  61.704 -60.916  1.00  0.00    -0.018 C 
HETATM   29  C   UNL     1     -40.912  62.005 -59.753  1.00  0.00     0.008 C 
ENDBRANCH  27  28
ENDBRANCH  23  27
ENDBRANCH   4  21
TORSDOF 5
ENDMDL
MODEL 7
REMARK VINA RESULT:      -7.3     14.932     18.609
REMARK  5 active torsions:
REMARK  status: ('A' for Active; 'I' for Inactive)
REMARK    1  A    between atoms: C_8  and  C_9 
REMARK       I    between atoms: C_9  and  N_10 
REMARK    2  A    between atoms: N_10  and  C_11 
REMARK    3  A    between atoms: C_14  and  N_15 
REMARK       I    between atoms: N_15  and  C_16 
REMARK       I    between atoms: C_16  and  N_17 
REMARK    4  A    between atoms: N_17  and  C_18 
REMARK    5  A    between atoms: C_18  and  C_19 
ROOT
HETATM    1  C   UNL     1     -35.396  41.181 -54.756  1.00  0.00     0.035 A 
HETATM    2  C   UNL     1     -36.761  41.346 -54.987  1.00  0.00     0.032 A 
HETATM    3  C   UNL     1     -37.230  41.792 -56.235  1.00  0.00     0.032 A 
HETATM    4  C   UNL     1     -36.340  42.066 -57.273  1.00  0.00     0.036 A 
HETATM    5  C   UNL     1     -34.969  41.941 -57.025  1.00  0.00     0.032 A 
HETATM    6  C   UNL     1     -34.502  41.497 -55.783  1.00  0.00     0.032 A 
ENDROOT
BRANCH   1   7
HETATM    7  N   UNL     1     -34.834  40.728 -53.544  1.00  0.00    -0.322 N 
HETATM    8  C   UNL     1     -34.763  41.392 -52.329  1.00  0.00     0.274 C 
HETATM    9  O   UNL     1     -35.232  42.505 -52.123  1.00  0.00    -0.266 OA
HETATM   10  H   UNL     1     -34.506  39.773 -53.555  1.00  0.00     0.169 HD
BRANCH   8  11
HETATM   11  C   UNL     1     -34.102  40.626 -51.291  1.00  0.00     0.126 A 
HETATM   12  N   UNL     1     -34.730  39.887 -50.296  1.00  0.00    -0.300 N 
HETATM   13  C   UNL     1     -36.087  39.678 -50.027  1.00  0.00     0.106 A 
HETATM   14  C   UNL     1     -33.719  39.297 -49.537  1.00  0.00     0.134 A 
HETATM   15  C   UNL     1     -36.459  38.884 -49.003  1.00  0.00    -0.046 A 
HETATM   16  C   UNL     1     -37.884  38.611 -48.638  1.00  0.00     0.049 C 
HETATM   17  C   UNL     1     -35.414  38.254 -48.201  1.00  0.00     0.012 A 
HETATM   18  C   UNL     1     -34.108  38.453 -48.460  1.00  0.00     0.051 A 
HETATM   19  N   UNL     1     -32.524  39.637 -49.964  1.00  0.00    -0.240 NA
HETATM   20  C   UNL     1     -32.751  40.465 -51.026  1.00  0.00     0.155 A 
ENDBRANCH   8  11
ENDBRANCH   1   7
BRANCH   4  21
HETATM   21  N   UNL     1     -36.703  42.512 -58.555  1.00  0.00    -0.309 N 
HETATM   22  C   UNL     1     -37.177  41.895 -59.671  1.00  0.00     0.320 C 
HETATM   23  N   UNL     1     -37.114  40.541 -59.728  1.00  0.00    -0.339 N 
HETATM   24  O   UNL     1     -37.585  42.595 -60.596  1.00  0.00    -0.247 OA
HETATM   25  H   UNL     1     -36.417  40.108 -59.145  1.00  0.00     0.164 HD
HETATM   26  H   UNL     1     -36.625  43.508 -58.723  1.00  0.00     0.170 HD
BRANCH  23  27
HETATM   27  C   UNL     1     -37.488  39.815 -60.919  1.00  0.00     0.150 C 
BRANCH  27  28
HETATM   28  C   UNL     1     -38.301  38.601 -60.580  1.00  0.00    -0.018 C 
HETATM   29  C   UNL     1     -39.384  38.134 -61.218  1.00  0.00     0.008 C 
ENDBRANCH  27  28
ENDBRANCH  23  27
ENDBRANCH   4  21
TORSDOF 5
ENDMDL
MODEL 8
REMARK VINA RESULT:      -7.2      1.636      2.620
REMARK  5 active torsions:
REMARK  status: ('A' for Active; 'I' for Inactive)
REMARK    1  A    between atoms: C_8  and  C_9 
REMARK       I    between atoms: C_9  and  N_10 
REMARK    2  A    between atoms: N_10  and  C_11 
REMARK    3  A    between atoms: C_14  and  N_15 
REMARK       I    between atoms: N_15  and  C_16 
REMARK       I    between atoms: C_16  and  N_17 
REMARK    4  A    between atoms: N_17  and  C_18 
REMARK    5  A    between atoms: C_18  and  C_19 
ROOT
HETATM    1  C   UNL     1     -43.534  56.291 -53.983  1.00  0.00     0.035 A 
HETATM    2  C   UNL     1     -42.727  56.941 -53.050  1.00  0.00     0.032 A 
HETATM    3  C   UNL     1     -42.078  56.217 -52.034  1.00  0.00     0.032 A 
HETATM    4  C   UNL     1     -42.217  54.833 -51.946  1.00  0.00     0.036 A 
HETATM    5  C   UNL     1     -43.061  54.189 -52.857  1.00  0.00     0.032 A 
HETATM    6  C   UNL     1     -43.707  54.909 -53.868  1.00  0.00     0.032 A 
ENDROOT
BRANCH   1   7
HETATM    7  N   UNL     1     -44.214  56.930 -55.042  1.00  0.00    -0.322 N 
HETATM    8  C   UNL     1     -43.692  57.403 -56.235  1.00  0.00     0.274 C 
HETATM    9  O   UNL     1     -42.517  57.295 -56.565  1.00  0.00    -0.266 OA
HETATM   10  H   UNL     1     -45.216  56.984 -54.935  1.00  0.00     0.169 HD
BRANCH   8  11
HETATM   11  C   UNL     1     -44.683  58.020 -57.094  1.00  0.00     0.126 A 
HETATM   12  N   UNL     1     -45.117  57.534 -58.321  1.00  0.00    -0.300 N 
HETATM   13  C   UNL     1     -44.751  56.386 -59.034  1.00  0.00     0.106 A 
HETATM   14  C   UNL     1     -46.087  58.422 -58.784  1.00  0.00     0.134 A 
HETATM   15  C   UNL     1     -45.341  56.107 -60.214  1.00  0.00    -0.046 A 
HETATM   16  C   UNL     1     -45.007  54.910 -61.047  1.00  0.00     0.049 C 
HETATM   17  C   UNL     1     -46.363  57.024 -60.711  1.00  0.00     0.012 A 
HETATM   18  C   UNL     1     -46.716  58.126 -60.025  1.00  0.00     0.051 A 
HETATM   19  N   UNL     1     -46.265  59.429 -57.958  1.00  0.00    -0.240 NA
HETATM   20  C   UNL     1     -45.394  59.199 -56.931  1.00  0.00     0.155 A 
ENDBRANCH   8  11
ENDBRANCH   1   7
BRANCH   4  21
HETATM   21  N   UNL     1     -41.611  54.018 -50.975  1.00  0.00    -0.309 N 
HETATM   22  C   UNL     1     -40.648  53.059 -51.014  1.00  0.00     0.320 C 
HETATM   23  N   UNL     1     -40.290  52.561 -52.225  1.00  0.00    -0.339 N 
HETATM   24  O   UNL     1     -40.190  52.646 -49.950  1.00  0.00    -0.247 OA
HETATM   25  H   UNL     1     -40.977  52.645 -52.956  1.00  0.00     0.164 HD
HETATM   26  H   UNL     1     -41.920  54.152 -50.019  1.00  0.00     0.170 HD
BRANCH  23  27
HETATM   27  C   UNL     1     -39.360  51.464 -52.349  1.00  0.00     0.150 C 
BRANCH  27  28
HETATM   28  C   UNL     1     -39.387  50.883 -53.731  1.00  0.00    -0.018 C 
HETATM   29  C   UNL     1     -40.237  49.969 -54.221  1.00  0.00     0.008 C 
ENDBRANCH  27  28
ENDBRANCH  23  27
ENDBRANCH   4  21
TORSDOF 5
ENDMDL
MODEL 9
REMARK VINA RESULT:      -7.1     15.610     18.574
REMARK  5 active torsions:
REMARK  status: ('A' for Active; 'I' for Inactive)
REMARK    1  A    between atoms: C_8  and  C_9 
REMARK       I    between atoms: C_9  and  N_10 
REMARK    2  A    between atoms: N_10  and  C_11 
REMARK    3  A    between atoms: C_14  and  N_15 
REMARK       I    between atoms: N_15  and  C_16 
REMARK       I    between atoms: C_16  and  N_17 
REMARK    4  A    between atoms: N_17  and  C_18 
REMARK    5  A    between atoms: C_18  and  C_19 
ROOT
HETATM    1  C   UNL     1     -36.990  40.048 -57.431  1.00  0.00     0.035 A 
HETATM    2  C   UNL     1     -37.637  40.904 -58.323  1.00  0.00     0.032 A 
HETATM    3  C   UNL     1     -37.551  40.694 -59.710  1.00  0.00     0.032 A 
HETATM    4  C   UNL     1     -36.830  39.618 -60.225  1.00  0.00     0.036 A 
HETATM    5  C   UNL     1     -36.148  38.785 -59.331  1.00  0.00     0.032 A 
HETATM    6  C   UNL     1     -36.233  38.994 -57.950  1.00  0.00     0.032 A 
ENDROOT
BRANCH   1   7
HETATM    7  N   UNL     1     -37.029  40.171 -56.026  1.00  0.00    -0.322 N 
HETATM    8  C   UNL     1     -36.560  41.213 -55.243  1.00  0.00     0.274 C 
HETATM    9  O   UNL     1     -36.055  42.237 -55.688  1.00  0.00    -0.266 OA
HETATM   10  H   UNL     1     -37.521  39.432 -55.546  1.00  0.00     0.169 HD
BRANCH   8  11
HETATM   11  C   UNL     1     -36.755  41.001 -53.823  1.00  0.00     0.126 A 
HETATM   12  N   UNL     1     -35.752  40.836 -52.876  1.00  0.00    -0.300 N 
HETATM   13  C   UNL     1     -34.358  40.830 -53.008  1.00  0.00     0.106 A 
HETATM   14  C   UNL     1     -36.385  40.688 -51.643  1.00  0.00     0.134 A 
HETATM   15  C   UNL     1     -33.577  40.676 -51.921  1.00  0.00    -0.046 A 
HETATM   16  C   UNL     1     -32.081  40.649 -51.969  1.00  0.00     0.049 C 
HETATM   17  C   UNL     1     -34.223  40.525 -50.620  1.00  0.00     0.012 A 
HETATM   18  C   UNL     1     -35.563  40.531 -50.492  1.00  0.00     0.051 A 
HETATM   19  N   UNL     1     -37.693  40.718 -51.756  1.00  0.00    -0.240 NA
HETATM   20  C   UNL     1     -37.927  40.890 -53.091  1.00  0.00     0.155 A 
ENDBRANCH   8  11
ENDBRANCH   1   7
BRANCH   4  21
HETATM   21  N   UNL     1     -36.686  39.318 -61.589  1.00  0.00    -0.309 N 
HETATM   22  C   UNL     1     -37.521  38.822 -62.541  1.00  0.00     0.320 C 
HETATM   23  N   UNL     1     -38.691  38.267 -62.138  1.00  0.00    -0.339 N 
HETATM   24  O   UNL     1     -37.150  38.845 -63.714  1.00  0.00    -0.247 OA
HETATM   25  H   UNL     1     -38.715  37.927 -61.191  1.00  0.00     0.164 HD
HETATM   26  H   UNL     1     -35.779  39.513 -61.999  1.00  0.00     0.170 HD
BRANCH  23  27
HETATM   27  C   UNL     1     -39.582  37.616 -63.070  1.00  0.00     0.150 C 
BRANCH  27  28
HETATM   28  C   UNL     1     -40.977  37.539 -62.524  1.00  0.00    -0.018 C 
HETATM   29  C   UNL     1     -41.431  38.030 -61.361  1.00  0.00     0.008 C 
ENDBRANCH  27  28
ENDBRANCH  23  27
ENDBRANCH   4  21
TORSDOF 5
ENDMDL
MODEL 10
REMARK VINA RESULT:      -7.1      3.154      9.416
REMARK  5 active torsions:
REMARK  status: ('A' for Active; 'I' for Inactive)
REMARK    1  A    between atoms: C_8  and  C_9 
REMARK       I    between atoms: C_9  and  N_10 
REMARK    2  A    between atoms: N_10  and  C_11 
REMARK    3  A    between atoms: C_14  and  N_15 
REMARK       I    between atoms: N_15  and  C_16 
REMARK       I    between atoms: C_16  and  N_17 
REMARK    4  A    between atoms: N_17  and  C_18 
REMARK    5  A    between atoms: C_18  and  C_19 
ROOT
HETATM    1  C   UNL     1     -42.473  56.103 -56.752  1.00  0.00     0.035 A 
HETATM    2  C   UNL     1     -43.007  55.784 -58.000  1.00  0.00     0.032 A 
HETATM    3  C   UNL     1     -43.573  56.779 -58.815  1.00  0.00     0.032 A 
HETATM    4  C   UNL     1     -43.601  58.110 -58.400  1.00  0.00     0.036 A 
HETATM    5  C   UNL     1     -43.103  58.421 -57.130  1.00  0.00     0.032 A 
HETATM    6  C   UNL     1     -42.539  57.430 -56.318  1.00  0.00     0.032 A 
ENDROOT
BRANCH   1   7
HETATM    7  N   UNL     1     -41.875  55.177 -55.871  1.00  0.00    -0.322 N 
HETATM    8  C   UNL     1     -42.481  54.415 -54.886  1.00  0.00     0.274 C 
HETATM    9  O   UNL     1     -43.685  54.415 -54.656  1.00  0.00    -0.266 OA
HETATM   10  H   UNL     1     -40.893  55.006 -56.033  1.00  0.00     0.169 HD
BRANCH   8  11
HETATM   11  C   UNL     1     -41.555  53.571 -54.157  1.00  0.00     0.126 A 
HETATM   12  N   UNL     1     -41.144  53.754 -52.843  1.00  0.00    -0.300 N 
HETATM   13  C   UNL     1     -41.482  54.736 -51.904  1.00  0.00     0.106 A 
HETATM   14  C   UNL     1     -40.278  52.703 -52.543  1.00  0.00     0.134 A 
HETATM   15  C   UNL     1     -40.966  54.689 -50.661  1.00  0.00    -0.046 A 
HETATM   16  C   UNL     1     -41.265  55.699 -49.597  1.00  0.00     0.049 C 
HETATM   17  C   UNL     1     -40.061  53.592 -50.328  1.00  0.00     0.012 A 
HETATM   18  C   UNL     1     -39.736  52.647 -51.229  1.00  0.00     0.051 A 
HETATM   19  N   UNL     1     -40.099  51.907 -53.573  1.00  0.00    -0.240 NA
HETATM   20  C   UNL     1     -40.863  52.443 -54.570  1.00  0.00     0.155 A 
ENDBRANCH   8  11
ENDBRANCH   1   7
BRANCH   4  21
HETATM   21  N   UNL     1     -44.138  59.178 -59.137  1.00  0.00    -0.309 N 
HETATM   22  C   UNL     1     -43.606  60.114 -59.968  1.00  0.00     0.320 C 
HETATM   23  N   UNL     1     -42.258  60.267 -59.979  1.00  0.00    -0.339 N 
HETATM   24  O   UNL     1     -44.373  60.817 -60.623  1.00  0.00    -0.247 OA
HETATM   25  H   UNL     1     -41.774  59.965 -59.149  1.00  0.00     0.164 HD
HETATM   26  H   UNL     1     -45.142  59.305 -59.077  1.00  0.00     0.170 HD
BRANCH  23  27
HETATM   27  C   UNL     1     -41.620  61.312 -60.743  1.00  0.00     0.150 C 
BRANCH  27  28
HETATM   28  C   UNL     1     -40.719  62.143 -59.879  1.00  0.00    -0.018 C 
HETATM   29  C   UNL     1     -40.564  62.074 -58.549  1.00  0.00     0.008 C 
ENDBRANCH  27  28
ENDBRANCH  23  27
ENDBRANCH   4  21
TORSDOF 5
ENDMDL
