MODEL 1
REMARK VINA RESULT:      -7.5      0.000      0.000
REMARK  7 active torsions:
REMARK  status: ('A' for Active; 'I' for Inactive)
REMARK    1  A    between atoms: C_7  and  C_8 
REMARK    2  A    between atoms: C_8  and  C_9 
REMARK    3  A    between atoms: C_9  and  C_10 
REMARK    4  A    between atoms: C_10  and  O_11 
REMARK    5  A    between atoms: C_13  and  C_14 
REMARK    6  A    between atoms: C_21  and  C_22 
REMARK       I    between atoms: C_22  and  N_23 
REMARK    7  A    between atoms: N_23  and  C_24 
ROOT
HETATM    1  C   UNL     1     -42.908  56.093 -56.584  1.00  0.00     0.070 C 
HETATM    2  C   UNL     1     -43.196  56.893 -55.338  1.00  0.00     0.037 C 
HETATM    3  N   UNL     1     -43.783  58.143 -55.550  1.00  0.00    -0.192 N 
HETATM    4  C   UNL     1     -44.368  58.839 -54.554  1.00  0.00     0.726 A 
HETATM    5  N   UNL     1     -44.126  58.472 -53.262  1.00  0.00    -0.083 N 
HETATM    6  N   UNL     1     -44.871  59.182 -52.392  1.00  0.00    -0.140 NA
HETATM    7  C   UNL     1     -45.527  59.994 -53.235  1.00  0.00     0.166 A 
HETATM    8  N   UNL     1     -45.232  59.822 -54.570  1.00  0.00    -0.046 NA
HETATM    9  C   UNL     1     -43.237  57.376 -52.880  1.00  0.00     0.202 C 
HETATM   10  C   UNL     1     -42.941  56.467 -54.071  1.00  0.00     0.062 C 
HETATM   11  H   UNL     1     -44.093  58.340 -56.499  1.00  0.00     0.184 HD
ENDROOT
BRANCH  10  12
HETATM   12  C   UNL     1     -42.600  55.034 -53.794  1.00  0.00     0.256 C 
HETATM   13  N   UNL     1     -41.252  54.751 -53.776  1.00  0.00    -0.323 N 
HETATM   14  H   UNL     1     -40.602  55.467 -54.070  1.00  0.00     0.169 HD
HETATM   15  O   UNL     1     -43.502  54.243 -53.542  1.00  0.00    -0.267 OA
BRANCH  13  16
HETATM   16  C   UNL     1     -40.638  53.546 -53.366  1.00  0.00     0.035 A 
HETATM   17  C   UNL     1     -40.281  52.510 -54.231  1.00  0.00     0.029 A 
HETATM   18  C   UNL     1     -39.703  51.336 -53.735  1.00  0.00     0.002 A 
HETATM   19  C   UNL     1     -39.486  51.185 -52.368  1.00  0.00     0.000 A 
HETATM   20  C   UNL     1     -39.837  52.210 -51.496  1.00  0.00     0.002 A 
HETATM   21  C   UNL     1     -40.403  53.387 -51.992  1.00  0.00     0.029 A 
ENDBRANCH  13  16
ENDBRANCH  10  12
BRANCH   9  22
HETATM   22  C   UNL     1     -41.980  57.967 -52.233  1.00  0.00    -0.028 A 
HETATM   23  C   UNL     1     -41.851  57.965 -50.833  1.00  0.00     0.011 A 
HETATM   24  C   UNL     1     -40.716  58.500 -50.220  1.00  0.00     0.019 A 
HETATM   25  C   UNL     1     -39.700  59.048 -50.999  1.00  0.00     0.011 A 
HETATM   26 BR   UNL     1     -38.165  59.772 -50.169  1.00  0.00    -0.051 Br
HETATM   27  C   UNL     1     -39.813  59.073 -52.386  1.00  0.00     0.019 A 
HETATM   28  C   UNL     1     -40.949  58.543 -53.001  1.00  0.00     0.011 A 
ENDBRANCH   9  22
BRANCH   7  29
HETATM   29  C   UNL     1     -46.543  60.969 -52.767  1.00  0.00     0.085 C 
BRANCH  29  30
HETATM   30  C   UNL     1     -45.951  62.093 -51.918  1.00  0.00     0.034 C 
BRANCH  30  31
HETATM   31  C   UNL     1     -46.342  62.007 -50.447  1.00  0.00     0.164 C 
BRANCH  31  32
HETATM   32  O   UNL     1     -46.103  60.688 -49.965  1.00  0.00    -0.401 OA
HETATM   33  H   UNL     1     -46.881  60.420 -49.447  1.00  0.00     0.209 HD
ENDBRANCH  31  32
ENDBRANCH  30  31
ENDBRANCH  29  30
ENDBRANCH   7  29
TORSDOF 7
ENDMDL
MODEL 2
REMARK VINA RESULT:      -7.5      4.464      6.504
REMARK  7 active torsions:
REMARK  status: ('A' for Active; 'I' for Inactive)
REMARK    1  A    between atoms: C_7  and  C_8 
REMARK    2  A    between atoms: C_8  and  C_9 
REMARK    3  A    between atoms: C_9  and  C_10 
REMARK    4  A    between atoms: C_10  and  O_11 
REMARK    5  A    between atoms: C_13  and  C_14 
REMARK    6  A    between atoms: C_21  and  C_22 
REMARK       I    between atoms: C_22  and  N_23 
REMARK    7  A    between atoms: N_23  and  C_24 
ROOT
HETATM    1  C   UNL     1     -43.329  57.782 -53.216  1.00  0.00     0.070 C 
HETATM    2  C   UNL     1     -43.012  58.072 -54.662  1.00  0.00     0.037 C 
HETATM    3  N   UNL     1     -42.981  59.424 -55.010  1.00  0.00    -0.192 N 
HETATM    4  C   UNL     1     -42.429  59.856 -56.162  1.00  0.00     0.726 A 
HETATM    5  N   UNL     1     -42.164  58.950 -57.148  1.00  0.00    -0.083 N 
HETATM    6  N   UNL     1     -41.508  59.512 -58.182  1.00  0.00    -0.140 NA
HETATM    7  C   UNL     1     -41.435  60.785 -57.764  1.00  0.00     0.166 A 
HETATM    8  N   UNL     1     -42.003  61.037 -56.534  1.00  0.00    -0.046 NA
HETATM    9  C   UNL     1     -42.473  57.525 -57.047  1.00  0.00     0.202 C 
HETATM   10  C   UNL     1     -42.746  57.122 -55.599  1.00  0.00     0.062 C 
HETATM   11  H   UNL     1     -43.031  60.089 -54.241  1.00  0.00     0.184 HD
ENDROOT
BRANCH  10  12
HETATM   12  C   UNL     1     -42.474  55.703 -55.202  1.00  0.00     0.256 C 
HETATM   13  N   UNL     1     -41.223  55.480 -54.667  1.00  0.00    -0.323 N 
HETATM   14  H   UNL     1     -40.543  56.227 -54.697  1.00  0.00     0.169 HD
HETATM   15  O   UNL     1     -43.367  54.870 -55.306  1.00  0.00    -0.267 OA
BRANCH  13  16
HETATM   16  C   UNL     1     -40.759  54.299 -54.043  1.00  0.00     0.035 A 
HETATM   17  C   UNL     1     -40.294  53.177 -54.731  1.00  0.00     0.029 A 
HETATM   18  C   UNL     1     -39.880  52.037 -54.033  1.00  0.00     0.002 A 
HETATM   19  C   UNL     1     -39.937  52.006 -52.642  1.00  0.00     0.000 A 
HETATM   20  C   UNL     1     -40.399  53.119 -51.946  1.00  0.00     0.002 A 
HETATM   21  C   UNL     1     -40.801  54.262 -52.642  1.00  0.00     0.029 A 
ENDBRANCH  13  16
ENDBRANCH  10  12
BRANCH   9  22
HETATM   22  C   UNL     1     -43.631  57.205 -57.999  1.00  0.00    -0.028 A 
HETATM   23  C   UNL     1     -44.825  57.943 -57.915  1.00  0.00     0.011 A 
HETATM   24  C   UNL     1     -45.895  57.670 -58.769  1.00  0.00     0.019 A 
HETATM   25  C   UNL     1     -45.786  56.651 -59.713  1.00  0.00     0.011 A 
HETATM   26 BR   UNL     1     -47.234  56.281 -60.869  1.00  0.00    -0.051 Br
HETATM   27  C   UNL     1     -44.619  55.899 -59.805  1.00  0.00     0.019 A 
HETATM   28  C   UNL     1     -43.549  56.168 -58.948  1.00  0.00     0.011 A 
ENDBRANCH   9  22
BRANCH   7  29
HETATM   29  C   UNL     1     -40.738  61.837 -58.545  1.00  0.00     0.085 C 
BRANCH  29  30
HETATM   30  C   UNL     1     -41.583  62.395 -59.689  1.00  0.00     0.034 C 
BRANCH  30  31
HETATM   31  C   UNL     1     -41.204  61.824 -61.052  1.00  0.00     0.164 C 
BRANCH  31  32
HETATM   32  O   UNL     1     -41.750  60.516 -61.191  1.00  0.00    -0.401 OA
HETATM   33  H   UNL     1     -42.675  60.550 -60.893  1.00  0.00     0.209 HD
ENDBRANCH  31  32
ENDBRANCH  30  31
ENDBRANCH  29  30
ENDBRANCH   7  29
TORSDOF 7
ENDMDL
MODEL 3
REMARK VINA RESULT:      -7.1      3.741      6.549
REMARK  7 active torsions:
REMARK  status: ('A' for Active; 'I' for Inactive)
REMARK    1  A    between atoms: C_7  and  C_8 
REMARK    2  A    between atoms: C_8  and  C_9 
REMARK    3  A    between atoms: C_9  and  C_10 
REMARK    4  A    between atoms: C_10  and  O_11 
REMARK    5  A    between atoms: C_13  and  C_14 
REMARK    6  A    between atoms: C_21  and  C_22 
REMARK       I    between atoms: C_22  and  N_23 
REMARK    7  A    between atoms: N_23  and  C_24 
ROOT
HETATM    1  C   UNL     1     -41.970  59.442 -58.147  1.00  0.00     0.070 C 
HETATM    2  C   UNL     1     -42.296  58.827 -56.808  1.00  0.00     0.037 C 
HETATM    3  N   UNL     1     -41.800  59.513 -55.696  1.00  0.00    -0.192 N 
HETATM    4  C   UNL     1     -42.247  59.272 -54.446  1.00  0.00     0.726 A 
HETATM    5  N   UNL     1     -42.973  58.140 -54.212  1.00  0.00    -0.083 N 
HETATM    6  N   UNL     1     -43.447  58.102 -52.951  1.00  0.00    -0.140 NA
HETATM    7  C   UNL     1     -42.936  59.243 -52.462  1.00  0.00     0.166 A 
HETATM    8  N   UNL     1     -42.182  59.981 -53.347  1.00  0.00    -0.046 NA
HETATM    9  C   UNL     1     -43.275  57.141 -55.234  1.00  0.00     0.202 C 
HETATM   10  C   UNL     1     -43.036  57.698 -56.636  1.00  0.00     0.062 C 
HETATM   11  H   UNL     1     -41.393  60.429 -55.876  1.00  0.00     0.184 HD
ENDROOT
BRANCH  10  12
HETATM   12  C   UNL     1     -43.828  57.117 -57.769  1.00  0.00     0.256 C 
HETATM   13  N   UNL     1     -45.057  57.704 -57.978  1.00  0.00    -0.323 N 
HETATM   14  H   UNL     1     -45.396  58.373 -57.301  1.00  0.00     0.169 HD
HETATM   15  O   UNL     1     -43.327  56.236 -58.458  1.00  0.00    -0.267 OA
BRANCH  13  16
HETATM   16  C   UNL     1     -45.929  57.492 -59.070  1.00  0.00     0.035 A 
HETATM   17  C   UNL     1     -46.139  56.254 -59.681  1.00  0.00     0.029 A 
HETATM   18  C   UNL     1     -47.000  56.140 -60.778  1.00  0.00     0.002 A 
HETATM   19  C   UNL     1     -47.650  57.265 -61.280  1.00  0.00     0.000 A 
HETATM   20  C   UNL     1     -47.449  58.504 -60.679  1.00  0.00     0.002 A 
HETATM   21  C   UNL     1     -46.599  58.616 -59.576  1.00  0.00     0.029 A 
ENDBRANCH  13  16
ENDBRANCH  10  12
BRANCH   9  22
HETATM   22  C   UNL     1     -42.470  55.872 -54.935  1.00  0.00    -0.028 A 
HETATM   23  C   UNL     1     -43.132  54.720 -54.476  1.00  0.00     0.011 A 
HETATM   24  C   UNL     1     -42.420  53.552 -54.193  1.00  0.00     0.019 A 
HETATM   25  C   UNL     1     -41.037  53.525 -54.360  1.00  0.00     0.011 A 
HETATM   26 BR   UNL     1     -40.074  51.946 -53.977  1.00  0.00    -0.051 Br
HETATM   27  C   UNL     1     -40.359  54.659 -54.799  1.00  0.00     0.019 A 
HETATM   28  C   UNL     1     -41.069  55.829 -55.077  1.00  0.00     0.011 A 
ENDBRANCH   9  22
BRANCH   7  29
HETATM   29  C   UNL     1     -43.215  59.707 -51.080  1.00  0.00     0.085 C 
BRANCH  29  30
HETATM   30  C   UNL     1     -41.982  60.269 -50.374  1.00  0.00     0.034 C 
BRANCH  30  31
HETATM   31  C   UNL     1     -40.830  59.273 -50.289  1.00  0.00     0.164 C 
BRANCH  31  32
HETATM   32  O   UNL     1     -39.848  59.592 -51.270  1.00  0.00    -0.401 OA
HETATM   33  H   UNL     1     -39.701  58.796 -51.809  1.00  0.00     0.209 HD
ENDBRANCH  31  32
ENDBRANCH  30  31
ENDBRANCH  29  30
ENDBRANCH   7  29
TORSDOF 7
ENDMDL
MODEL 4
REMARK VINA RESULT:      -7.0      3.540      6.273
REMARK  7 active torsions:
REMARK  status: ('A' for Active; 'I' for Inactive)
REMARK    1  A    between atoms: C_7  and  C_8 
REMARK    2  A    between atoms: C_8  and  C_9 
REMARK    3  A    between atoms: C_9  and  C_10 
REMARK    4  A    between atoms: C_10  and  O_11 
REMARK    5  A    between atoms: C_13  and  C_14 
REMARK    6  A    between atoms: C_21  and  C_22 
REMARK       I    between atoms: C_22  and  N_23 
REMARK    7  A    between atoms: N_23  and  C_24 
ROOT
HETATM    1  C   UNL     1     -41.863  59.502 -57.957  1.00  0.00     0.070 C 
HETATM    2  C   UNL     1     -42.226  58.849 -56.646  1.00  0.00     0.037 C 
HETATM    3  N   UNL     1     -41.770  59.508 -55.501  1.00  0.00    -0.192 N 
HETATM    4  C   UNL     1     -42.253  59.230 -54.273  1.00  0.00     0.726 A 
HETATM    5  N   UNL     1     -42.977  58.086 -54.092  1.00  0.00    -0.083 N 
HETATM    6  N   UNL     1     -43.489  58.010 -52.848  1.00  0.00    -0.140 NA
HETATM    7  C   UNL     1     -43.003  59.141 -52.312  1.00  0.00     0.166 A 
HETATM    8  N   UNL     1     -42.228  59.908 -53.154  1.00  0.00    -0.046 NA
HETATM    9  C   UNL     1     -43.239  57.113 -55.150  1.00  0.00     0.202 C 
HETATM   10  C   UNL     1     -42.961  57.710 -56.528  1.00  0.00     0.062 C 
HETATM   11  H   UNL     1     -41.365  60.431 -55.644  1.00  0.00     0.184 HD
ENDROOT
BRANCH  10  12
HETATM   12  C   UNL     1     -43.713  57.154 -57.700  1.00  0.00     0.256 C 
HETATM   13  N   UNL     1     -44.971  57.685 -57.887  1.00  0.00    -0.323 N 
HETATM   14  H   UNL     1     -45.350  58.295 -57.175  1.00  0.00     0.169 HD
HETATM   15  O   UNL     1     -43.160  56.343 -58.435  1.00  0.00    -0.267 OA
BRANCH  13  16
HETATM   16  C   UNL     1     -45.823  57.491 -58.998  1.00  0.00     0.035 A 
HETATM   17  C   UNL     1     -45.992  56.272 -59.656  1.00  0.00     0.029 A 
HETATM   18  C   UNL     1     -46.835  56.175 -60.769  1.00  0.00     0.002 A 
HETATM   19  C   UNL     1     -47.509  57.300 -61.237  1.00  0.00     0.000 A 
HETATM   20  C   UNL     1     -47.350  58.521 -60.589  1.00  0.00     0.002 A 
HETATM   21  C   UNL     1     -46.517  58.614 -59.471  1.00  0.00     0.029 A 
ENDBRANCH  13  16
ENDBRANCH  10  12
BRANCH   9  22
HETATM   22  C   UNL     1     -42.433  55.843 -54.860  1.00  0.00    -0.028 A 
HETATM   23  C   UNL     1     -43.071  54.731 -54.283  1.00  0.00     0.011 A 
HETATM   24  C   UNL     1     -42.358  53.562 -54.006  1.00  0.00     0.019 A 
HETATM   25  C   UNL     1     -40.998  53.495 -54.297  1.00  0.00     0.011 A 
HETATM   26 BR   UNL     1     -40.033  51.914 -53.923  1.00  0.00    -0.051 Br
HETATM   27  C   UNL     1     -40.342  54.588 -54.856  1.00  0.00     0.019 A 
HETATM   28  C   UNL     1     -41.053  55.759 -55.128  1.00  0.00     0.011 A 
ENDBRANCH   9  22
BRANCH   7  29
HETATM   29  C   UNL     1     -43.328  59.565 -50.928  1.00  0.00     0.085 C 
BRANCH  29  30
HETATM   30  C   UNL     1     -44.539  60.493 -50.852  1.00  0.00     0.034 C 
BRANCH  30  31
HETATM   31  C   UNL     1     -45.860  59.748 -50.687  1.00  0.00     0.164 C 
BRANCH  31  32
HETATM   32  O   UNL     1     -45.840  59.001 -49.475  1.00  0.00    -0.401 OA
HETATM   33  H   UNL     1     -46.750  58.710 -49.294  1.00  0.00     0.209 HD
ENDBRANCH  31  32
ENDBRANCH  30  31
ENDBRANCH  29  30
ENDBRANCH   7  29
TORSDOF 7
ENDMDL
MODEL 5
REMARK VINA RESULT:      -6.9      2.837      3.913
REMARK  7 active torsions:
REMARK  status: ('A' for Active; 'I' for Inactive)
REMARK    1  A    between atoms: C_7  and  C_8 
REMARK    2  A    between atoms: C_8  and  C_9 
REMARK    3  A    between atoms: C_9  and  C_10 
REMARK    4  A    between atoms: C_10  and  O_11 
REMARK    5  A    between atoms: C_13  and  C_14 
REMARK    6  A    between atoms: C_21  and  C_22 
REMARK       I    between atoms: C_22  and  N_23 
REMARK    7  A    between atoms: N_23  and  C_24 
ROOT
HETATM    1  C   UNL     1     -44.328  54.718 -50.269  1.00  0.00     0.070 C 
HETATM    2  C   UNL     1     -44.091  56.044 -50.947  1.00  0.00     0.037 C 
HETATM    3  N   UNL     1     -45.032  57.038 -50.668  1.00  0.00    -0.192 N 
HETATM    4  C   UNL     1     -44.806  58.339 -50.944  1.00  0.00     0.726 A 
HETATM    5  N   UNL     1     -43.778  58.667 -51.781  1.00  0.00    -0.083 N 
HETATM    6  N   UNL     1     -43.606  60.001 -51.863  1.00  0.00    -0.140 NA
HETATM    7  C   UNL     1     -44.597  60.426 -51.065  1.00  0.00     0.166 A 
HETATM    8  N   UNL     1     -45.364  59.434 -50.494  1.00  0.00    -0.046 NA
HETATM    9  C   UNL     1     -42.913  57.684 -52.431  1.00  0.00     0.202 C 
HETATM   10  C   UNL     1     -43.038  56.315 -51.765  1.00  0.00     0.062 C 
HETATM   11  H   UNL     1     -45.703  56.829 -49.931  1.00  0.00     0.184 HD
ENDROOT
BRANCH  10  12
HETATM   12  C   UNL     1     -41.864  55.386 -51.843  1.00  0.00     0.256 C 
HETATM   13  N   UNL     1     -42.108  54.196 -52.494  1.00  0.00    -0.323 N 
HETATM   14  H   UNL     1     -43.059  53.971 -52.753  1.00  0.00     0.169 HD
HETATM   15  O   UNL     1     -40.780  55.753 -51.402  1.00  0.00    -0.267 OA
BRANCH  13  16
HETATM   16  C   UNL     1     -41.158  53.221 -52.876  1.00  0.00     0.035 A 
HETATM   17  C   UNL     1     -40.972  52.774 -54.185  1.00  0.00     0.029 A 
HETATM   18  C   UNL     1     -40.026  51.782 -54.469  1.00  0.00     0.002 A 
HETATM   19  C   UNL     1     -39.266  51.224 -53.445  1.00  0.00     0.000 A 
HETATM   20  C   UNL     1     -39.442  51.662 -52.137  1.00  0.00     0.002 A 
HETATM   21  C   UNL     1     -40.378  52.661 -51.854  1.00  0.00     0.029 A 
ENDBRANCH  13  16
ENDBRANCH  10  12
BRANCH   9  22
HETATM   22  C   UNL     1     -43.231  57.666 -53.930  1.00  0.00    -0.028 A 
HETATM   23  C   UNL     1     -44.567  57.758 -54.359  1.00  0.00     0.011 A 
HETATM   24  C   UNL     1     -44.883  57.741 -55.719  1.00  0.00     0.019 A 
HETATM   25  C   UNL     1     -43.868  57.626 -56.666  1.00  0.00     0.011 A 
HETATM   26 BR   UNL     1     -44.296  57.603 -58.506  1.00  0.00    -0.051 Br
HETATM   27  C   UNL     1     -42.540  57.520 -56.264  1.00  0.00     0.019 A 
HETATM   28  C   UNL     1     -42.222  57.532 -54.903  1.00  0.00     0.011 A 
ENDBRANCH   9  22
BRANCH   7  29
HETATM   29  C   UNL     1     -44.814  61.864 -50.770  1.00  0.00     0.085 C 
BRANCH  29  30
HETATM   30  C   UNL     1     -45.578  62.103 -49.469  1.00  0.00     0.034 C 
BRANCH  30  31
HETATM   31  C   UNL     1     -44.705  61.975 -48.225  1.00  0.00     0.164 C 
BRANCH  31  32
HETATM   32  O   UNL     1     -44.902  60.696 -47.630  1.00  0.00    -0.401 OA
HETATM   33  H   UNL     1     -45.682  60.295 -48.049  1.00  0.00     0.209 HD
ENDBRANCH  31  32
ENDBRANCH  30  31
ENDBRANCH  29  30
ENDBRANCH   7  29
TORSDOF 7
ENDMDL
MODEL 6
REMARK VINA RESULT:      -6.8      4.044      7.873
REMARK  7 active torsions:
REMARK  status: ('A' for Active; 'I' for Inactive)
REMARK    1  A    between atoms: C_7  and  C_8 
REMARK    2  A    between atoms: C_8  and  C_9 
REMARK    3  A    between atoms: C_9  and  C_10 
REMARK    4  A    between atoms: C_10  and  O_11 
REMARK    5  A    between atoms: C_13  and  C_14 
REMARK    6  A    between atoms: C_21  and  C_22 
REMARK       I    between atoms: C_22  and  N_23 
REMARK    7  A    between atoms: N_23  and  C_24 
ROOT
HETATM    1  C   UNL     1     -44.431  57.285 -58.575  1.00  0.00     0.070 C 
HETATM    2  C   UNL     1     -43.650  57.125 -57.294  1.00  0.00     0.037 C 
HETATM    3  N   UNL     1     -43.552  55.818 -56.810  1.00  0.00    -0.192 N 
HETATM    4  C   UNL     1     -42.656  55.468 -55.865  1.00  0.00     0.726 A 
HETATM    5  N   UNL     1     -42.036  56.450 -55.147  1.00  0.00    -0.083 N 
HETATM    6  N   UNL     1     -41.087  55.950 -54.331  1.00  0.00    -0.140 NA
HETATM    7  C   UNL     1     -41.210  54.638 -54.586  1.00  0.00     0.166 A 
HETATM    8  N   UNL     1     -42.173  54.303 -55.513  1.00  0.00    -0.046 NA
HETATM    9  C   UNL     1     -42.308  57.876 -55.316  1.00  0.00     0.202 C 
HETATM   10  C   UNL     1     -43.044  58.145 -56.627  1.00  0.00     0.062 C 
HETATM   11  H   UNL     1     -43.887  55.082 -57.429  1.00  0.00     0.184 HD
ENDROOT
BRANCH  10  12
HETATM   12  C   UNL     1     -42.871  59.489 -57.268  1.00  0.00     0.256 C 
HETATM   13  N   UNL     1     -41.748  59.615 -58.056  1.00  0.00    -0.323 N 
HETATM   14  H   UNL     1     -41.064  58.871 -58.050  1.00  0.00     0.169 HD
HETATM   15  O   UNL     1     -43.740  60.340 -57.115  1.00  0.00    -0.267 OA
BRANCH  13  16
HETATM   16  C   UNL     1     -41.426  60.689 -58.918  1.00  0.00     0.035 A 
HETATM   17  C   UNL     1     -41.763  60.738 -60.273  1.00  0.00     0.029 A 
HETATM   18  C   UNL     1     -41.379  61.829 -61.061  1.00  0.00     0.002 A 
HETATM   19  C   UNL     1     -40.647  62.874 -60.503  1.00  0.00     0.000 A 
HETATM   20  C   UNL     1     -40.307  62.836 -59.155  1.00  0.00     0.002 A 
HETATM   21  C   UNL     1     -40.700  61.753 -58.365  1.00  0.00     0.029 A 
ENDBRANCH  13  16
ENDBRANCH  10  12
BRANCH   9  22
HETATM   22  C   UNL     1     -43.057  58.383 -54.079  1.00  0.00    -0.028 A 
HETATM   23  C   UNL     1     -42.583  59.517 -53.396  1.00  0.00     0.011 A 
HETATM   24  C   UNL     1     -43.246  59.997 -52.264  1.00  0.00     0.019 A 
HETATM   25  C   UNL     1     -44.387  59.346 -51.800  1.00  0.00     0.011 A 
HETATM   26 BR   UNL     1     -45.284  59.996 -50.270  1.00  0.00    -0.051 Br
HETATM   27  C   UNL     1     -44.865  58.214 -52.453  1.00  0.00     0.019 A 
HETATM   28  C   UNL     1     -44.200  57.729 -53.582  1.00  0.00     0.011 A 
ENDBRANCH   9  22
BRANCH   7  29
HETATM   29  C   UNL     1     -40.327  53.623 -53.958  1.00  0.00     0.085 C 
BRANCH  29  30
HETATM   30  C   UNL     1     -40.736  52.188 -54.283  1.00  0.00     0.034 C 
BRANCH  30  31
HETATM   31  C   UNL     1     -39.741  51.149 -53.774  1.00  0.00     0.164 C 
BRANCH  31  32
HETATM   32  O   UNL     1     -39.767  50.005 -54.623  1.00  0.00    -0.401 OA
HETATM   33  H   UNL     1     -39.843  49.220 -54.055  1.00  0.00     0.209 HD
ENDBRANCH  31  32
ENDBRANCH  30  31
ENDBRANCH  29  30
ENDBRANCH   7  29
TORSDOF 7
ENDMDL
MODEL 7
REMARK VINA RESULT:      -6.7      3.055      5.404
REMARK  7 active torsions:
REMARK  status: ('A' for Active; 'I' for Inactive)
REMARK    1  A    between atoms: C_7  and  C_8 
REMARK    2  A    between atoms: C_8  and  C_9 
REMARK    3  A    between atoms: C_9  and  C_10 
REMARK    4  A    between atoms: C_10  and  O_11 
REMARK    5  A    between atoms: C_13  and  C_14 
REMARK    6  A    between atoms: C_21  and  C_22 
REMARK       I    between atoms: C_22  and  N_23 
REMARK    7  A    between atoms: N_23  and  C_24 
ROOT
HETATM    1  C   UNL     1     -42.017  60.171 -57.235  1.00  0.00     0.070 C 
HETATM    2  C   UNL     1     -42.320  59.571 -55.884  1.00  0.00     0.037 C 
HETATM    3  N   UNL     1     -41.724  60.212 -54.795  1.00  0.00    -0.192 N 
HETATM    4  C   UNL     1     -42.126  59.993 -53.526  1.00  0.00     0.726 A 
HETATM    5  N   UNL     1     -42.916  58.912 -53.261  1.00  0.00    -0.083 N 
HETATM    6  N   UNL     1     -43.329  58.897 -51.979  1.00  0.00    -0.140 NA
HETATM    7  C   UNL     1     -42.718  59.996 -51.510  1.00  0.00     0.166 A 
HETATM    8  N   UNL     1     -41.959  60.687 -52.429  1.00  0.00    -0.046 NA
HETATM    9  C   UNL     1     -43.336  57.944 -54.272  1.00  0.00     0.202 C 
HETATM   10  C   UNL     1     -43.127  58.494 -55.682  1.00  0.00     0.062 C 
HETATM   11  H   UNL     1     -41.264  61.099 -54.991  1.00  0.00     0.184 HD
ENDROOT
BRANCH  10  12
HETATM   12  C   UNL     1     -44.011  57.977 -56.776  1.00  0.00     0.256 C 
HETATM   13  N   UNL     1     -43.361  57.258 -57.756  1.00  0.00    -0.323 N 
HETATM   14  H   UNL     1     -42.351  57.235 -57.751  1.00  0.00     0.169 HD
HETATM   15  O   UNL     1     -45.221  58.158 -56.703  1.00  0.00    -0.267 OA
BRANCH  13  16
HETATM   16  C   UNL     1     -43.952  56.505 -58.796  1.00  0.00     0.035 A 
HETATM   17  C   UNL     1     -44.654  57.060 -59.868  1.00  0.00     0.029 A 
HETATM   18  C   UNL     1     -45.233  56.237 -60.840  1.00  0.00     0.002 A 
HETATM   19  C   UNL     1     -45.124  54.853 -60.743  1.00  0.00     0.000 A 
HETATM   20  C   UNL     1     -44.427  54.288 -59.680  1.00  0.00     0.002 A 
HETATM   21  C   UNL     1     -43.838  55.110 -58.715  1.00  0.00     0.029 A 
ENDBRANCH  13  16
ENDBRANCH  10  12
BRANCH   9  22
HETATM   22  C   UNL     1     -42.606  56.620 -54.018  1.00  0.00    -0.028 A 
HETATM   23  C   UNL     1     -41.309  56.433 -54.527  1.00  0.00     0.011 A 
HETATM   24  C   UNL     1     -40.624  55.235 -54.311  1.00  0.00     0.019 A 
HETATM   25  C   UNL     1     -41.230  54.209 -53.590  1.00  0.00     0.011 A 
HETATM   26 BR   UNL     1     -40.303  52.589 -53.298  1.00  0.00    -0.051 Br
HETATM   27  C   UNL     1     -42.519  54.368 -53.089  1.00  0.00     0.019 A 
HETATM   28  C   UNL     1     -43.208  55.563 -53.308  1.00  0.00     0.011 A 
ENDBRANCH   9  22
BRANCH   7  29
HETATM   29  C   UNL     1     -42.896  60.467 -50.114  1.00  0.00     0.085 C 
BRANCH  29  30
HETATM   30  C   UNL     1     -44.121  61.362 -49.934  1.00  0.00     0.034 C 
BRANCH  30  31
HETATM   31  C   UNL     1     -45.382  60.589 -49.560  1.00  0.00     0.164 C 
BRANCH  31  32
HETATM   32  O   UNL     1     -46.342  61.480 -49.001  1.00  0.00    -0.401 OA
HETATM   33  H   UNL     1     -46.312  61.377 -48.035  1.00  0.00     0.209 HD
ENDBRANCH  31  32
ENDBRANCH  30  31
ENDBRANCH  29  30
ENDBRANCH   7  29
TORSDOF 7
ENDMDL
MODEL 8
REMARK VINA RESULT:      -6.7      3.049      4.127
REMARK  7 active torsions:
REMARK  status: ('A' for Active; 'I' for Inactive)
REMARK    1  A    between atoms: C_7  and  C_8 
REMARK    2  A    between atoms: C_8  and  C_9 
REMARK    3  A    between atoms: C_9  and  C_10 
REMARK    4  A    between atoms: C_10  and  O_11 
REMARK    5  A    between atoms: C_13  and  C_14 
REMARK    6  A    between atoms: C_21  and  C_22 
REMARK       I    between atoms: C_22  and  N_23 
REMARK    7  A    between atoms: N_23  and  C_24 
ROOT
HETATM    1  C   UNL     1     -44.171  55.043 -50.113  1.00  0.00     0.070 C 
HETATM    2  C   UNL     1     -43.756  56.215 -50.968  1.00  0.00     0.037 C 
HETATM    3  N   UNL     1     -44.524  57.372 -50.813  1.00  0.00    -0.192 N 
HETATM    4  C   UNL     1     -44.110  58.573 -51.267  1.00  0.00     0.726 A 
HETATM    5  N   UNL     1     -43.074  58.623 -52.154  1.00  0.00    -0.083 N 
HETATM    6  N   UNL     1     -42.702  59.891 -52.418  1.00  0.00    -0.140 NA
HETATM    7  C   UNL     1     -43.589  60.568 -51.671  1.00  0.00     0.166 A 
HETATM    8  N   UNL     1     -44.478  59.792 -50.961  1.00  0.00    -0.046 NA
HETATM    9  C   UNL     1     -42.393  57.440 -52.677  1.00  0.00     0.202 C 
HETATM   10  C   UNL     1     -42.703  56.207 -51.830  1.00  0.00     0.062 C 
HETATM   11  H   UNL     1     -45.193  57.369 -50.046  1.00  0.00     0.184 HD
ENDROOT
BRANCH  10  12
HETATM   12  C   UNL     1     -41.689  55.104 -51.797  1.00  0.00     0.256 C 
HETATM   13  N   UNL     1     -41.930  54.068 -52.674  1.00  0.00    -0.323 N 
HETATM   14  H   UNL     1     -42.810  54.049 -53.171  1.00  0.00     0.169 HD
HETATM   15  O   UNL     1     -40.708  55.215 -51.071  1.00  0.00    -0.267 OA
BRANCH  13  16
HETATM   16  C   UNL     1     -41.062  52.998 -52.990  1.00  0.00     0.035 A 
HETATM   17  C   UNL     1     -40.963  52.412 -54.253  1.00  0.00     0.029 A 
HETATM   18  C   UNL     1     -40.097  51.335 -54.471  1.00  0.00     0.002 A 
HETATM   19  C   UNL     1     -39.328  50.830 -53.426  1.00  0.00     0.000 A 
HETATM   20  C   UNL     1     -39.417  51.407 -52.162  1.00  0.00     0.002 A 
HETATM   21  C   UNL     1     -40.274  52.490 -51.948  1.00  0.00     0.029 A 
ENDBRANCH  13  16
ENDBRANCH  10  12
BRANCH   9  22
HETATM   22  C   UNL     1     -42.762  57.275 -54.155  1.00  0.00    -0.028 A 
HETATM   23  C   UNL     1     -44.015  57.719 -54.613  1.00  0.00     0.011 A 
HETATM   24  C   UNL     1     -44.376  57.577 -55.955  1.00  0.00     0.019 A 
HETATM   25  C   UNL     1     -43.490  56.985 -56.852  1.00  0.00     0.011 A 
HETATM   26 BR   UNL     1     -43.978  56.793 -58.667  1.00  0.00    -0.051 Br
HETATM   27  C   UNL     1     -42.250  56.525 -56.418  1.00  0.00     0.019 A 
HETATM   28  C   UNL     1     -41.890  56.662 -55.075  1.00  0.00     0.011 A 
ENDBRANCH   9  22
BRANCH   7  29
HETATM   29  C   UNL     1     -43.572  62.048 -51.571  1.00  0.00     0.085 C 
BRANCH  29  30
HETATM   30  C   UNL     1     -44.287  62.738 -52.732  1.00  0.00     0.034 C 
BRANCH  30  31
HETATM   31  C   UNL     1     -43.399  62.930 -53.957  1.00  0.00     0.164 C 
BRANCH  31  32
HETATM   32  O   UNL     1     -42.482  63.994 -53.722  1.00  0.00    -0.401 OA
HETATM   33  H   UNL     1     -42.459  64.545 -54.522  1.00  0.00     0.209 HD
ENDBRANCH  31  32
ENDBRANCH  30  31
ENDBRANCH  29  30
ENDBRANCH   7  29
TORSDOF 7
ENDMDL
MODEL 9
REMARK VINA RESULT:      -6.6      2.663      8.253
REMARK  7 active torsions:
REMARK  status: ('A' for Active; 'I' for Inactive)
REMARK    1  A    between atoms: C_7  and  C_8 
REMARK    2  A    between atoms: C_8  and  C_9 
REMARK    3  A    between atoms: C_9  and  C_10 
REMARK    4  A    between atoms: C_10  and  O_11 
REMARK    5  A    between atoms: C_13  and  C_14 
REMARK    6  A    between atoms: C_21  and  C_22 
REMARK       I    between atoms: C_22  and  N_23 
REMARK    7  A    between atoms: N_23  and  C_24 
ROOT
HETATM    1  C   UNL     1     -41.296  58.188 -50.678  1.00  0.00     0.070 C 
HETATM    2  C   UNL     1     -41.770  57.268 -51.776  1.00  0.00     0.037 C 
HETATM    3  N   UNL     1     -40.835  56.329 -52.218  1.00  0.00    -0.192 N 
HETATM    4  C   UNL     1     -41.187  55.261 -52.963  1.00  0.00     0.726 A 
HETATM    5  N   UNL     1     -42.418  55.245 -53.553  1.00  0.00    -0.083 N 
HETATM    6  N   UNL     1     -42.667  54.067 -54.159  1.00  0.00    -0.140 NA
HETATM    7  C   UNL     1     -41.516  53.420 -53.920  1.00  0.00     0.166 A 
HETATM    8  N   UNL     1     -40.578  54.127 -53.200  1.00  0.00    -0.046 NA
HETATM    9  C   UNL     1     -43.382  56.339 -53.455  1.00  0.00     0.202 C 
HETATM   10  C   UNL     1     -43.018  57.294 -52.319  1.00  0.00     0.062 C 
HETATM   11  H   UNL     1     -39.979  56.253 -51.672  1.00  0.00     0.184 HD
ENDROOT
BRANCH  10  12
HETATM   12  C   UNL     1     -44.125  58.069 -51.670  1.00  0.00     0.256 C 
HETATM   13  N   UNL     1     -44.142  59.414 -51.968  1.00  0.00    -0.323 N 
HETATM   14  H   UNL     1     -43.363  59.808 -52.477  1.00  0.00     0.169 HD
HETATM   15  O   UNL     1     -44.957  57.473 -50.996  1.00  0.00    -0.267 OA
BRANCH  13  16
HETATM   16  C   UNL     1     -45.159  60.344 -51.655  1.00  0.00     0.035 A 
HETATM   17  C   UNL     1     -46.224  60.662 -52.500  1.00  0.00     0.029 A 
HETATM   18  C   UNL     1     -47.172  61.618 -52.121  1.00  0.00     0.002 A 
HETATM   19  C   UNL     1     -47.058  62.272 -50.897  1.00  0.00     0.000 A 
HETATM   20  C   UNL     1     -46.002  61.964 -50.045  1.00  0.00     0.002 A 
HETATM   21  C   UNL     1     -45.062  61.000 -50.419  1.00  0.00     0.029 A 
ENDBRANCH  13  16
ENDBRANCH  10  12
BRANCH   9  22
HETATM   22  C   UNL     1     -43.485  57.026 -54.821  1.00  0.00    -0.028 A 
HETATM   23  C   UNL     1     -42.335  57.165 -55.618  1.00  0.00     0.011 A 
HETATM   24  C   UNL     1     -42.402  57.789 -56.866  1.00  0.00     0.019 A 
HETATM   25  C   UNL     1     -43.618  58.287 -57.328  1.00  0.00     0.011 A 
HETATM   26 BR   UNL     1     -43.709  59.132 -59.015  1.00  0.00    -0.051 Br
HETATM   27  C   UNL     1     -44.766  58.173 -56.549  1.00  0.00     0.019 A 
HETATM   28  C   UNL     1     -44.700  57.553 -55.299  1.00  0.00     0.011 A 
ENDBRANCH   9  22
BRANCH   7  29
HETATM   29  C   UNL     1     -41.293  52.017 -54.350  1.00  0.00     0.085 C 
BRANCH  29  30
HETATM   30  C   UNL     1     -39.970  51.438 -53.849  1.00  0.00     0.034 C 
BRANCH  30  31
HETATM   31  C   UNL     1     -39.716  50.013 -54.332  1.00  0.00     0.164 C 
BRANCH  31  32
HETATM   32  O   UNL     1     -39.493  49.161 -53.213  1.00  0.00    -0.401 OA
HETATM   33  H   UNL     1     -40.354  48.803 -52.940  1.00  0.00     0.209 HD
ENDBRANCH  31  32
ENDBRANCH  30  31
ENDBRANCH  29  30
ENDBRANCH   7  29
TORSDOF 7
ENDMDL
MODEL 10
REMARK VINA RESULT:      -6.4     18.019     20.387
REMARK  7 active torsions:
REMARK  status: ('A' for Active; 'I' for Inactive)
REMARK    1  A    between atoms: C_7  and  C_8 
REMARK    2  A    between atoms: C_8  and  C_9 
REMARK    3  A    between atoms: C_9  and  C_10 
REMARK    4  A    between atoms: C_10  and  O_11 
REMARK    5  A    between atoms: C_13  and  C_14 
REMARK    6  A    between atoms: C_21  and  C_22 
REMARK       I    between atoms: C_22  and  N_23 
REMARK    7  A    between atoms: N_23  and  C_24 
ROOT
HETATM    1  C   UNL     1     -34.630  41.860 -50.987  1.00  0.00     0.070 C 
HETATM    2  C   UNL     1     -34.439  40.966 -52.187  1.00  0.00     0.037 C 
HETATM    3  N   UNL     1     -33.129  40.871 -52.662  1.00  0.00    -0.192 N 
HETATM    4  C   UNL     1     -32.745  39.902 -53.518  1.00  0.00     0.726 A 
HETATM    5  N   UNL     1     -33.702  39.181 -54.172  1.00  0.00    -0.083 N 
HETATM    6  N   UNL     1     -33.166  38.177 -54.894  1.00  0.00    -0.140 NA
HETATM    7  C   UNL     1     -31.860  38.372 -54.655  1.00  0.00     0.166 A 
HETATM    8  N   UNL     1     -31.562  39.430 -53.825  1.00  0.00    -0.046 NA
HETATM    9  C   UNL     1     -35.137  39.414 -54.026  1.00  0.00     0.202 C 
HETATM   10  C   UNL     1     -35.435  40.262 -52.791  1.00  0.00     0.062 C 
HETATM   11  H   UNL     1     -32.406  41.291 -52.081  1.00  0.00     0.184 HD
ENDROOT
BRANCH  10  12
HETATM   12  C   UNL     1     -36.772  40.102 -52.134  1.00  0.00     0.256 C 
HETATM   13  N   UNL     1     -36.898  38.983 -51.339  1.00  0.00    -0.323 N 
HETATM   14  H   UNL     1     -36.158  38.294 -51.351  1.00  0.00     0.169 HD
HETATM   15  O   UNL     1     -37.619  40.976 -52.280  1.00  0.00    -0.267 OA
BRANCH  13  16
HETATM   16  C   UNL     1     -37.963  38.673 -50.463  1.00  0.00     0.035 A 
HETATM   17  C   UNL     1     -39.274  38.425 -50.874  1.00  0.00     0.029 A 
HETATM   18  C   UNL     1     -40.275  38.155 -49.935  1.00  0.00     0.002 A 
HETATM   19  C   UNL     1     -39.975  38.139 -48.575  1.00  0.00     0.000 A 
HETATM   20  C   UNL     1     -38.672  38.384 -48.153  1.00  0.00     0.002 A 
HETATM   21  C   UNL     1     -37.670  38.642 -49.092  1.00  0.00     0.029 A 
ENDBRANCH  13  16
ENDBRANCH  10  12
BRANCH   9  22
HETATM   22  C   UNL     1     -35.670  40.023 -55.328  1.00  0.00    -0.028 A 
HETATM   23  C   UNL     1     -35.068  41.180 -55.852  1.00  0.00     0.011 A 
HETATM   24  C   UNL     1     -35.536  41.756 -57.035  1.00  0.00     0.019 A 
HETATM   25  C   UNL     1     -36.616  41.184 -57.704  1.00  0.00     0.011 A 
HETATM   26 BR   UNL     1     -37.250  41.962 -59.305  1.00  0.00    -0.051 Br
HETATM   27  C   UNL     1     -37.236  40.046 -57.196  1.00  0.00     0.019 A 
HETATM   28  C   UNL     1     -36.772  39.473 -56.010  1.00  0.00     0.011 A 
ENDBRANCH   9  22
BRANCH   7  29
HETATM   29  C   UNL     1     -30.813  37.471 -55.198  1.00  0.00     0.085 C 
BRANCH  29  30
HETATM   30  C   UNL     1     -29.626  38.223 -55.799  1.00  0.00     0.034 C 
BRANCH  30  31
HETATM   31  C   UNL     1     -29.941  38.868 -57.145  1.00  0.00     0.164 C 
BRANCH  31  32
HETATM   32  O   UNL     1     -29.836  40.284 -57.033  1.00  0.00    -0.401 OA
HETATM   33  H   UNL     1     -29.528  40.624 -57.890  1.00  0.00     0.209 HD
ENDBRANCH  31  32
ENDBRANCH  30  31
ENDBRANCH  29  30
ENDBRANCH   7  29
TORSDOF 7
ENDMDL
