MODEL 1
REMARK VINA RESULT:      -8.5      0.000      0.000
REMARK  6 active torsions:
REMARK  status: ('A' for Active; 'I' for Inactive)
REMARK    1  A    between atoms: C_5  and  C_6 
REMARK    2  A    between atoms: C_6  and  N_7 
REMARK    3  A    between atoms: C_9  and  C_10 
REMARK    4  A    between atoms: C_17  and  C_18 
REMARK       I    between atoms: C_18  and  N_19 
REMARK    5  A    between atoms: N_19  and  C_20 
REMARK    6  A    between atoms: C_23  and  O_24 
ROOT
HETATM    1  N   UNL     1     -43.697  57.375 -56.968  1.00  0.00    -0.275 N 
HETATM    2  N   UNL     1     -42.804  56.374 -56.898  1.00  0.00    -0.171 NA
HETATM    3  C   UNL     1     -42.810  55.984 -55.608  1.00  0.00     0.104 A 
HETATM    4  C   UNL     1     -43.664  56.836 -54.834  1.00  0.00     0.080 A 
HETATM    5  C   UNL     1     -44.261  57.668 -55.766  1.00  0.00     0.132 A 
ENDROOT
BRANCH   4   6
HETATM    6  C   UNL     1     -43.927  56.948 -53.406  1.00  0.00     0.255 C 
HETATM    7  N   UNL     1     -43.270  56.024 -52.629  1.00  0.00    -0.352 N 
HETATM    8  H   UNL     1     -42.640  55.398 -53.114  1.00  0.00     0.163 HD
HETATM    9  O   UNL     1     -44.603  57.864 -52.958  1.00  0.00    -0.268 OA
BRANCH   7  10
HETATM   10  C   UNL     1     -43.150  56.033 -51.171  1.00  0.00     0.084 C 
HETATM   11  C   UNL     1     -43.125  54.621 -50.570  1.00  0.00     0.028 C 
HETATM   12  C   UNL     1     -41.727  54.028 -50.400  1.00  0.00     0.034 C 
HETATM   13  C   UNL     1     -40.786  54.984 -49.675  1.00  0.00     0.118 C 
HETATM   14  C   UNL     1     -40.700  56.341 -50.366  1.00  0.00     0.034 C 
HETATM   15  C   UNL     1     -42.071  56.973 -50.617  1.00  0.00     0.028 C 
BRANCH  13  16
HETATM   16  O   UNL     1     -41.255  55.183 -48.341  1.00  0.00    -0.396 OA
HETATM   17  H   UNL     1     -40.993  54.400 -47.826  1.00  0.00     0.210 HD
ENDBRANCH  13  16
ENDBRANCH   7  10
ENDBRANCH   4   6
BRANCH   3  18
HETATM   18  C   UNL     1     -41.981  54.837 -55.207  1.00  0.00    -0.005 A 
HETATM   19  C   UNL     1     -42.597  53.618 -54.879  1.00  0.00     0.014 A 
HETATM   20  C   UNL     1     -41.843  52.513 -54.473  1.00  0.00     0.007 A 
HETATM   21  C   UNL     1     -40.451  52.603 -54.382  1.00  0.00    -0.062 A 
HETATM   22  C   UNL     1     -39.652  51.406 -53.958  1.00  0.00     0.048 C 
HETATM   23  C   UNL     1     -39.830  53.814 -54.703  1.00  0.00     0.007 A 
HETATM   24  C   UNL     1     -40.588  54.925 -55.097  1.00  0.00     0.014 A 
ENDBRANCH   3  18
BRANCH   1  25
HETATM   25  C   UNL     1     -43.831  58.147 -58.197  1.00  0.00     0.189 C 
BRANCH  25  26
HETATM   26  C   UNL     1     -44.997  57.713 -59.048  1.00  0.00    -0.038 A 
HETATM   27  C   UNL     1     -46.061  58.589 -59.298  1.00  0.00     0.009 A 
HETATM   28  C   UNL     1     -47.104  58.217 -60.151  1.00  0.00     0.007 A 
HETATM   29  C   UNL     1     -47.109  56.958 -60.761  1.00  0.00    -0.062 A 
HETATM   30  C   UNL     1     -48.196  56.578 -61.722  1.00  0.00     0.048 C 
HETATM   31  C   UNL     1     -46.047  56.081 -60.514  1.00  0.00     0.007 A 
HETATM   32  C   UNL     1     -45.004  56.453 -59.663  1.00  0.00     0.009 A 
ENDBRANCH  25  26
ENDBRANCH   1  25
TORSDOF 6
ENDMDL
MODEL 2
REMARK VINA RESULT:      -8.5      3.275      7.619
REMARK  6 active torsions:
REMARK  status: ('A' for Active; 'I' for Inactive)
REMARK    1  A    between atoms: C_5  and  C_6 
REMARK    2  A    between atoms: C_6  and  N_7 
REMARK    3  A    between atoms: C_9  and  C_10 
REMARK    4  A    between atoms: C_17  and  C_18 
REMARK       I    between atoms: C_18  and  N_19 
REMARK    5  A    between atoms: N_19  and  C_20 
REMARK    6  A    between atoms: C_23  and  O_24 
ROOT
HETATM    1  N   UNL     1     -44.097  58.178 -53.335  1.00  0.00    -0.275 N 
HETATM    2  N   UNL     1     -43.515  56.997 -53.069  1.00  0.00    -0.171 NA
HETATM    3  C   UNL     1     -42.882  56.650 -54.206  1.00  0.00     0.104 A 
HETATM    4  C   UNL     1     -43.161  57.601 -55.242  1.00  0.00     0.080 A 
HETATM    5  C   UNL     1     -43.888  58.596 -54.612  1.00  0.00     0.132 A 
ENDROOT
BRANCH   4   6
HETATM    6  C   UNL     1     -42.853  57.641 -56.665  1.00  0.00     0.255 C 
HETATM    7  N   UNL     1     -43.563  56.746 -57.429  1.00  0.00    -0.352 N 
HETATM    8  H   UNL     1     -44.255  56.190 -56.941  1.00  0.00     0.163 HD
HETATM    9  O   UNL     1     -42.094  58.483 -57.124  1.00  0.00    -0.268 OA
BRANCH   7  10
HETATM   10  C   UNL     1     -43.645  56.712 -58.888  1.00  0.00     0.084 C 
HETATM   11  C   UNL     1     -43.276  55.341 -59.472  1.00  0.00     0.028 C 
HETATM   12  C   UNL     1     -44.459  54.394 -59.665  1.00  0.00     0.034 C 
HETATM   13  C   UNL     1     -45.603  55.058 -60.423  1.00  0.00     0.118 C 
HETATM   14  C   UNL     1     -46.066  56.347 -59.752  1.00  0.00     0.034 C 
HETATM   15  C   UNL     1     -44.922  57.325 -59.479  1.00  0.00     0.028 C 
BRANCH  13  16
HETATM   16  O   UNL     1     -45.171  55.366 -61.749  1.00  0.00    -0.396 OA
HETATM   17  H   UNL     1     -45.948  55.286 -62.329  1.00  0.00     0.210 HD
ENDBRANCH  13  16
ENDBRANCH   7  10
ENDBRANCH   4   6
BRANCH   3  18
HETATM   18  C   UNL     1     -42.072  55.422 -54.224  1.00  0.00    -0.005 A 
HETATM   19  C   UNL     1     -42.416  54.351 -53.384  1.00  0.00     0.014 A 
HETATM   20  C   UNL     1     -41.656  53.178 -53.358  1.00  0.00     0.007 A 
HETATM   21  C   UNL     1     -40.528  53.050 -54.174  1.00  0.00    -0.062 A 
HETATM   22  C   UNL     1     -39.729  51.780 -54.149  1.00  0.00     0.048 C 
HETATM   23  C   UNL     1     -40.176  54.112 -55.012  1.00  0.00     0.007 A 
HETATM   24  C   UNL     1     -40.931  55.293 -55.026  1.00  0.00     0.014 A 
ENDBRANCH   3  18
BRANCH   1  25
HETATM   25  C   UNL     1     -45.009  58.775 -52.367  1.00  0.00     0.189 C 
BRANCH  25  26
HETATM   26  C   UNL     1     -44.452  60.012 -51.710  1.00  0.00    -0.038 A 
HETATM   27  C   UNL     1     -43.217  59.971 -51.048  1.00  0.00     0.009 A 
HETATM   28  C   UNL     1     -42.661  61.134 -50.507  1.00  0.00     0.007 A 
HETATM   29  C   UNL     1     -43.333  62.357 -50.608  1.00  0.00    -0.062 A 
HETATM   30  C   UNL     1     -42.712  63.616 -50.080  1.00  0.00     0.048 C 
HETATM   31  C   UNL     1     -44.565  62.401 -51.269  1.00  0.00     0.007 A 
HETATM   32  C   UNL     1     -45.121  61.240 -51.812  1.00  0.00     0.009 A 
ENDBRANCH  25  26
ENDBRANCH   1  25
TORSDOF 6
ENDMDL
MODEL 3
REMARK VINA RESULT:      -8.3      1.729      3.106
REMARK  6 active torsions:
REMARK  status: ('A' for Active; 'I' for Inactive)
REMARK    1  A    between atoms: C_5  and  C_6 
REMARK    2  A    between atoms: C_6  and  N_7 
REMARK    3  A    between atoms: C_9  and  C_10 
REMARK    4  A    between atoms: C_17  and  C_18 
REMARK       I    between atoms: C_18  and  N_19 
REMARK    5  A    between atoms: N_19  and  C_20 
REMARK    6  A    between atoms: C_23  and  O_24 
ROOT
HETATM    1  N   UNL     1     -44.015  57.438 -56.840  1.00  0.00    -0.275 N 
HETATM    2  N   UNL     1     -43.081  56.473 -56.818  1.00  0.00    -0.171 NA
HETATM    3  C   UNL     1     -43.014  56.074 -55.533  1.00  0.00     0.104 A 
HETATM    4  C   UNL     1     -43.867  56.885 -54.715  1.00  0.00     0.080 A 
HETATM    5  C   UNL     1     -44.536  57.699 -55.612  1.00  0.00     0.132 A 
ENDROOT
BRANCH   4   6
HETATM    6  C   UNL     1     -44.071  56.976 -53.276  1.00  0.00     0.255 C 
HETATM    7  N   UNL     1     -43.394  56.033 -52.541  1.00  0.00    -0.352 N 
HETATM    8  H   UNL     1     -42.790  55.408 -53.061  1.00  0.00     0.163 HD
HETATM    9  O   UNL     1     -44.719  57.892 -52.786  1.00  0.00    -0.268 OA
BRANCH   7  10
HETATM   10  C   UNL     1     -43.215  56.016 -51.089  1.00  0.00     0.084 C 
HETATM   11  C   UNL     1     -43.154  54.594 -50.516  1.00  0.00     0.028 C 
HETATM   12  C   UNL     1     -41.745  54.011 -50.413  1.00  0.00     0.034 C 
HETATM   13  C   UNL     1     -40.784  54.963 -49.709  1.00  0.00     0.118 C 
HETATM   14  C   UNL     1     -40.738  56.332 -50.377  1.00  0.00     0.034 C 
HETATM   15  C   UNL     1     -42.122  56.956 -50.561  1.00  0.00     0.028 C 
BRANCH  13  16
HETATM   16  O   UNL     1     -41.201  55.132 -48.353  1.00  0.00    -0.396 OA
HETATM   17  H   UNL     1     -42.116  55.462 -48.374  1.00  0.00     0.210 HD
ENDBRANCH  13  16
ENDBRANCH   7  10
ENDBRANCH   4   6
BRANCH   3  18
HETATM   18  C   UNL     1     -42.124  54.958 -55.179  1.00  0.00    -0.005 A 
HETATM   19  C   UNL     1     -42.675  53.706 -54.858  1.00  0.00     0.014 A 
HETATM   20  C   UNL     1     -41.862  52.629 -54.495  1.00  0.00     0.007 A 
HETATM   21  C   UNL     1     -40.473  52.780 -54.443  1.00  0.00    -0.062 A 
HETATM   22  C   UNL     1     -39.609  51.613 -54.066  1.00  0.00     0.048 C 
HETATM   23  C   UNL     1     -39.915  54.023 -54.758  1.00  0.00     0.007 A 
HETATM   24  C   UNL     1     -40.734  55.106 -55.108  1.00  0.00     0.014 A 
ENDBRANCH   3  18
BRANCH   1  25
HETATM   25  C   UNL     1     -44.233  58.214 -58.055  1.00  0.00     0.189 C 
BRANCH  25  26
HETATM   26  C   UNL     1     -43.160  59.242 -58.305  1.00  0.00    -0.038 A 
HETATM   27  C   UNL     1     -42.715  59.505 -59.607  1.00  0.00     0.009 A 
HETATM   28  C   UNL     1     -41.778  60.514 -59.849  1.00  0.00     0.007 A 
HETATM   29  C   UNL     1     -41.260  61.271 -58.794  1.00  0.00    -0.062 A 
HETATM   30  C   UNL     1     -40.299  62.392 -59.056  1.00  0.00     0.048 C 
HETATM   31  C   UNL     1     -41.703  61.011 -57.492  1.00  0.00     0.007 A 
HETATM   32  C   UNL     1     -42.640  60.005 -57.249  1.00  0.00     0.009 A 
ENDBRANCH  25  26
ENDBRANCH   1  25
TORSDOF 6
ENDMDL
MODEL 4
REMARK VINA RESULT:      -8.1      3.245      7.473
REMARK  6 active torsions:
REMARK  status: ('A' for Active; 'I' for Inactive)
REMARK    1  A    between atoms: C_5  and  C_6 
REMARK    2  A    between atoms: C_6  and  N_7 
REMARK    3  A    between atoms: C_9  and  C_10 
REMARK    4  A    between atoms: C_17  and  C_18 
REMARK       I    between atoms: C_18  and  N_19 
REMARK    5  A    between atoms: N_19  and  C_20 
REMARK    6  A    between atoms: C_23  and  O_24 
ROOT
HETATM    1  N   UNL     1     -41.662  58.781 -52.523  1.00  0.00    -0.275 N 
HETATM    2  N   UNL     1     -41.102  57.563 -52.435  1.00  0.00    -0.171 NA
HETATM    3  C   UNL     1     -41.685  56.834 -53.406  1.00  0.00     0.104 A 
HETATM    4  C   UNL     1     -42.710  57.598 -54.055  1.00  0.00     0.080 A 
HETATM    5  C   UNL     1     -42.607  58.861 -53.497  1.00  0.00     0.132 A 
ENDROOT
BRANCH   4   6
HETATM    6  C   UNL     1     -43.716  57.266 -55.054  1.00  0.00     0.255 C 
HETATM    7  N   UNL     1     -43.246  57.209 -56.344  1.00  0.00    -0.352 N 
HETATM    8  H   UNL     1     -42.251  57.354 -56.465  1.00  0.00     0.163 HD
HETATM    9  O   UNL     1     -44.857  56.968 -54.726  1.00  0.00    -0.268 OA
BRANCH   7  10
HETATM   10  C   UNL     1     -43.951  56.679 -57.511  1.00  0.00     0.084 C 
HETATM   11  C   UNL     1     -44.646  57.774 -58.332  1.00  0.00     0.028 C 
HETATM   12  C   UNL     1     -43.797  58.356 -59.461  1.00  0.00     0.034 C 
HETATM   13  C   UNL     1     -43.193  57.266 -60.340  1.00  0.00     0.118 C 
HETATM   14  C   UNL     1     -42.377  56.263 -59.533  1.00  0.00     0.034 C 
HETATM   15  C   UNL     1     -43.149  55.675 -58.350  1.00  0.00     0.028 C 
BRANCH  13  16
HETATM   16  O   UNL     1     -44.244  56.565 -61.007  1.00  0.00    -0.396 OA
HETATM   17  H   UNL     1     -43.882  56.239 -61.849  1.00  0.00     0.210 HD
ENDBRANCH  13  16
ENDBRANCH   7  10
ENDBRANCH   4   6
BRANCH   3  18
HETATM   18  C   UNL     1     -41.232  55.452 -53.629  1.00  0.00    -0.005 A 
HETATM   19  C   UNL     1     -41.338  54.511 -52.592  1.00  0.00     0.014 A 
HETATM   20  C   UNL     1     -40.898  53.196 -52.760  1.00  0.00     0.007 A 
HETATM   21  C   UNL     1     -40.336  52.790 -53.975  1.00  0.00    -0.062 A 
HETATM   22  C   UNL     1     -39.881  51.371 -54.149  1.00  0.00     0.048 C 
HETATM   23  C   UNL     1     -40.224  53.720 -55.012  1.00  0.00     0.007 A 
HETATM   24  C   UNL     1     -40.653  55.043 -54.836  1.00  0.00     0.014 A 
ENDBRANCH   3  18
BRANCH   1  25
HETATM   25  C   UNL     1     -41.378  59.788 -51.508  1.00  0.00     0.189 C 
BRANCH  25  26
HETATM   26  C   UNL     1     -42.621  60.382 -50.897  1.00  0.00    -0.038 A 
HETATM   27  C   UNL     1     -42.658  61.735 -50.532  1.00  0.00     0.009 A 
HETATM   28  C   UNL     1     -43.835  62.307 -50.039  1.00  0.00     0.007 A 
HETATM   29  C   UNL     1     -44.993  61.536 -49.891  1.00  0.00    -0.062 A 
HETATM   30  C   UNL     1     -46.271  62.160 -49.418  1.00  0.00     0.048 C 
HETATM   31  C   UNL     1     -44.959  60.186 -50.255  1.00  0.00     0.007 A 
HETATM   32  C   UNL     1     -43.785  59.613 -50.749  1.00  0.00     0.009 A 
ENDBRANCH  25  26
ENDBRANCH   1  25
TORSDOF 6
ENDMDL
MODEL 5
REMARK VINA RESULT:      -8.1      2.214      3.059
REMARK  6 active torsions:
REMARK  status: ('A' for Active; 'I' for Inactive)
REMARK    1  A    between atoms: C_5  and  C_6 
REMARK    2  A    between atoms: C_6  and  N_7 
REMARK    3  A    between atoms: C_9  and  C_10 
REMARK    4  A    between atoms: C_17  and  C_18 
REMARK       I    between atoms: C_18  and  N_19 
REMARK    5  A    between atoms: N_19  and  C_20 
REMARK    6  A    between atoms: C_23  and  O_24 
ROOT
HETATM    1  N   UNL     1     -43.573  56.236 -57.443  1.00  0.00    -0.275 N 
HETATM    2  N   UNL     1     -42.857  55.189 -57.003  1.00  0.00    -0.171 NA
HETATM    3  C   UNL     1     -42.510  55.503 -55.739  1.00  0.00     0.104 A 
HETATM    4  C   UNL     1     -42.944  56.832 -55.420  1.00  0.00     0.080 A 
HETATM    5  C   UNL     1     -43.679  57.230 -56.523  1.00  0.00     0.132 A 
ENDROOT
BRANCH   4   6
HETATM    6  C   UNL     1     -42.723  57.702 -54.273  1.00  0.00     0.255 C 
HETATM    7  N   UNL     1     -43.543  57.452 -53.199  1.00  0.00    -0.352 N 
HETATM    8  H   UNL     1     -44.177  56.668 -53.291  1.00  0.00     0.163 HD
HETATM    9  O   UNL     1     -41.806  58.512 -54.262  1.00  0.00    -0.268 OA
BRANCH   7  10
HETATM   10  C   UNL     1     -43.403  57.991 -51.846  1.00  0.00     0.084 C 
HETATM   11  C   UNL     1     -42.412  57.191 -50.988  1.00  0.00     0.028 C 
HETATM   12  C   UNL     1     -40.974  57.703 -51.037  1.00  0.00     0.034 C 
HETATM   13  C   UNL     1     -40.892  59.202 -50.772  1.00  0.00     0.118 C 
HETATM   14  C   UNL     1     -41.767  60.004 -51.729  1.00  0.00     0.034 C 
HETATM   15  C   UNL     1     -43.215  59.512 -51.772  1.00  0.00     0.028 C 
BRANCH  13  16
HETATM   16  O   UNL     1     -41.321  59.466 -49.435  1.00  0.00    -0.396 OA
HETATM   17  H   UNL     1     -41.410  60.431 -49.349  1.00  0.00     0.210 HD
ENDBRANCH  13  16
ENDBRANCH   7  10
ENDBRANCH   4   6
BRANCH   3  18
HETATM   18  C   UNL     1     -41.771  54.517 -54.937  1.00  0.00    -0.005 A 
HETATM   19  C   UNL     1     -42.229  54.184 -53.652  1.00  0.00     0.014 A 
HETATM   20  C   UNL     1     -41.540  53.268 -52.852  1.00  0.00     0.007 A 
HETATM   21  C   UNL     1     -40.370  52.664 -53.320  1.00  0.00    -0.062 A 
HETATM   22  C   UNL     1     -39.647  51.671 -52.458  1.00  0.00     0.048 C 
HETATM   23  C   UNL     1     -39.903  52.991 -54.597  1.00  0.00     0.007 A 
HETATM   24  C   UNL     1     -40.588  53.920 -55.392  1.00  0.00     0.014 A 
ENDBRANCH   3  18
BRANCH   1  25
HETATM   25  C   UNL     1     -43.977  56.305 -58.842  1.00  0.00     0.189 C 
BRANCH  25  26
HETATM   26  C   UNL     1     -43.488  57.548 -59.541  1.00  0.00    -0.038 A 
HETATM   27  C   UNL     1     -42.150  57.661 -59.941  1.00  0.00     0.009 A 
HETATM   28  C   UNL     1     -41.713  58.777 -60.659  1.00  0.00     0.007 A 
HETATM   29  C   UNL     1     -42.602  59.807 -60.982  1.00  0.00    -0.062 A 
HETATM   30  C   UNL     1     -42.150  60.979 -61.802  1.00  0.00     0.048 C 
HETATM   31  C   UNL     1     -43.939  59.698 -60.585  1.00  0.00     0.007 A 
HETATM   32  C   UNL     1     -44.377  58.582 -59.869  1.00  0.00     0.009 A 
ENDBRANCH  25  26
ENDBRANCH   1  25
TORSDOF 6
ENDMDL
MODEL 6
REMARK VINA RESULT:      -8.1      2.644      8.497
REMARK  6 active torsions:
REMARK  status: ('A' for Active; 'I' for Inactive)
REMARK    1  A    between atoms: C_5  and  C_6 
REMARK    2  A    between atoms: C_6  and  N_7 
REMARK    3  A    between atoms: C_9  and  C_10 
REMARK    4  A    between atoms: C_17  and  C_18 
REMARK       I    between atoms: C_18  and  N_19 
REMARK    5  A    between atoms: N_19  and  C_20 
REMARK    6  A    between atoms: C_23  and  O_24 
ROOT
HETATM    1  N   UNL     1     -41.817  55.619 -52.432  1.00  0.00    -0.275 N 
HETATM    2  N   UNL     1     -42.728  56.446 -51.893  1.00  0.00    -0.171 NA
HETATM    3  C   UNL     1     -43.057  57.302 -52.879  1.00  0.00     0.104 A 
HETATM    4  C   UNL     1     -42.252  57.058 -54.040  1.00  0.00     0.080 A 
HETATM    5  C   UNL     1     -41.522  55.925 -53.723  1.00  0.00     0.132 A 
ENDROOT
BRANCH   4   6
HETATM    6  C   UNL     1     -42.099  57.756 -55.309  1.00  0.00     0.255 C 
HETATM    7  N   UNL     1     -42.604  57.084 -56.396  1.00  0.00    -0.352 N 
HETATM    8  H   UNL     1     -43.069  56.205 -56.204  1.00  0.00     0.163 HD
HETATM    9  O   UNL     1     -41.645  58.891 -55.355  1.00  0.00    -0.268 OA
BRANCH   7  10
HETATM   10  C   UNL     1     -42.807  57.622 -57.741  1.00  0.00     0.084 C 
HETATM   11  C   UNL     1     -42.647  56.558 -58.836  1.00  0.00     0.028 C 
HETATM   12  C   UNL     1     -43.943  55.851 -59.229  1.00  0.00     0.034 C 
HETATM   13  C   UNL     1     -45.061  56.840 -59.540  1.00  0.00     0.118 C 
HETATM   14  C   UNL     1     -45.317  57.801 -58.385  1.00  0.00     0.034 C 
HETATM   15  C   UNL     1     -44.049  58.509 -57.902  1.00  0.00     0.028 C 
BRANCH  13  16
HETATM   16  O   UNL     1     -44.705  57.602 -60.695  1.00  0.00    -0.396 OA
HETATM   17  H   UNL     1     -45.354  58.322 -60.773  1.00  0.00     0.210 HD
ENDBRANCH  13  16
ENDBRANCH   7  10
ENDBRANCH   4   6
BRANCH   3  18
HETATM   18  C   UNL     1     -44.104  58.305 -52.632  1.00  0.00    -0.005 A 
HETATM   19  C   UNL     1     -44.605  59.064 -53.702  1.00  0.00     0.014 A 
HETATM   20  C   UNL     1     -45.584  60.041 -53.502  1.00  0.00     0.007 A 
HETATM   21  C   UNL     1     -46.085  60.285 -52.220  1.00  0.00    -0.062 A 
HETATM   22  C   UNL     1     -47.147  61.325 -52.019  1.00  0.00     0.048 C 
HETATM   23  C   UNL     1     -45.591  59.536 -51.147  1.00  0.00     0.007 A 
HETATM   24  C   UNL     1     -44.599  58.567 -51.348  1.00  0.00     0.014 A 
ENDBRANCH   3  18
BRANCH   1  25
HETATM   25  C   UNL     1     -41.117  54.657 -51.590  1.00  0.00     0.189 C 
BRANCH  25  26
HETATM   26  C   UNL     1     -40.640  53.443 -52.345  1.00  0.00    -0.038 A 
HETATM   27  C   UNL     1     -39.832  52.486 -51.716  1.00  0.00     0.009 A 
HETATM   28  C   UNL     1     -39.454  51.321 -52.389  1.00  0.00     0.007 A 
HETATM   29  C   UNL     1     -39.868  51.094 -53.706  1.00  0.00    -0.062 A 
HETATM   30  C   UNL     1     -39.513  49.819 -54.411  1.00  0.00     0.048 C 
HETATM   31  C   UNL     1     -40.675  52.047 -54.336  1.00  0.00     0.007 A 
HETATM   32  C   UNL     1     -41.055  53.211 -53.664  1.00  0.00     0.009 A 
ENDBRANCH  25  26
ENDBRANCH   1  25
TORSDOF 6
ENDMDL
MODEL 7
REMARK VINA RESULT:      -8.1      2.328      3.457
REMARK  6 active torsions:
REMARK  status: ('A' for Active; 'I' for Inactive)
REMARK    1  A    between atoms: C_5  and  C_6 
REMARK    2  A    between atoms: C_6  and  N_7 
REMARK    3  A    between atoms: C_9  and  C_10 
REMARK    4  A    between atoms: C_17  and  C_18 
REMARK       I    between atoms: C_18  and  N_19 
REMARK    5  A    between atoms: N_19  and  C_20 
REMARK    6  A    between atoms: C_23  and  O_24 
ROOT
HETATM    1  N   UNL     1     -42.551  56.395 -56.192  1.00  0.00    -0.275 N 
HETATM    2  N   UNL     1     -41.744  55.387 -55.819  1.00  0.00    -0.171 NA
HETATM    3  C   UNL     1     -41.934  55.254 -54.492  1.00  0.00     0.104 A 
HETATM    4  C   UNL     1     -42.817  56.277 -54.010  1.00  0.00     0.080 A 
HETATM    5  C   UNL     1     -43.236  56.938 -55.152  1.00  0.00     0.132 A 
ENDROOT
BRANCH   4   6
HETATM    6  C   UNL     1     -43.245  56.674 -52.676  1.00  0.00     0.255 C 
HETATM    7  N   UNL     1     -43.184  58.025 -52.434  1.00  0.00    -0.352 N 
HETATM    8  H   UNL     1     -42.899  58.608 -53.212  1.00  0.00     0.163 HD
HETATM    9  O   UNL     1     -43.709  55.857 -51.893  1.00  0.00    -0.268 OA
BRANCH   7  10
HETATM   10  C   UNL     1     -43.759  58.737 -51.293  1.00  0.00     0.084 C 
HETATM   11  C   UNL     1     -43.052  60.070 -51.008  1.00  0.00     0.028 C 
HETATM   12  C   UNL     1     -43.668  61.278 -51.712  1.00  0.00     0.034 C 
HETATM   13  C   UNL     1     -45.174  61.361 -51.490  1.00  0.00     0.118 C 
HETATM   14  C   UNL     1     -45.889  60.084 -51.917  1.00  0.00     0.034 C 
HETATM   15  C   UNL     1     -45.291  58.823 -51.289  1.00  0.00     0.028 C 
BRANCH  13  16
HETATM   16  O   UNL     1     -45.432  61.585 -50.103  1.00  0.00    -0.396 OA
HETATM   17  H   UNL     1     -44.596  61.876 -49.700  1.00  0.00     0.210 HD
ENDBRANCH  13  16
ENDBRANCH   7  10
ENDBRANCH   4   6
BRANCH   3  18
HETATM   18  C   UNL     1     -41.243  54.171 -53.778  1.00  0.00    -0.005 A 
HETATM   19  C   UNL     1     -40.944  52.975 -54.452  1.00  0.00     0.014 A 
HETATM   20  C   UNL     1     -40.308  51.916 -53.799  1.00  0.00     0.007 A 
HETATM   21  C   UNL     1     -39.956  52.027 -52.451  1.00  0.00    -0.062 A 
HETATM   22  C   UNL     1     -39.260  50.888 -51.765  1.00  0.00     0.048 C 
HETATM   23  C   UNL     1     -40.252  53.212 -51.770  1.00  0.00     0.007 A 
HETATM   24  C   UNL     1     -40.903  54.268 -52.423  1.00  0.00     0.014 A 
ENDBRANCH   3  18
BRANCH   1  25
HETATM   25  C   UNL     1     -42.479  56.920 -57.550  1.00  0.00     0.189 C 
BRANCH  25  26
HETATM   26  C   UNL     1     -43.748  56.709 -58.336  1.00  0.00    -0.038 A 
HETATM   27  C   UNL     1     -44.757  57.682 -58.334  1.00  0.00     0.009 A 
HETATM   28  C   UNL     1     -45.898  57.525 -59.125  1.00  0.00     0.007 A 
HETATM   29  C   UNL     1     -46.059  56.389 -59.924  1.00  0.00    -0.062 A 
HETATM   30  C   UNL     1     -47.255  56.245 -60.817  1.00  0.00     0.048 C 
HETATM   31  C   UNL     1     -45.054  55.416 -59.929  1.00  0.00     0.007 A 
HETATM   32  C   UNL     1     -43.911  55.572 -59.141  1.00  0.00     0.009 A 
ENDBRANCH  25  26
ENDBRANCH   1  25
TORSDOF 6
ENDMDL
MODEL 8
REMARK VINA RESULT:      -8.0      2.547      3.886
REMARK  6 active torsions:
REMARK  status: ('A' for Active; 'I' for Inactive)
REMARK    1  A    between atoms: C_5  and  C_6 
REMARK    2  A    between atoms: C_6  and  N_7 
REMARK    3  A    between atoms: C_9  and  C_10 
REMARK    4  A    between atoms: C_17  and  C_18 
REMARK       I    between atoms: C_18  and  N_19 
REMARK    5  A    between atoms: N_19  and  C_20 
REMARK    6  A    between atoms: C_23  and  O_24 
ROOT
HETATM    1  N   UNL     1     -43.225  56.080 -57.380  1.00  0.00    -0.275 N 
HETATM    2  N   UNL     1     -42.591  55.039 -56.815  1.00  0.00    -0.171 NA
HETATM    3  C   UNL     1     -42.249  55.460 -55.582  1.00  0.00     0.104 A 
HETATM    4  C   UNL     1     -42.597  56.841 -55.413  1.00  0.00     0.080 A 
HETATM    5  C   UNL     1     -43.281  57.170 -56.571  1.00  0.00     0.132 A 
ENDROOT
BRANCH   4   6
HETATM    6  C   UNL     1     -42.340  57.809 -54.356  1.00  0.00     0.255 C 
HETATM    7  N   UNL     1     -43.449  58.496 -53.926  1.00  0.00    -0.352 N 
HETATM    8  H   UNL     1     -44.332  58.230 -54.346  1.00  0.00     0.163 HD
HETATM    9  O   UNL     1     -41.232  57.907 -53.845  1.00  0.00    -0.268 OA
BRANCH   7  10
HETATM   10  C   UNL     1     -43.548  59.346 -52.740  1.00  0.00     0.084 C 
HETATM   11  C   UNL     1     -44.494  60.538 -52.941  1.00  0.00     0.028 C 
HETATM   12  C   UNL     1     -45.942  60.276 -52.527  1.00  0.00     0.034 C 
HETATM   13  C   UNL     1     -46.037  59.690 -51.123  1.00  0.00     0.118 C 
HETATM   14  C   UNL     1     -45.210  58.418 -50.974  1.00  0.00     0.034 C 
HETATM   15  C   UNL     1     -43.757  58.591 -51.419  1.00  0.00     0.028 C 
BRANCH  13  16
HETATM   16  O   UNL     1     -45.564  60.653 -50.180  1.00  0.00    -0.396 OA
HETATM   17  H   UNL     1     -44.901  61.199 -50.637  1.00  0.00     0.210 HD
ENDBRANCH  13  16
ENDBRANCH   7  10
ENDBRANCH   4   6
BRANCH   3  18
HETATM   18  C   UNL     1     -41.596  54.517 -54.662  1.00  0.00    -0.005 A 
HETATM   19  C   UNL     1     -42.039  54.424 -53.332  1.00  0.00     0.014 A 
HETATM   20  C   UNL     1     -41.428  53.555 -52.424  1.00  0.00     0.007 A 
HETATM   21  C   UNL     1     -40.352  52.757 -52.826  1.00  0.00    -0.062 A 
HETATM   22  C   UNL     1     -39.714  51.817 -51.847  1.00  0.00     0.048 C 
HETATM   23  C   UNL     1     -39.902  52.844 -54.147  1.00  0.00     0.007 A 
HETATM   24  C   UNL     1     -40.508  53.727 -55.052  1.00  0.00     0.014 A 
ENDBRANCH   3  18
BRANCH   1  25
HETATM   25  C   UNL     1     -43.594  56.029 -58.790  1.00  0.00     0.189 C 
BRANCH  25  26
HETATM   26  C   UNL     1     -43.305  57.311 -59.527  1.00  0.00    -0.038 A 
HETATM   27  C   UNL     1     -42.001  57.616 -59.939  1.00  0.00     0.009 A 
HETATM   28  C   UNL     1     -41.742  58.765 -60.692  1.00  0.00     0.007 A 
HETATM   29  C   UNL     1     -42.780  59.636 -61.037  1.00  0.00    -0.062 A 
HETATM   30  C   UNL     1     -42.516  60.839 -61.893  1.00  0.00     0.048 C 
HETATM   31  C   UNL     1     -44.083  59.335 -60.627  1.00  0.00     0.007 A 
HETATM   32  C   UNL     1     -44.343  58.186 -59.877  1.00  0.00     0.009 A 
ENDBRANCH  25  26
ENDBRANCH   1  25
TORSDOF 6
ENDMDL
MODEL 9
REMARK VINA RESULT:      -8.0      3.520      8.498
REMARK  6 active torsions:
REMARK  status: ('A' for Active; 'I' for Inactive)
REMARK    1  A    between atoms: C_5  and  C_6 
REMARK    2  A    between atoms: C_6  and  N_7 
REMARK    3  A    between atoms: C_9  and  C_10 
REMARK    4  A    between atoms: C_17  and  C_18 
REMARK       I    between atoms: C_18  and  N_19 
REMARK    5  A    between atoms: N_19  and  C_20 
REMARK    6  A    between atoms: C_23  and  O_24 
ROOT
HETATM    1  N   UNL     1     -41.808  57.464 -54.683  1.00  0.00    -0.275 N 
HETATM    2  N   UNL     1     -42.459  56.711 -55.586  1.00  0.00    -0.171 NA
HETATM    3  C   UNL     1     -42.899  57.578 -56.519  1.00  0.00     0.104 A 
HETATM    4  C   UNL     1     -42.593  58.925 -56.132  1.00  0.00     0.080 A 
HETATM    5  C   UNL     1     -41.834  58.790 -54.982  1.00  0.00     0.132 A 
ENDROOT
BRANCH   4   6
HETATM    6  C   UNL     1     -42.947  60.224 -56.687  1.00  0.00     0.255 C 
HETATM    7  N   UNL     1     -42.024  60.743 -57.561  1.00  0.00    -0.352 N 
HETATM    8  H   UNL     1     -41.223  60.158 -57.769  1.00  0.00     0.163 HD
HETATM    9  O   UNL     1     -44.032  60.737 -56.450  1.00  0.00    -0.268 OA
BRANCH   7  10
HETATM   10  C   UNL     1     -42.204  61.896 -58.443  1.00  0.00     0.084 C 
HETATM   11  C   UNL     1     -41.033  62.886 -58.374  1.00  0.00     0.028 C 
HETATM   12  C   UNL     1     -39.927  62.633 -59.397  1.00  0.00     0.034 C 
HETATM   13  C   UNL     1     -40.481  62.487 -60.810  1.00  0.00     0.118 C 
HETATM   14  C   UNL     1     -41.540  61.395 -60.903  1.00  0.00     0.034 C 
HETATM   15  C   UNL     1     -42.657  61.554 -59.870  1.00  0.00     0.028 C 
BRANCH  13  16
HETATM   16  O   UNL     1     -41.067  63.725 -61.215  1.00  0.00    -0.396 OA
HETATM   17  H   UNL     1     -41.704  63.523 -61.922  1.00  0.00     0.210 HD
ENDBRANCH  13  16
ENDBRANCH   7  10
ENDBRANCH   4   6
BRANCH   3  18
HETATM   18  C   UNL     1     -43.597  57.056 -57.703  1.00  0.00    -0.005 A 
HETATM   19  C   UNL     1     -43.064  55.956 -58.395  1.00  0.00     0.014 A 
HETATM   20  C   UNL     1     -43.688  55.447 -59.537  1.00  0.00     0.007 A 
HETATM   21  C   UNL     1     -44.863  56.031 -60.018  1.00  0.00    -0.062 A 
HETATM   22  C   UNL     1     -45.532  55.467 -61.237  1.00  0.00     0.048 C 
HETATM   23  C   UNL     1     -45.400  57.129 -59.339  1.00  0.00     0.007 A 
HETATM   24  C   UNL     1     -44.765  57.646 -58.201  1.00  0.00     0.014 A 
ENDBRANCH   3  18
BRANCH   1  25
HETATM   25  C   UNL     1     -41.336  56.866 -53.441  1.00  0.00     0.189 C 
BRANCH  25  26
HETATM   26  C   UNL     1     -40.951  55.417 -53.587  1.00  0.00    -0.038 A 
HETATM   27  C   UNL     1     -41.289  54.487 -52.595  1.00  0.00     0.009 A 
HETATM   28  C   UNL     1     -41.004  53.129 -52.765  1.00  0.00     0.007 A 
HETATM   29  C   UNL     1     -40.366  52.676 -53.925  1.00  0.00    -0.062 A 
HETATM   30  C   UNL     1     -40.111  51.214 -54.136  1.00  0.00     0.048 C 
HETATM   31  C   UNL     1     -40.028  53.602 -54.917  1.00  0.00     0.007 A 
HETATM   32  C   UNL     1     -40.314  54.959 -54.750  1.00  0.00     0.009 A 
ENDBRANCH  25  26
ENDBRANCH   1  25
TORSDOF 6
ENDMDL
MODEL 10
REMARK VINA RESULT:      -7.9      3.026      7.325
REMARK  6 active torsions:
REMARK  status: ('A' for Active; 'I' for Inactive)
REMARK    1  A    between atoms: C_5  and  C_6 
REMARK    2  A    between atoms: C_6  and  N_7 
REMARK    3  A    between atoms: C_9  and  C_10 
REMARK    4  A    between atoms: C_17  and  C_18 
REMARK       I    between atoms: C_18  and  N_19 
REMARK    5  A    between atoms: N_19  and  C_20 
REMARK    6  A    between atoms: C_23  and  O_24 
ROOT
HETATM    1  N   UNL     1     -41.514  55.711 -52.524  1.00  0.00    -0.275 N 
HETATM    2  N   UNL     1     -42.141  55.506 -53.694  1.00  0.00    -0.171 NA
HETATM    3  C   UNL     1     -42.323  56.734 -54.218  1.00  0.00     0.104 A 
HETATM    4  C   UNL     1     -41.879  57.739 -53.298  1.00  0.00     0.080 A 
HETATM    5  C   UNL     1     -41.307  57.028 -52.257  1.00  0.00     0.132 A 
ENDROOT
BRANCH   4   6
HETATM    6  C   UNL     1     -41.964  59.193 -53.296  1.00  0.00     0.255 C 
HETATM    7  N   UNL     1     -42.997  59.705 -52.549  1.00  0.00    -0.352 N 
HETATM    8  H   UNL     1     -43.559  59.033 -52.041  1.00  0.00     0.163 HD
HETATM    9  O   UNL     1     -41.109  59.876 -53.844  1.00  0.00    -0.268 OA
BRANCH   7  10
HETATM   10  C   UNL     1     -43.194  61.104 -52.170  1.00  0.00     0.084 C 
HETATM   11  C   UNL     1     -44.585  61.632 -52.550  1.00  0.00     0.028 C 
HETATM   12  C   UNL     1     -45.641  61.480 -51.457  1.00  0.00     0.034 C 
HETATM   13  C   UNL     1     -45.159  62.027 -50.118  1.00  0.00     0.118 C 
HETATM   14  C   UNL     1     -43.849  61.387 -49.673  1.00  0.00     0.034 C 
HETATM   15  C   UNL     1     -42.756  61.455 -50.742  1.00  0.00     0.028 C 
BRANCH  13  16
HETATM   16  O   UNL     1     -44.961  63.437 -50.232  1.00  0.00    -0.396 OA
HETATM   17  H   UNL     1     -44.520  63.597 -51.084  1.00  0.00     0.210 HD
ENDBRANCH  13  16
ENDBRANCH   7  10
ENDBRANCH   4   6
BRANCH   3  18
HETATM   18  C   UNL     1     -42.926  56.856 -55.554  1.00  0.00    -0.005 A 
HETATM   19  C   UNL     1     -42.608  55.916 -56.548  1.00  0.00     0.014 A 
HETATM   20  C   UNL     1     -43.144  56.013 -57.835  1.00  0.00     0.007 A 
HETATM   21  C   UNL     1     -44.014  57.058 -58.160  1.00  0.00    -0.062 A 
HETATM   22  C   UNL     1     -44.595  57.144 -59.540  1.00  0.00     0.048 C 
HETATM   23  C   UNL     1     -44.334  58.001 -57.178  1.00  0.00     0.007 A 
HETATM   24  C   UNL     1     -43.784  57.910 -55.892  1.00  0.00     0.014 A 
ENDBRANCH   3  18
BRANCH   1  25
HETATM   25  C   UNL     1     -41.303  54.599 -51.606  1.00  0.00     0.189 C 
BRANCH  25  26
HETATM   26  C   UNL     1     -40.847  53.338 -52.294  1.00  0.00    -0.038 A 
HETATM   27  C   UNL     1     -41.238  53.066 -53.612  1.00  0.00     0.009 A 
HETATM   28  C   UNL     1     -40.753  51.938 -54.280  1.00  0.00     0.007 A 
HETATM   29  C   UNL     1     -39.877  51.055 -53.640  1.00  0.00    -0.062 A 
HETATM   30  C   UNL     1     -39.310  49.876 -54.372  1.00  0.00     0.048 C 
HETATM   31  C   UNL     1     -39.486  51.324 -52.325  1.00  0.00     0.007 A 
HETATM   32  C   UNL     1     -39.968  52.451 -51.657  1.00  0.00     0.009 A 
ENDBRANCH  25  26
ENDBRANCH   1  25
TORSDOF 6
ENDMDL
