MODEL 1
REMARK VINA RESULT:      -8.3      0.000      0.000
REMARK  6 active torsions:
REMARK  status: ('A' for Active; 'I' for Inactive)
REMARK    1  A    between atoms: C_3  and  C_4 
REMARK    2  A    between atoms: C_5  and  C_6 
REMARK       I    between atoms: C_6  and  N_7 
REMARK    3  A    between atoms: N_7  and  C_8 
REMARK    4  A    between atoms: C_8  and  C_9 
REMARK    5  A    between atoms: C_11  and  O_12 
REMARK    6  A    between atoms: O_12  and  C_13 
ROOT
HETATM    1  C   UNL     1     -40.237  51.957 -50.147  1.00  0.00     0.161 C 
ENDROOT
BRANCH   1   2
HETATM    2  N   UNL     1     -40.687  53.332 -50.128  1.00  0.00    -0.353 N 
HETATM    3  C   UNL     1     -40.893  53.996 -48.949  1.00  0.00     0.241 C 
HETATM    4  O   UNL     1     -40.780  53.488 -47.843  1.00  0.00    -0.269 OA
HETATM    5  H   UNL     1     -40.855  53.786 -51.016  1.00  0.00     0.163 HD
BRANCH   3   6
HETATM    6  C   UNL     1     -41.257  55.421 -49.154  1.00  0.00     0.075 C 
HETATM    7  C   UNL     1     -41.075  55.992 -50.354  1.00  0.00     0.018 C 
BRANCH   7   8
HETATM    8  C   UNL     1     -41.460  57.382 -50.660  1.00  0.00    -0.014 A 
HETATM    9  C   UNL     1     -40.515  58.414 -50.531  1.00  0.00     0.013 A 
HETATM   10  C   UNL     1     -40.849  59.738 -50.833  1.00  0.00     0.001 A 
HETATM   11  C   UNL     1     -42.129  60.050 -51.281  1.00  0.00     0.002 A 
HETATM   12  C   UNL     1     -43.075  59.038 -51.433  1.00  0.00     0.024 A 
HETATM   13  C   UNL     1     -42.746  57.711 -51.129  1.00  0.00     0.044 A 
HETATM   14 CL   UNL     1     -43.987  56.522 -51.331  1.00  0.00    -0.083 Cl
ENDBRANCH   7   8
ENDBRANCH   3   6
ENDBRANCH   1   2
BRANCH   1  15
HETATM   15  C   UNL     1     -40.037  51.473 -51.560  1.00  0.00    -0.038 A 
HETATM   16  C   UNL     1     -40.188  52.357 -52.639  1.00  0.00     0.046 A 
HETATM   17  C   UNL     1     -40.085  51.899 -53.954  1.00  0.00     0.078 A 
HETATM   18  C   UNL     1     -39.727  50.577 -54.204  1.00  0.00     0.037 A 
HETATM   19  C   UNL     1     -39.527  49.698 -53.138  1.00  0.00     0.003 A 
HETATM   20  C   UNL     1     -39.689  50.141 -51.823  1.00  0.00     0.009 A 
BRANCH  17  21
HETATM   21  O   UNL     1     -40.243  52.730 -55.038  1.00  0.00    -0.292 OA
BRANCH  21  22
HETATM   22  C   UNL     1     -41.026  53.870 -54.867  1.00  0.00     0.169 A 
HETATM   23  N   UNL     1     -42.372  53.806 -55.010  1.00  0.00    -0.237 NA
HETATM   24  C   UNL     1     -43.052  54.964 -54.861  1.00  0.00     0.119 A 
HETATM   25  C   UNL     1     -42.453  56.181 -54.578  1.00  0.00     0.019 A 
HETATM   26  C   UNL     1     -41.068  56.219 -54.448  1.00  0.00     0.006 A 
HETATM   27  C   UNL     1     -40.337  55.045 -54.601  1.00  0.00     0.058 A 
ENDBRANCH  21  22
ENDBRANCH  17  21
ENDBRANCH   1  15
TORSDOF 6
ENDMDL
MODEL 2
REMARK VINA RESULT:      -8.0      2.276      6.380
REMARK  6 active torsions:
REMARK  status: ('A' for Active; 'I' for Inactive)
REMARK    1  A    between atoms: C_3  and  C_4 
REMARK    2  A    between atoms: C_5  and  C_6 
REMARK       I    between atoms: C_6  and  N_7 
REMARK    3  A    between atoms: N_7  and  C_8 
REMARK    4  A    between atoms: C_8  and  C_9 
REMARK    5  A    between atoms: C_11  and  O_12 
REMARK    6  A    between atoms: O_12  and  C_13 
ROOT
HETATM    1  C   UNL     1     -40.975  57.104 -49.965  1.00  0.00     0.161 C 
ENDROOT
BRANCH   1   2
HETATM    2  N   UNL     1     -40.783  55.728 -50.366  1.00  0.00    -0.353 N 
HETATM    3  C   UNL     1     -40.834  54.709 -49.454  1.00  0.00     0.241 C 
HETATM    4  O   UNL     1     -40.979  54.867 -48.250  1.00  0.00    -0.269 OA
HETATM    5  H   UNL     1     -40.600  55.541 -51.343  1.00  0.00     0.163 HD
BRANCH   3   6
HETATM    6  C   UNL     1     -40.710  53.371 -50.086  1.00  0.00     0.075 C 
HETATM    7  C   UNL     1     -40.111  53.249 -51.281  1.00  0.00     0.018 C 
BRANCH   7   8
HETATM    8  C   UNL     1     -39.894  51.955 -51.953  1.00  0.00    -0.014 A 
HETATM    9  C   UNL     1     -39.724  50.789 -51.186  1.00  0.00     0.013 A 
HETATM   10  C   UNL     1     -39.536  49.546 -51.799  1.00  0.00     0.001 A 
HETATM   11  C   UNL     1     -39.527  49.446 -53.187  1.00  0.00     0.002 A 
HETATM   12  C   UNL     1     -39.713  50.588 -53.965  1.00  0.00     0.024 A 
HETATM   13  C   UNL     1     -39.899  51.835 -53.355  1.00  0.00     0.044 A 
HETATM   14 CL   UNL     1     -40.105  53.201 -54.398  1.00  0.00    -0.083 Cl
ENDBRANCH   7   8
ENDBRANCH   3   6
ENDBRANCH   1   2
BRANCH   1  15
HETATM   15  C   UNL     1     -41.829  57.844 -50.963  1.00  0.00    -0.038 A 
HETATM   16  C   UNL     1     -42.737  57.145 -51.773  1.00  0.00     0.046 A 
HETATM   17  C   UNL     1     -43.473  57.811 -52.755  1.00  0.00     0.078 A 
HETATM   18  C   UNL     1     -43.387  59.197 -52.868  1.00  0.00     0.037 A 
HETATM   19  C   UNL     1     -42.523  59.910 -52.036  1.00  0.00     0.003 A 
HETATM   20  C   UNL     1     -41.741  59.237 -51.094  1.00  0.00     0.009 A 
BRANCH  17  21
HETATM   21  O   UNL     1     -44.359  57.160 -53.580  1.00  0.00    -0.292 OA
BRANCH  21  22
HETATM   22  C   UNL     1     -43.839  56.500 -54.691  1.00  0.00     0.169 A 
HETATM   23  N   UNL     1     -43.595  57.177 -55.839  1.00  0.00    -0.237 NA
HETATM   24  C   UNL     1     -43.124  56.455 -56.879  1.00  0.00     0.119 A 
HETATM   25  C   UNL     1     -42.886  55.091 -56.828  1.00  0.00     0.019 A 
HETATM   26  C   UNL     1     -43.155  54.419 -55.639  1.00  0.00     0.006 A 
HETATM   27  C   UNL     1     -43.648  55.132 -54.550  1.00  0.00     0.058 A 
ENDBRANCH  21  22
ENDBRANCH  17  21
ENDBRANCH   1  15
TORSDOF 6
ENDMDL
MODEL 3
REMARK VINA RESULT:      -7.6      3.836      7.435
REMARK  6 active torsions:
REMARK  status: ('A' for Active; 'I' for Inactive)
REMARK    1  A    between atoms: C_3  and  C_4 
REMARK    2  A    between atoms: C_5  and  C_6 
REMARK       I    between atoms: C_6  and  N_7 
REMARK    3  A    between atoms: N_7  and  C_8 
REMARK    4  A    between atoms: C_8  and  C_9 
REMARK    5  A    between atoms: C_11  and  O_12 
REMARK    6  A    between atoms: O_12  and  C_13 
ROOT
HETATM    1  C   UNL     1     -43.687  57.380 -54.158  1.00  0.00     0.161 C 
ENDROOT
BRANCH   1   2
HETATM    2  N   UNL     1     -43.222  56.018 -54.015  1.00  0.00    -0.353 N 
HETATM    3  C   UNL     1     -42.098  55.724 -53.291  1.00  0.00     0.241 C 
HETATM    4  O   UNL     1     -41.375  56.561 -52.770  1.00  0.00    -0.269 OA
HETATM    5  H   UNL     1     -43.748  55.288 -54.476  1.00  0.00     0.163 HD
BRANCH   3   6
HETATM    6  C   UNL     1     -41.852  54.263 -53.189  1.00  0.00     0.075 C 
HETATM    7  C   UNL     1     -40.616  53.778 -53.383  1.00  0.00     0.018 C 
BRANCH   7   8
HETATM    8  C   UNL     1     -40.272  52.351 -53.245  1.00  0.00    -0.014 A 
HETATM    9  C   UNL     1     -40.267  51.520 -54.380  1.00  0.00     0.013 A 
HETATM   10  C   UNL     1     -39.925  50.168 -54.279  1.00  0.00     0.001 A 
HETATM   11  C   UNL     1     -39.572  49.626 -53.047  1.00  0.00     0.002 A 
HETATM   12  C   UNL     1     -39.554  50.438 -51.913  1.00  0.00     0.024 A 
HETATM   13  C   UNL     1     -39.898  51.792 -52.009  1.00  0.00     0.044 A 
HETATM   14 CL   UNL     1     -39.864  52.721 -50.549  1.00  0.00    -0.083 Cl
ENDBRANCH   7   8
ENDBRANCH   3   6
ENDBRANCH   1   2
BRANCH   1  15
HETATM   15  C   UNL     1     -43.126  58.015 -55.405  1.00  0.00    -0.038 A 
HETATM   16  C   UNL     1     -43.098  57.300 -56.612  1.00  0.00     0.046 A 
HETATM   17  C   UNL     1     -42.507  57.849 -57.751  1.00  0.00     0.078 A 
HETATM   18  C   UNL     1     -42.032  59.159 -57.725  1.00  0.00     0.037 A 
HETATM   19  C   UNL     1     -42.098  59.899 -56.544  1.00  0.00     0.003 A 
HETATM   20  C   UNL     1     -42.634  59.327 -55.387  1.00  0.00     0.009 A 
BRANCH  17  21
HETATM   21  O   UNL     1     -42.444  57.175 -58.947  1.00  0.00    -0.292 OA
BRANCH  21  22
HETATM   22  C   UNL     1     -43.635  56.675 -59.468  1.00  0.00     0.169 A 
HETATM   23  N   UNL     1     -44.659  57.512 -59.765  1.00  0.00    -0.237 NA
HETATM   24  C   UNL     1     -45.790  56.943 -60.234  1.00  0.00     0.119 A 
HETATM   25  C   UNL     1     -45.949  55.579 -60.420  1.00  0.00     0.019 A 
HETATM   26  C   UNL     1     -44.885  54.742 -60.098  1.00  0.00     0.006 A 
HETATM   27  C   UNL     1     -43.707  55.296 -59.605  1.00  0.00     0.058 A 
ENDBRANCH  21  22
ENDBRANCH  17  21
ENDBRANCH   1  15
TORSDOF 6
ENDMDL
MODEL 4
REMARK VINA RESULT:      -7.6      2.753      7.286
REMARK  6 active torsions:
REMARK  status: ('A' for Active; 'I' for Inactive)
REMARK    1  A    between atoms: C_3  and  C_4 
REMARK    2  A    between atoms: C_5  and  C_6 
REMARK       I    between atoms: C_6  and  N_7 
REMARK    3  A    between atoms: N_7  and  C_8 
REMARK    4  A    between atoms: C_8  and  C_9 
REMARK    5  A    between atoms: C_11  and  O_12 
REMARK    6  A    between atoms: O_12  and  C_13 
ROOT
HETATM    1  C   UNL     1     -42.870  55.641 -56.358  1.00  0.00     0.161 C 
ENDROOT
BRANCH   1   2
HETATM    2  N   UNL     1     -42.550  54.468 -55.575  1.00  0.00    -0.353 N 
HETATM    3  C   UNL     1     -41.309  54.299 -55.023  1.00  0.00     0.241 C 
HETATM    4  O   UNL     1     -40.371  55.066 -55.188  1.00  0.00    -0.269 OA
HETATM    5  H   UNL     1     -43.271  53.769 -55.454  1.00  0.00     0.163 HD
BRANCH   3   6
HETATM    6  C   UNL     1     -41.220  53.080 -54.179  1.00  0.00     0.075 C 
HETATM    7  C   UNL     1     -40.115  52.848 -53.455  1.00  0.00     0.018 C 
BRANCH   7   8
HETATM    8  C   UNL     1     -39.965  51.695 -52.548  1.00  0.00    -0.014 A 
HETATM    9  C   UNL     1     -40.119  51.873 -51.161  1.00  0.00     0.013 A 
HETATM   10  C   UNL     1     -40.001  50.793 -50.280  1.00  0.00     0.001 A 
HETATM   11  C   UNL     1     -39.740  49.517 -50.771  1.00  0.00     0.002 A 
HETATM   12  C   UNL     1     -39.602  49.318 -52.144  1.00  0.00     0.024 A 
HETATM   13  C   UNL     1     -39.717  50.397 -53.029  1.00  0.00     0.044 A 
HETATM   14 CL   UNL     1     -39.516  50.061 -54.715  1.00  0.00    -0.083 Cl
ENDBRANCH   7   8
ENDBRANCH   3   6
ENDBRANCH   1   2
BRANCH   1  15
HETATM   15  C   UNL     1     -43.573  56.677 -55.518  1.00  0.00    -0.038 A 
HETATM   16  C   UNL     1     -43.629  56.537 -54.123  1.00  0.00     0.046 A 
HETATM   17  C   UNL     1     -44.346  57.448 -53.345  1.00  0.00     0.078 A 
HETATM   18  C   UNL     1     -44.926  58.565 -53.941  1.00  0.00     0.037 A 
HETATM   19  C   UNL     1     -44.837  58.742 -55.322  1.00  0.00     0.003 A 
HETATM   20  C   UNL     1     -44.171  57.798 -56.109  1.00  0.00     0.009 A 
BRANCH  17  21
HETATM   21  O   UNL     1     -44.439  57.336 -51.979  1.00  0.00    -0.292 OA
BRANCH  21  22
HETATM   22  C   UNL     1     -43.445  56.615 -51.322  1.00  0.00     0.169 A 
HETATM   23  N   UNL     1     -43.697  55.367 -50.856  1.00  0.00    -0.237 NA
HETATM   24  C   UNL     1     -42.689  54.750 -50.201  1.00  0.00     0.119 A 
HETATM   25  C   UNL     1     -41.443  55.320 -49.989  1.00  0.00     0.019 A 
HETATM   26  C   UNL     1     -41.216  56.606 -50.468  1.00  0.00     0.006 A 
HETATM   27  C   UNL     1     -42.236  57.272 -51.141  1.00  0.00     0.058 A 
ENDBRANCH  21  22
ENDBRANCH  17  21
ENDBRANCH   1  15
TORSDOF 6
ENDMDL
MODEL 5
REMARK VINA RESULT:      -7.2      2.639      7.443
REMARK  6 active torsions:
REMARK  status: ('A' for Active; 'I' for Inactive)
REMARK    1  A    between atoms: C_3  and  C_4 
REMARK    2  A    between atoms: C_5  and  C_6 
REMARK       I    between atoms: C_6  and  N_7 
REMARK    3  A    between atoms: N_7  and  C_8 
REMARK    4  A    between atoms: C_8  and  C_9 
REMARK    5  A    between atoms: C_11  and  O_12 
REMARK    6  A    between atoms: O_12  and  C_13 
ROOT
HETATM    1  C   UNL     1     -42.998  55.790 -56.449  1.00  0.00     0.161 C 
ENDROOT
BRANCH   1   2
HETATM    2  N   UNL     1     -42.668  54.609 -55.681  1.00  0.00    -0.353 N 
HETATM    3  C   UNL     1     -41.408  54.416 -55.182  1.00  0.00     0.241 C 
HETATM    4  O   UNL     1     -40.464  55.165 -55.385  1.00  0.00    -0.269 OA
HETATM    5  H   UNL     1     -43.396  53.924 -55.531  1.00  0.00     0.163 HD
BRANCH   3   6
HETATM    6  C   UNL     1     -41.308  53.194 -54.343  1.00  0.00     0.075 C 
HETATM    7  C   UNL     1     -40.156  52.904 -53.719  1.00  0.00     0.018 C 
BRANCH   7   8
HETATM    8  C   UNL     1     -39.986  51.745 -52.824  1.00  0.00    -0.014 A 
HETATM    9  C   UNL     1     -39.776  50.466 -53.369  1.00  0.00     0.013 A 
HETATM   10  C   UNL     1     -39.593  49.354 -52.542  1.00  0.00     0.001 A 
HETATM   11  C   UNL     1     -39.604  49.502 -51.158  1.00  0.00     0.002 A 
HETATM   12  C   UNL     1     -39.792  50.765 -50.599  1.00  0.00     0.024 A 
HETATM   13  C   UNL     1     -39.979  51.882 -51.423  1.00  0.00     0.044 A 
HETATM   14 CL   UNL     1     -40.222  53.408 -50.644  1.00  0.00    -0.083 Cl
ENDBRANCH   7   8
ENDBRANCH   3   6
ENDBRANCH   1   2
BRANCH   1  15
HETATM   15  C   UNL     1     -43.684  56.820 -55.589  1.00  0.00    -0.038 A 
HETATM   16  C   UNL     1     -43.582  56.756 -54.191  1.00  0.00     0.046 A 
HETATM   17  C   UNL     1     -44.279  57.658 -53.384  1.00  0.00     0.078 A 
HETATM   18  C   UNL     1     -45.000  58.697 -53.967  1.00  0.00     0.037 A 
HETATM   19  C   UNL     1     -45.070  58.801 -55.357  1.00  0.00     0.003 A 
HETATM   20  C   UNL     1     -44.422  57.863 -56.164  1.00  0.00     0.009 A 
BRANCH  17  21
HETATM   21  O   UNL     1     -44.220  57.617 -52.012  1.00  0.00    -0.292 OA
BRANCH  21  22
HETATM   22  C   UNL     1     -43.119  58.210 -51.397  1.00  0.00     0.169 A 
HETATM   23  N   UNL     1     -43.112  59.539 -51.136  1.00  0.00    -0.237 NA
HETATM   24  C   UNL     1     -41.992  60.039 -50.569  1.00  0.00     0.119 A 
HETATM   25  C   UNL     1     -40.880  59.276 -50.252  1.00  0.00     0.019 A 
HETATM   26  C   UNL     1     -40.911  57.915 -50.541  1.00  0.00     0.006 A 
HETATM   27  C   UNL     1     -42.046  57.369 -51.131  1.00  0.00     0.058 A 
ENDBRANCH  21  22
ENDBRANCH  17  21
ENDBRANCH   1  15
TORSDOF 6
ENDMDL
MODEL 6
REMARK VINA RESULT:      -7.2      3.434      8.113
REMARK  6 active torsions:
REMARK  status: ('A' for Active; 'I' for Inactive)
REMARK    1  A    between atoms: C_3  and  C_4 
REMARK    2  A    between atoms: C_5  and  C_6 
REMARK       I    between atoms: C_6  and  N_7 
REMARK    3  A    between atoms: N_7  and  C_8 
REMARK    4  A    between atoms: C_8  and  C_9 
REMARK    5  A    between atoms: C_11  and  O_12 
REMARK    6  A    between atoms: O_12  and  C_13 
ROOT
HETATM    1  C   UNL     1     -43.087  57.411 -53.454  1.00  0.00     0.161 C 
ENDROOT
BRANCH   1   2
HETATM    2  N   UNL     1     -42.644  56.041 -53.586  1.00  0.00    -0.353 N 
HETATM    3  C   UNL     1     -42.012  55.604 -54.718  1.00  0.00     0.241 C 
HETATM    4  O   UNL     1     -41.825  56.291 -55.712  1.00  0.00    -0.269 OA
HETATM    5  H   UNL     1     -42.826  55.409 -52.816  1.00  0.00     0.163 HD
BRANCH   3   6
HETATM    6  C   UNL     1     -41.554  54.195 -54.608  1.00  0.00     0.075 C 
HETATM    7  C   UNL     1     -40.862  53.799 -53.530  1.00  0.00     0.018 C 
BRANCH   7   8
HETATM    8  C   UNL     1     -40.419  52.410 -53.313  1.00  0.00    -0.014 A 
HETATM    9  C   UNL     1     -40.456  51.490 -54.376  1.00  0.00     0.013 A 
HETATM   10  C   UNL     1     -40.025  50.172 -54.203  1.00  0.00     0.001 A 
HETATM   11  C   UNL     1     -39.537  49.753 -52.968  1.00  0.00     0.002 A 
HETATM   12  C   UNL     1     -39.475  50.655 -51.906  1.00  0.00     0.024 A 
HETATM   13  C   UNL     1     -39.909  51.975 -52.075  1.00  0.00     0.044 A 
HETATM   14 CL   UNL     1     -39.812  53.021 -50.699  1.00  0.00    -0.083 Cl
ENDBRANCH   7   8
ENDBRANCH   3   6
ENDBRANCH   1   2
BRANCH   1  15
HETATM   15  C   UNL     1     -42.381  58.101 -52.316  1.00  0.00    -0.038 A 
HETATM   16  C   UNL     1     -42.749  59.403 -51.940  1.00  0.00     0.046 A 
HETATM   17  C   UNL     1     -42.047  60.080 -50.940  1.00  0.00     0.078 A 
HETATM   18  C   UNL     1     -41.039  59.426 -50.235  1.00  0.00     0.037 A 
HETATM   19  C   UNL     1     -40.696  58.115 -50.566  1.00  0.00     0.003 A 
HETATM   20  C   UNL     1     -41.357  57.458 -51.607  1.00  0.00     0.009 A 
BRANCH  17  21
HETATM   21  O   UNL     1     -42.365  61.360 -50.556  1.00  0.00    -0.292 OA
BRANCH  21  22
HETATM   22  C   UNL     1     -43.709  61.651 -50.334  1.00  0.00     0.169 A 
HETATM   23  N   UNL     1     -44.415  62.365 -51.243  1.00  0.00    -0.237 NA
HETATM   24  C   UNL     1     -45.703  62.633 -50.935  1.00  0.00     0.119 A 
HETATM   25  C   UNL     1     -46.318  62.223 -49.763  1.00  0.00     0.019 A 
HETATM   26  C   UNL     1     -45.566  61.500 -48.842  1.00  0.00     0.006 A 
HETATM   27  C   UNL     1     -44.234  61.213 -49.126  1.00  0.00     0.058 A 
ENDBRANCH  21  22
ENDBRANCH  17  21
ENDBRANCH   1  15
TORSDOF 6
ENDMDL
MODEL 7
REMARK VINA RESULT:      -7.2      3.290      6.859
REMARK  6 active torsions:
REMARK  status: ('A' for Active; 'I' for Inactive)
REMARK    1  A    between atoms: C_3  and  C_4 
REMARK    2  A    between atoms: C_5  and  C_6 
REMARK       I    between atoms: C_6  and  N_7 
REMARK    3  A    between atoms: N_7  and  C_8 
REMARK    4  A    between atoms: C_8  and  C_9 
REMARK    5  A    between atoms: C_11  and  O_12 
REMARK    6  A    between atoms: O_12  and  C_13 
ROOT
HETATM    1  C   UNL     1     -44.131  57.103 -51.841  1.00  0.00     0.161 C 
ENDROOT
BRANCH   1   2
HETATM    2  N   UNL     1     -43.553  55.787 -52.007  1.00  0.00    -0.353 N 
HETATM    3  C   UNL     1     -42.364  55.454 -51.417  1.00  0.00     0.241 C 
HETATM    4  O   UNL     1     -41.674  56.229 -50.770  1.00  0.00    -0.269 OA
HETATM    5  H   UNL     1     -44.051  55.121 -52.583  1.00  0.00     0.163 HD
BRANCH   3   6
HETATM    6  C   UNL     1     -41.999  54.030 -51.633  1.00  0.00     0.075 C 
HETATM    7  C   UNL     1     -40.712  53.686 -51.788  1.00  0.00     0.018 C 
BRANCH   7   8
HETATM    8  C   UNL     1     -40.257  52.293 -51.950  1.00  0.00    -0.014 A 
HETATM    9  C   UNL     1     -40.092  51.476 -50.817  1.00  0.00     0.013 A 
HETATM   10  C   UNL     1     -39.680  50.146 -50.943  1.00  0.00     0.001 A 
HETATM   11  C   UNL     1     -39.437  49.607 -52.203  1.00  0.00     0.002 A 
HETATM   12  C   UNL     1     -39.612  50.396 -53.339  1.00  0.00     0.024 A 
HETATM   13  C   UNL     1     -40.022  51.729 -53.217  1.00  0.00     0.044 A 
HETATM   14 CL   UNL     1     -40.197  52.639 -54.679  1.00  0.00    -0.083 Cl
ENDBRANCH   7   8
ENDBRANCH   3   6
ENDBRANCH   1   2
BRANCH   1  15
HETATM   15  C   UNL     1     -44.098  57.875 -53.135  1.00  0.00    -0.038 A 
HETATM   16  C   UNL     1     -43.098  57.619 -54.086  1.00  0.00     0.046 A 
HETATM   17  C   UNL     1     -43.012  58.385 -55.251  1.00  0.00     0.078 A 
HETATM   18  C   UNL     1     -43.984  59.343 -55.526  1.00  0.00     0.037 A 
HETATM   19  C   UNL     1     -45.012  59.574 -54.611  1.00  0.00     0.003 A 
HETATM   20  C   UNL     1     -45.064  58.850 -53.417  1.00  0.00     0.009 A 
BRANCH  17  21
HETATM   21  O   UNL     1     -42.038  58.178 -56.198  1.00  0.00    -0.292 OA
BRANCH  21  22
HETATM   22  C   UNL     1     -42.403  57.501 -57.359  1.00  0.00     0.169 A 
HETATM   23  N   UNL     1     -43.043  56.309 -57.287  1.00  0.00    -0.237 NA
HETATM   24  C   UNL     1     -43.330  55.703 -58.460  1.00  0.00     0.119 A 
HETATM   25  C   UNL     1     -43.008  56.230 -59.700  1.00  0.00     0.019 A 
HETATM   26  C   UNL     1     -42.341  57.450 -59.745  1.00  0.00     0.006 A 
HETATM   27  C   UNL     1     -42.025  58.098 -58.554  1.00  0.00     0.058 A 
ENDBRANCH  21  22
ENDBRANCH  17  21
ENDBRANCH   1  15
TORSDOF 6
ENDMDL
MODEL 8
REMARK VINA RESULT:      -7.2      5.881      8.831
REMARK  6 active torsions:
REMARK  status: ('A' for Active; 'I' for Inactive)
REMARK    1  A    between atoms: C_3  and  C_4 
REMARK    2  A    between atoms: C_5  and  C_6 
REMARK       I    between atoms: C_6  and  N_7 
REMARK    3  A    between atoms: N_7  and  C_8 
REMARK    4  A    between atoms: C_8  and  C_9 
REMARK    5  A    between atoms: C_11  and  O_12 
REMARK    6  A    between atoms: O_12  and  C_13 
ROOT
HETATM    1  C   UNL     1     -42.694  56.889 -57.971  1.00  0.00     0.161 C 
ENDROOT
BRANCH   1   2
HETATM    2  N   UNL     1     -42.249  55.790 -57.142  1.00  0.00    -0.353 N 
HETATM    3  C   UNL     1     -42.759  55.595 -55.887  1.00  0.00     0.241 C 
HETATM    4  O   UNL     1     -43.563  56.340 -55.346  1.00  0.00    -0.269 OA
HETATM    5  H   UNL     1     -41.539  55.173 -57.515  1.00  0.00     0.163 HD
BRANCH   3   6
HETATM    6  C   UNL     1     -42.241  54.358 -55.247  1.00  0.00     0.075 C 
HETATM    7  C   UNL     1     -41.181  54.424 -54.427  1.00  0.00     0.018 C 
BRANCH   7   8
HETATM    8  C   UNL     1     -40.637  53.258 -53.706  1.00  0.00    -0.014 A 
HETATM    9  C   UNL     1     -40.267  52.106 -54.421  1.00  0.00     0.013 A 
HETATM   10  C   UNL     1     -39.731  50.993 -53.764  1.00  0.00     0.001 A 
HETATM   11  C   UNL     1     -39.544  51.019 -52.385  1.00  0.00     0.002 A 
HETATM   12  C   UNL     1     -39.889  52.160 -51.662  1.00  0.00     0.024 A 
HETATM   13  C   UNL     1     -40.428  53.275 -52.315  1.00  0.00     0.044 A 
HETATM   14 CL   UNL     1     -40.842  54.641 -51.336  1.00  0.00    -0.083 Cl
ENDBRANCH   7   8
ENDBRANCH   3   6
ENDBRANCH   1   2
BRANCH   1  15
HETATM   15  C   UNL     1     -43.819  56.461 -58.878  1.00  0.00    -0.038 A 
HETATM   16  C   UNL     1     -44.992  57.228 -58.961  1.00  0.00     0.046 A 
HETATM   17  C   UNL     1     -46.070  56.797 -59.736  1.00  0.00     0.078 A 
HETATM   18  C   UNL     1     -45.949  55.651 -60.519  1.00  0.00     0.037 A 
HETATM   19  C   UNL     1     -44.770  54.906 -60.483  1.00  0.00     0.003 A 
HETATM   20  C   UNL     1     -43.713  55.303 -59.660  1.00  0.00     0.009 A 
BRANCH  17  21
HETATM   21  O   UNL     1     -47.241  57.509 -59.830  1.00  0.00    -0.292 OA
BRANCH  21  22
HETATM   22  C   UNL     1     -47.384  58.374 -60.912  1.00  0.00     0.169 A 
HETATM   23  N   UNL     1     -46.717  59.553 -60.942  1.00  0.00    -0.237 NA
HETATM   24  C   UNL     1     -46.939  60.348 -62.011  1.00  0.00     0.119 A 
HETATM   25  C   UNL     1     -47.795  60.023 -63.051  1.00  0.00     0.019 A 
HETATM   26  C   UNL     1     -48.475  58.811 -62.990  1.00  0.00     0.006 A 
HETATM   27  C   UNL     1     -48.275  57.971 -61.898  1.00  0.00     0.058 A 
ENDBRANCH  21  22
ENDBRANCH  17  21
ENDBRANCH   1  15
TORSDOF 6
ENDMDL
MODEL 9
REMARK VINA RESULT:      -7.1      5.325      8.407
REMARK  6 active torsions:
REMARK  status: ('A' for Active; 'I' for Inactive)
REMARK    1  A    between atoms: C_3  and  C_4 
REMARK    2  A    between atoms: C_5  and  C_6 
REMARK       I    between atoms: C_6  and  N_7 
REMARK    3  A    between atoms: N_7  and  C_8 
REMARK    4  A    between atoms: C_8  and  C_9 
REMARK    5  A    between atoms: C_11  and  O_12 
REMARK    6  A    between atoms: O_12  and  C_13 
ROOT
HETATM    1  C   UNL     1     -43.920  57.125 -56.519  1.00  0.00     0.161 C 
ENDROOT
BRANCH   1   2
HETATM    2  N   UNL     1     -43.285  55.914 -56.047  1.00  0.00    -0.353 N 
HETATM    3  C   UNL     1     -43.333  55.556 -54.727  1.00  0.00     0.241 C 
HETATM    4  O   UNL     1     -43.845  56.233 -53.846  1.00  0.00    -0.269 OA
HETATM    5  H   UNL     1     -42.794  55.343 -56.722  1.00  0.00     0.163 HD
BRANCH   3   6
HETATM    6  C   UNL     1     -42.706  54.234 -54.471  1.00  0.00     0.075 C 
HETATM    7  C   UNL     1     -41.508  54.168 -53.869  1.00  0.00     0.018 C 
BRANCH   7   8
HETATM    8  C   UNL     1     -40.840  52.899 -53.526  1.00  0.00    -0.014 A 
HETATM    9  C   UNL     1     -40.768  51.868 -54.479  1.00  0.00     0.013 A 
HETATM   10  C   UNL     1     -40.123  50.662 -54.187  1.00  0.00     0.001 A 
HETATM   11  C   UNL     1     -39.530  50.471 -52.942  1.00  0.00     0.002 A 
HETATM   12  C   UNL     1     -39.575  51.489 -51.990  1.00  0.00     0.024 A 
HETATM   13  C   UNL     1     -40.222  52.697 -52.278  1.00  0.00     0.044 A 
HETATM   14 CL   UNL     1     -40.244  53.898 -51.033  1.00  0.00    -0.083 Cl
ENDBRANCH   7   8
ENDBRANCH   3   6
ENDBRANCH   1   2
BRANCH   1  15
HETATM   15  C   UNL     1     -43.338  57.561 -57.840  1.00  0.00    -0.038 A 
HETATM   16  C   UNL     1     -43.405  58.906 -58.233  1.00  0.00     0.046 A 
HETATM   17  C   UNL     1     -42.941  59.305 -59.488  1.00  0.00     0.078 A 
HETATM   18  C   UNL     1     -42.311  58.383 -60.321  1.00  0.00     0.037 A 
HETATM   19  C   UNL     1     -42.194  57.051 -59.921  1.00  0.00     0.003 A 
HETATM   20  C   UNL     1     -42.712  56.639 -58.691  1.00  0.00     0.009 A 
BRANCH  17  21
HETATM   21  O   UNL     1     -43.005  60.608 -59.917  1.00  0.00    -0.292 OA
BRANCH  21  22
HETATM   22  C   UNL     1     -41.843  61.373 -59.830  1.00  0.00     0.169 A 
HETATM   23  N   UNL     1     -41.261  61.603 -58.628  1.00  0.00    -0.237 NA
HETATM   24  C   UNL     1     -40.158  62.382 -58.629  1.00  0.00     0.119 A 
HETATM   25  C   UNL     1     -39.609  62.943 -59.772  1.00  0.00     0.019 A 
HETATM   26  C   UNL     1     -40.233  62.698 -60.991  1.00  0.00     0.006 A 
HETATM   27  C   UNL     1     -41.376  61.905 -61.024  1.00  0.00     0.058 A 
ENDBRANCH  21  22
ENDBRANCH  17  21
ENDBRANCH   1  15
TORSDOF 6
ENDMDL
MODEL 10
REMARK VINA RESULT:      -7.1      3.776      6.516
REMARK  6 active torsions:
REMARK  status: ('A' for Active; 'I' for Inactive)
REMARK    1  A    between atoms: C_3  and  C_4 
REMARK    2  A    between atoms: C_5  and  C_6 
REMARK       I    between atoms: C_6  and  N_7 
REMARK    3  A    between atoms: N_7  and  C_8 
REMARK    4  A    between atoms: C_8  and  C_9 
REMARK    5  A    between atoms: C_11  and  O_12 
REMARK    6  A    between atoms: O_12  and  C_13 
ROOT
HETATM    1  C   UNL     1     -42.600  57.915 -52.160  1.00  0.00     0.161 C 
ENDROOT
BRANCH   1   2
HETATM    2  N   UNL     1     -42.710  58.365 -53.531  1.00  0.00    -0.353 N 
HETATM    3  C   UNL     1     -41.726  59.118 -54.112  1.00  0.00     0.241 C 
HETATM    4  O   UNL     1     -40.728  59.518 -53.529  1.00  0.00    -0.269 OA
HETATM    5  H   UNL     1     -43.543  58.114 -54.046  1.00  0.00     0.163 HD
BRANCH   3   6
HETATM    6  C   UNL     1     -41.988  59.389 -55.548  1.00  0.00     0.075 C 
HETATM    7  C   UNL     1     -41.906  58.393 -56.443  1.00  0.00     0.018 C 
BRANCH   7   8
HETATM    8  C   UNL     1     -42.206  58.561 -57.877  1.00  0.00    -0.014 A 
HETATM    9  C   UNL     1     -41.965  59.798 -58.501  1.00  0.00     0.013 A 
HETATM   10  C   UNL     1     -42.222  59.978 -59.863  1.00  0.00     0.001 A 
HETATM   11  C   UNL     1     -42.713  58.923 -60.627  1.00  0.00     0.002 A 
HETATM   12  C   UNL     1     -42.941  57.684 -60.030  1.00  0.00     0.024 A 
HETATM   13  C   UNL     1     -42.688  57.500 -58.666  1.00  0.00     0.044 A 
HETATM   14 CL   UNL     1     -43.015  55.934 -58.005  1.00  0.00    -0.083 Cl
ENDBRANCH   7   8
ENDBRANCH   3   6
ENDBRANCH   1   2
BRANCH   1  15
HETATM   15  C   UNL     1     -42.423  56.420 -52.094  1.00  0.00    -0.038 A 
HETATM   16  C   UNL     1     -41.389  55.798 -52.811  1.00  0.00     0.046 A 
HETATM   17  C   UNL     1     -41.267  54.407 -52.821  1.00  0.00     0.078 A 
HETATM   18  C   UNL     1     -42.110  53.630 -52.031  1.00  0.00     0.037 A 
HETATM   19  C   UNL     1     -43.112  54.240 -51.274  1.00  0.00     0.003 A 
HETATM   20  C   UNL     1     -43.274  55.627 -51.313  1.00  0.00     0.009 A 
BRANCH  17  21
HETATM   21  O   UNL     1     -40.279  53.760 -53.524  1.00  0.00    -0.292 OA
BRANCH  21  22
HETATM   22  C   UNL     1     -40.106  52.398 -53.285  1.00  0.00     0.169 A 
HETATM   23  N   UNL     1     -39.614  51.967 -52.099  1.00  0.00    -0.237 NA
HETATM   24  C   UNL     1     -39.444  50.633 -51.962  1.00  0.00     0.119 A 
HETATM   25  C   UNL     1     -39.741  49.711 -52.954  1.00  0.00     0.019 A 
HETATM   26  C   UNL     1     -40.235  50.183 -54.166  1.00  0.00     0.006 A 
HETATM   27  C   UNL     1     -40.415  51.552 -54.342  1.00  0.00     0.058 A 
ENDBRANCH  21  22
ENDBRANCH  17  21
ENDBRANCH   1  15
TORSDOF 6
ENDMDL
