MODEL 1
REMARK VINA RESULT:      -9.5      0.000      0.000
REMARK  6 active torsions:
REMARK  status: ('A' for Active; 'I' for Inactive)
REMARK    1  A    between atoms: C_4  and  C_5 
REMARK    2  A    between atoms: C_6  and  N_7 
REMARK    3  A    between atoms: C_9  and  C_10 
REMARK       I    between atoms: C_10  and  N_11 
REMARK    4  A    between atoms: N_11  and  C_12 
REMARK    5  A    between atoms: C_12  and  C_13 
REMARK    6  A    between atoms: C_13  and  N_14 
ROOT
HETATM    1  C   UNL     1     -41.258  54.262 -52.546  1.00  0.00     0.019 A 
HETATM    2  C   UNL     1     -41.413  55.066 -51.452  1.00  0.00     0.111 A 
HETATM    3  C   UNL     1     -40.922  54.526 -50.097  1.00  0.00     0.273 A 
HETATM    4  O   UNL     1     -41.007  55.167 -49.051  1.00  0.00    -0.266 OA
HETATM    5  N   UNL     1     -40.360  53.287 -50.055  1.00  0.00    -0.321 N 
HETATM    6  C   UNL     1     -40.196  52.467 -51.160  1.00  0.00     0.046 A 
HETATM    7  C   UNL     1     -40.623  52.915 -52.411  1.00  0.00     0.006 A 
HETATM    8  C   UNL     1     -39.598  51.215 -50.993  1.00  0.00     0.032 A 
HETATM    9  C   UNL     1     -39.413  50.384 -52.096  1.00  0.00     0.026 A 
HETATM   10  C   UNL     1     -39.828  50.814 -53.353  1.00  0.00     0.035 A 
HETATM   11 CL   UNL     1     -39.594  49.799 -54.721  1.00  0.00    -0.084 Cl
HETATM   12  C   UNL     1     -40.428  52.065 -53.514  1.00  0.00     0.038 A 
HETATM   13  H   UNL     1     -40.068  52.977 -49.136  1.00  0.00     0.169 HD
ENDROOT
BRANCH   2  14
HETATM   14  N   UNL     1     -42.012  56.373 -51.471  1.00  0.00    -0.375 N 
HETATM   15  C   UNL     1     -41.239  57.546 -50.970  1.00  0.00     0.137 C 
HETATM   16  C   UNL     1     -41.814  58.865 -51.493  1.00  0.00     0.096 C 
HETATM   17  C   UNL     1     -43.340  58.963 -51.378  1.00  0.00     0.017 C 
HETATM   18  C   UNL     1     -44.075  57.662 -51.697  1.00  0.00     0.021 C 
HETATM   19  C   UNL     1     -43.418  56.474 -51.004  1.00  0.00     0.123 C 
BRANCH  16  20
HETATM   20  C   UNL     1     -41.313  59.167 -52.894  1.00  0.00     0.223 C 
HETATM   21  N   UNL     1     -42.258  59.436 -53.845  1.00  0.00    -0.359 N 
HETATM   22  H   UNL     1     -43.229  59.390 -53.521  1.00  0.00     0.162 HD
HETATM   23  O   UNL     1     -40.114  59.126 -53.178  1.00  0.00    -0.273 OA
BRANCH  21  24
HETATM   24  C   UNL     1     -42.027  60.021 -55.163  1.00  0.00     0.150 C 
BRANCH  24  25
HETATM   25  C   UNL     1     -43.209  60.161 -56.149  1.00  0.00     0.254 C 
BRANCH  25  26
HETATM   26  N   UNL     1     -43.203  59.127 -57.248  1.00  0.00    -0.066 N 
HETATM   27  H   UNL     1     -43.021  58.240 -56.739  1.00  0.00     0.280 HD
HETATM   28  C   UNL     1     -44.495  58.989 -58.021  1.00  0.00     0.261 C 
HETATM   29  C   UNL     1     -44.361  57.869 -59.060  1.00  0.00     0.195 C 
HETATM   30  O   UNL     1     -43.252  58.107 -59.934  1.00  0.00    -0.388 OA
HETATM   31  C   UNL     1     -42.016  58.150 -59.210  1.00  0.00     0.195 C 
HETATM   32  C   UNL     1     -42.022  59.294 -58.189  1.00  0.00     0.261 C 
ENDBRANCH  25  26
ENDBRANCH  24  25
ENDBRANCH  21  24
ENDBRANCH  16  20
ENDBRANCH   2  14
BRANCH   1  33
HETATM   33  C   UNL     1     -41.692  54.763 -53.879  1.00  0.00    -0.023 A 
HETATM   34  C   UNL     1     -42.827  54.228 -54.499  1.00  0.00     0.012 A 
HETATM   35  C   UNL     1     -43.272  54.740 -55.720  1.00  0.00     0.001 A 
HETATM   36  C   UNL     1     -42.592  55.797 -56.322  1.00  0.00     0.000 A 
HETATM   37  C   UNL     1     -41.477  56.355 -55.700  1.00  0.00     0.001 A 
HETATM   38  C   UNL     1     -41.036  55.849 -54.477  1.00  0.00     0.012 A 
ENDBRANCH   1  33
TORSDOF 6
ENDMDL
MODEL 2
REMARK VINA RESULT:      -8.8      1.736      2.377
REMARK  6 active torsions:
REMARK  status: ('A' for Active; 'I' for Inactive)
REMARK    1  A    between atoms: C_4  and  C_5 
REMARK    2  A    between atoms: C_6  and  N_7 
REMARK    3  A    between atoms: C_9  and  C_10 
REMARK       I    between atoms: C_10  and  N_11 
REMARK    4  A    between atoms: N_11  and  C_12 
REMARK    5  A    between atoms: C_12  and  C_13 
REMARK    6  A    between atoms: C_13  and  N_14 
ROOT
HETATM    1  C   UNL     1     -41.256  54.231 -52.523  1.00  0.00     0.019 A 
HETATM    2  C   UNL     1     -41.404  55.027 -51.423  1.00  0.00     0.111 A 
HETATM    3  C   UNL     1     -40.910  54.474 -50.074  1.00  0.00     0.273 A 
HETATM    4  O   UNL     1     -40.988  55.108 -49.023  1.00  0.00    -0.266 OA
HETATM    5  N   UNL     1     -40.352  53.233 -50.044  1.00  0.00    -0.321 N 
HETATM    6  C   UNL     1     -40.195  52.421 -51.156  1.00  0.00     0.046 A 
HETATM    7  C   UNL     1     -40.625  52.881 -52.402  1.00  0.00     0.006 A 
HETATM    8  C   UNL     1     -39.601  51.165 -51.001  1.00  0.00     0.032 A 
HETATM    9  C   UNL     1     -39.423  50.343 -52.111  1.00  0.00     0.026 A 
HETATM   10  C   UNL     1     -39.841  50.784 -53.363  1.00  0.00     0.035 A 
HETATM   11 CL   UNL     1     -39.617  49.779 -54.740  1.00  0.00    -0.084 Cl
HETATM   12  C   UNL     1     -40.437  52.038 -53.512  1.00  0.00     0.038 A 
HETATM   13  H   UNL     1     -40.057  52.914 -49.129  1.00  0.00     0.169 HD
ENDROOT
BRANCH   2  14
HETATM   14  N   UNL     1     -41.998  56.336 -51.429  1.00  0.00    -0.375 N 
HETATM   15  C   UNL     1     -41.210  57.506 -50.944  1.00  0.00     0.137 C 
HETATM   16  C   UNL     1     -41.791  58.827 -51.455  1.00  0.00     0.096 C 
HETATM   17  C   UNL     1     -43.314  58.930 -51.308  1.00  0.00     0.017 C 
HETATM   18  C   UNL     1     -44.060  57.633 -51.613  1.00  0.00     0.021 C 
HETATM   19  C   UNL     1     -43.394  56.442 -50.934  1.00  0.00     0.123 C 
BRANCH  16  20
HETATM   20  C   UNL     1     -41.317  59.128 -52.866  1.00  0.00     0.223 C 
HETATM   21  N   UNL     1     -42.282  59.297 -53.820  1.00  0.00    -0.359 N 
HETATM   22  H   UNL     1     -43.246  59.187 -53.491  1.00  0.00     0.162 HD
HETATM   23  O   UNL     1     -40.119  59.170 -53.153  1.00  0.00    -0.273 OA
BRANCH  21  24
HETATM   24  C   UNL     1     -42.099  59.862 -55.154  1.00  0.00     0.150 C 
BRANCH  24  25
HETATM   25  C   UNL     1     -43.313  59.970 -56.105  1.00  0.00     0.254 C 
BRANCH  25  26
HETATM   26  N   UNL     1     -44.257  61.092 -55.750  1.00  0.00    -0.066 N 
HETATM   27  H   UNL     1     -44.671  61.354 -56.666  1.00  0.00     0.280 HD
HETATM   28  C   UNL     1     -45.374  60.727 -54.797  1.00  0.00     0.261 C 
HETATM   29  C   UNL     1     -46.282  61.942 -54.574  1.00  0.00     0.195 C 
HETATM   30  O   UNL     1     -45.533  63.065 -54.095  1.00  0.00    -0.388 OA
HETATM   31  C   UNL     1     -44.531  63.465 -55.039  1.00  0.00     0.195 C 
HETATM   32  C   UNL     1     -43.523  62.335 -55.276  1.00  0.00     0.261 C 
ENDBRANCH  25  26
ENDBRANCH  24  25
ENDBRANCH  21  24
ENDBRANCH  16  20
ENDBRANCH   2  14
BRANCH   1  33
HETATM   33  C   UNL     1     -41.693  54.743 -53.851  1.00  0.00    -0.023 A 
HETATM   34  C   UNL     1     -42.877  54.277 -54.433  1.00  0.00     0.012 A 
HETATM   35  C   UNL     1     -43.322  54.803 -55.648  1.00  0.00     0.001 A 
HETATM   36  C   UNL     1     -42.591  55.806 -56.283  1.00  0.00     0.000 A 
HETATM   37  C   UNL     1     -41.426  56.296 -55.698  1.00  0.00     0.001 A 
HETATM   38  C   UNL     1     -40.984  55.777 -54.481  1.00  0.00     0.012 A 
ENDBRANCH   1  33
TORSDOF 6
ENDMDL
MODEL 3
REMARK VINA RESULT:      -8.2      2.526      7.570
REMARK  6 active torsions:
REMARK  status: ('A' for Active; 'I' for Inactive)
REMARK    1  A    between atoms: C_4  and  C_5 
REMARK    2  A    between atoms: C_6  and  N_7 
REMARK    3  A    between atoms: C_9  and  C_10 
REMARK       I    between atoms: C_10  and  N_11 
REMARK    4  A    between atoms: N_11  and  C_12 
REMARK    5  A    between atoms: C_12  and  C_13 
REMARK    6  A    between atoms: C_13  and  N_14 
ROOT
HETATM    1  C   UNL     1     -42.741  57.648 -55.866  1.00  0.00     0.019 A 
HETATM    2  C   UNL     1     -42.507  58.613 -54.929  1.00  0.00     0.111 A 
HETATM    3  C   UNL     1     -42.773  60.075 -55.332  1.00  0.00     0.273 A 
HETATM    4  O   UNL     1     -42.603  61.022 -54.566  1.00  0.00    -0.266 OA
HETATM    5  N   UNL     1     -43.227  60.331 -56.590  1.00  0.00    -0.321 N 
HETATM    6  C   UNL     1     -43.469  59.356 -57.545  1.00  0.00     0.046 A 
HETATM    7  C   UNL     1     -43.246  58.016 -57.224  1.00  0.00     0.006 A 
HETATM    8  C   UNL     1     -43.941  59.742 -58.803  1.00  0.00     0.032 A 
HETATM    9  C   UNL     1     -44.204  58.773 -59.770  1.00  0.00     0.026 A 
HETATM   10  C   UNL     1     -43.992  57.432 -59.468  1.00  0.00     0.035 A 
HETATM   11 CL   UNL     1     -44.322  56.229 -60.652  1.00  0.00    -0.084 Cl
HETATM   12  C   UNL     1     -43.517  57.052 -58.210  1.00  0.00     0.038 A 
HETATM   13  H   UNL     1     -43.372  61.310 -56.806  1.00  0.00     0.169 HD
ENDROOT
BRANCH   2  14
HETATM   14  N   UNL     1     -42.020  58.368 -53.599  1.00  0.00    -0.375 N 
HETATM   15  C   UNL     1     -42.979  58.323 -52.458  1.00  0.00     0.137 C 
HETATM   16  C   UNL     1     -42.382  57.599 -51.248  1.00  0.00     0.096 C 
HETATM   17  C   UNL     1     -40.951  58.036 -50.911  1.00  0.00     0.017 C 
HETATM   18  C   UNL     1     -40.068  58.277 -52.133  1.00  0.00     0.021 C 
HETATM   19  C   UNL     1     -40.797  59.103 -53.186  1.00  0.00     0.123 C 
BRANCH  16  20
HETATM   20  C   UNL     1     -42.516  56.093 -51.386  1.00  0.00     0.223 C 
HETATM   21  N   UNL     1     -41.358  55.366 -51.394  1.00  0.00    -0.359 N 
HETATM   22  H   UNL     1     -40.496  55.916 -51.321  1.00  0.00     0.162 HD
HETATM   23  O   UNL     1     -43.613  55.549 -51.533  1.00  0.00    -0.273 OA
BRANCH  21  24
HETATM   24  C   UNL     1     -41.235  53.920 -51.231  1.00  0.00     0.150 C 
BRANCH  24  25
HETATM   25  C   UNL     1     -39.904  53.225 -51.602  1.00  0.00     0.254 C 
BRANCH  25  26
HETATM   26  N   UNL     1     -40.080  51.806 -52.081  1.00  0.00    -0.066 N 
HETATM   27  H   UNL     1     -41.112  51.687 -52.101  1.00  0.00     0.280 HD
HETATM   28  C   UNL     1     -39.529  51.509 -53.458  1.00  0.00     0.261 C 
HETATM   29  C   UNL     1     -39.828  50.054 -53.834  1.00  0.00     0.195 C 
HETATM   30  O   UNL     1     -39.303  49.150 -52.856  1.00  0.00    -0.388 OA
HETATM   31  C   UNL     1     -39.891  49.374 -51.568  1.00  0.00     0.195 C 
HETATM   32  C   UNL     1     -39.583  50.789 -51.067  1.00  0.00     0.261 C 
ENDBRANCH  25  26
ENDBRANCH  24  25
ENDBRANCH  21  24
ENDBRANCH  16  20
ENDBRANCH   2  14
BRANCH   1  33
HETATM   33  C   UNL     1     -42.525  56.220 -55.503  1.00  0.00    -0.023 A 
HETATM   34  C   UNL     1     -41.233  55.682 -55.492  1.00  0.00     0.012 A 
HETATM   35  C   UNL     1     -41.022  54.361 -55.089  1.00  0.00     0.001 A 
HETATM   36  C   UNL     1     -42.100  53.574 -54.685  1.00  0.00     0.000 A 
HETATM   37  C   UNL     1     -43.386  54.109 -54.666  1.00  0.00     0.001 A 
HETATM   38  C   UNL     1     -43.597  55.431 -55.061  1.00  0.00     0.012 A 
ENDBRANCH   1  33
TORSDOF 6
ENDMDL
MODEL 4
REMARK VINA RESULT:      -8.1      1.438      2.017
REMARK  6 active torsions:
REMARK  status: ('A' for Active; 'I' for Inactive)
REMARK    1  A    between atoms: C_4  and  C_5 
REMARK    2  A    between atoms: C_6  and  N_7 
REMARK    3  A    between atoms: C_9  and  C_10 
REMARK       I    between atoms: C_10  and  N_11 
REMARK    4  A    between atoms: N_11  and  C_12 
REMARK    5  A    between atoms: C_12  and  C_13 
REMARK    6  A    between atoms: C_13  and  N_14 
ROOT
HETATM    1  C   UNL     1     -41.486  54.352 -52.674  1.00  0.00     0.019 A 
HETATM    2  C   UNL     1     -41.687  55.188 -51.613  1.00  0.00     0.111 A 
HETATM    3  C   UNL     1     -41.154  54.736 -50.241  1.00  0.00     0.273 A 
HETATM    4  O   UNL     1     -41.275  55.412 -49.221  1.00  0.00    -0.266 OA
HETATM    5  N   UNL     1     -40.513  53.539 -50.154  1.00  0.00    -0.321 N 
HETATM    6  C   UNL     1     -40.302  52.687 -51.228  1.00  0.00     0.046 A 
HETATM    7  C   UNL     1     -40.764  53.056 -52.492  1.00  0.00     0.006 A 
HETATM    8  C   UNL     1     -39.623  51.484 -51.016  1.00  0.00     0.032 A 
HETATM    9  C   UNL     1     -39.390  50.623 -52.086  1.00  0.00     0.026 A 
HETATM   10  C   UNL     1     -39.839  50.974 -53.355  1.00  0.00     0.035 A 
HETATM   11 CL   UNL     1     -39.548  49.923 -54.684  1.00  0.00    -0.084 Cl
HETATM   12  C   UNL     1     -40.520  52.177 -53.561  1.00  0.00     0.038 A 
HETATM   13  H   UNL     1     -40.196  53.285 -49.227  1.00  0.00     0.169 HD
ENDROOT
BRANCH   2  14
HETATM   14  N   UNL     1     -42.370  56.451 -51.678  1.00  0.00    -0.375 N 
HETATM   15  C   UNL     1     -41.601  57.716 -51.495  1.00  0.00     0.137 C 
HETATM   16  C   UNL     1     -42.358  58.922 -52.056  1.00  0.00     0.096 C 
HETATM   17  C   UNL     1     -43.837  58.967 -51.654  1.00  0.00     0.017 C 
HETATM   18  C   UNL     1     -44.524  57.602 -51.653  1.00  0.00     0.021 C 
HETATM   19  C   UNL     1     -43.665  56.553 -50.959  1.00  0.00     0.123 C 
BRANCH  16  20
HETATM   20  C   UNL     1     -42.156  59.049 -53.556  1.00  0.00     0.223 C 
HETATM   21  N   UNL     1     -43.258  58.874 -54.347  1.00  0.00    -0.359 N 
HETATM   22  H   UNL     1     -44.124  58.655 -53.846  1.00  0.00     0.162 HD
HETATM   23  O   UNL     1     -41.043  59.253 -54.047  1.00  0.00    -0.273 OA
BRANCH  21  24
HETATM   24  C   UNL     1     -43.380  59.219 -55.761  1.00  0.00     0.150 C 
BRANCH  24  25
HETATM   25  C   UNL     1     -42.119  59.637 -56.551  1.00  0.00     0.254 C 
BRANCH  25  26
HETATM   26  N   UNL     1     -42.250  60.979 -57.226  1.00  0.00    -0.066 N 
HETATM   27  H   UNL     1     -42.311  61.642 -56.429  1.00  0.00     0.280 HD
HETATM   28  C   UNL     1     -41.088  61.383 -58.107  1.00  0.00     0.261 C 
HETATM   29  C   UNL     1     -41.332  62.785 -58.677  1.00  0.00     0.195 C 
HETATM   30  O   UNL     1     -42.572  62.843 -59.390  1.00  0.00    -0.388 OA
HETATM   31  C   UNL     1     -43.682  62.546 -58.533  1.00  0.00     0.195 C 
HETATM   32  C   UNL     1     -43.568  61.126 -57.966  1.00  0.00     0.261 C 
ENDBRANCH  25  26
ENDBRANCH  24  25
ENDBRANCH  21  24
ENDBRANCH  16  20
ENDBRANCH   2  14
BRANCH   1  33
HETATM   33  C   UNL     1     -41.959  54.769 -54.024  1.00  0.00    -0.023 A 
HETATM   34  C   UNL     1     -41.205  55.665 -54.790  1.00  0.00     0.012 A 
HETATM   35  C   UNL     1     -41.613  56.008 -56.081  1.00  0.00     0.001 A 
HETATM   36  C   UNL     1     -42.773  55.449 -56.617  1.00  0.00     0.000 A 
HETATM   37  C   UNL     1     -43.516  54.536 -55.872  1.00  0.00     0.001 A 
HETATM   38  C   UNL     1     -43.105  54.187 -54.585  1.00  0.00     0.012 A 
ENDBRANCH   1  33
TORSDOF 6
ENDMDL
MODEL 5
REMARK VINA RESULT:      -8.0      2.091      3.370
REMARK  6 active torsions:
REMARK  status: ('A' for Active; 'I' for Inactive)
REMARK    1  A    between atoms: C_4  and  C_5 
REMARK    2  A    between atoms: C_6  and  N_7 
REMARK    3  A    between atoms: C_9  and  C_10 
REMARK       I    between atoms: C_10  and  N_11 
REMARK    4  A    between atoms: N_11  and  C_12 
REMARK    5  A    between atoms: C_12  and  C_13 
REMARK    6  A    between atoms: C_13  and  N_14 
ROOT
HETATM    1  C   UNL     1     -41.988  56.268 -52.545  1.00  0.00     0.019 A 
HETATM    2  C   UNL     1     -42.282  57.568 -52.246  1.00  0.00     0.111 A 
HETATM    3  C   UNL     1     -41.843  58.097 -50.868  1.00  0.00     0.273 A 
HETATM    4  O   UNL     1     -42.050  59.251 -50.498  1.00  0.00    -0.266 OA
HETATM    5  N   UNL     1     -41.187  57.253 -50.026  1.00  0.00    -0.321 N 
HETATM    6  C   UNL     1     -40.882  55.934 -50.324  1.00  0.00     0.046 A 
HETATM    7  C   UNL     1     -41.257  55.411 -51.563  1.00  0.00     0.006 A 
HETATM    8  C   UNL     1     -40.198  55.165 -49.378  1.00  0.00     0.032 A 
HETATM    9  C   UNL     1     -39.871  53.842 -49.668  1.00  0.00     0.026 A 
HETATM   10  C   UNL     1     -40.233  53.303 -50.898  1.00  0.00     0.035 A 
HETATM   11 CL   UNL     1     -39.825  51.674 -51.268  1.00  0.00    -0.084 Cl
HETATM   12  C   UNL     1     -40.919  54.075 -51.839  1.00  0.00     0.038 A 
HETATM   13  H   UNL     1     -40.934  57.649 -49.129  1.00  0.00     0.169 HD
ENDROOT
BRANCH   2  14
HETATM   14  N   UNL     1     -42.981  58.475 -53.115  1.00  0.00    -0.375 N 
HETATM   15  C   UNL     1     -42.348  59.771 -53.492  1.00  0.00     0.137 C 
HETATM   16  C   UNL     1     -42.985  60.364 -54.752  1.00  0.00     0.096 C 
HETATM   17  C   UNL     1     -44.519  60.339 -54.740  1.00  0.00     0.017 C 
HETATM   18  C   UNL     1     -45.117  59.067 -54.141  1.00  0.00     0.021 C 
HETATM   19  C   UNL     1     -44.424  58.693 -52.837  1.00  0.00     0.123 C 
BRANCH  16  20
HETATM   20  C   UNL     1     -42.400  59.743 -56.008  1.00  0.00     0.223 C 
HETATM   21  N   UNL     1     -43.055  58.661 -56.528  1.00  0.00    -0.359 N 
HETATM   22  H   UNL     1     -43.881  58.358 -56.003  1.00  0.00     0.162 HD
HETATM   23  O   UNL     1     -41.356  60.162 -56.514  1.00  0.00    -0.273 OA
BRANCH  21  24
HETATM   24  C   UNL     1     -42.862  58.079 -57.853  1.00  0.00     0.150 C 
BRANCH  24  25
HETATM   25  C   UNL     1     -43.653  58.647 -59.054  1.00  0.00     0.254 C 
BRANCH  25  26
HETATM   26  N   UNL     1     -44.430  57.600 -59.812  1.00  0.00    -0.066 N 
HETATM   27  H   UNL     1     -44.478  57.989 -60.775  1.00  0.00     0.280 HD
HETATM   28  C   UNL     1     -43.791  56.230 -59.873  1.00  0.00     0.261 C 
HETATM   29  C   UNL     1     -44.658  55.291 -60.719  1.00  0.00     0.195 C 
HETATM   30  O   UNL     1     -45.994  55.222 -60.208  1.00  0.00    -0.388 OA
HETATM   31  C   UNL     1     -46.630  56.506 -60.233  1.00  0.00     0.195 C 
HETATM   32  C   UNL     1     -45.874  57.505 -59.350  1.00  0.00     0.261 C 
ENDBRANCH  25  26
ENDBRANCH  24  25
ENDBRANCH  21  24
ENDBRANCH  16  20
ENDBRANCH   2  14
BRANCH   1  33
HETATM   33  C   UNL     1     -42.369  55.730 -53.880  1.00  0.00    -0.023 A 
HETATM   34  C   UNL     1     -41.469  55.796 -54.950  1.00  0.00     0.012 A 
HETATM   35  C   UNL     1     -41.798  55.234 -56.186  1.00  0.00     0.001 A 
HETATM   36  C   UNL     1     -43.026  54.593 -56.355  1.00  0.00     0.000 A 
HETATM   37  C   UNL     1     -43.916  54.498 -55.289  1.00  0.00     0.001 A 
HETATM   38  C   UNL     1     -43.584  55.053 -54.052  1.00  0.00     0.012 A 
ENDBRANCH   1  33
TORSDOF 6
ENDMDL
MODEL 6
REMARK VINA RESULT:      -7.9      2.975      7.783
REMARK  6 active torsions:
REMARK  status: ('A' for Active; 'I' for Inactive)
REMARK    1  A    between atoms: C_4  and  C_5 
REMARK    2  A    between atoms: C_6  and  N_7 
REMARK    3  A    between atoms: C_9  and  C_10 
REMARK       I    between atoms: C_10  and  N_11 
REMARK    4  A    between atoms: N_11  and  C_12 
REMARK    5  A    between atoms: C_12  and  C_13 
REMARK    6  A    between atoms: C_13  and  N_14 
ROOT
HETATM    1  C   UNL     1     -44.005  58.341 -55.069  1.00  0.00     0.019 A 
HETATM    2  C   UNL     1     -43.532  59.146 -54.073  1.00  0.00     0.111 A 
HETATM    3  C   UNL     1     -44.045  60.597 -54.028  1.00  0.00     0.273 A 
HETATM    4  O   UNL     1     -43.691  61.406 -53.172  1.00  0.00    -0.266 OA
HETATM    5  N   UNL     1     -44.938  61.001 -54.972  1.00  0.00    -0.321 N 
HETATM    6  C   UNL     1     -45.424  60.188 -55.984  1.00  0.00     0.046 A 
HETATM    7  C   UNL     1     -44.991  58.864 -56.063  1.00  0.00     0.006 A 
HETATM    8  C   UNL     1     -46.345  60.716 -56.894  1.00  0.00     0.032 A 
HETATM    9  C   UNL     1     -46.855  59.908 -57.908  1.00  0.00     0.026 A 
HETATM   10  C   UNL     1     -46.439  58.584 -58.002  1.00  0.00     0.035 A 
HETATM   11 CL   UNL     1     -47.071  57.577 -59.245  1.00  0.00    -0.084 Cl
HETATM   12  C   UNL     1     -45.516  58.063 -57.092  1.00  0.00     0.038 A 
HETATM   13  H   UNL     1     -45.231  61.968 -54.904  1.00  0.00     0.169 HD
ENDROOT
BRANCH   2  14
HETATM   14  N   UNL     1     -42.583  58.745 -53.071  1.00  0.00    -0.375 N 
HETATM   15  C   UNL     1     -43.047  58.480 -51.678  1.00  0.00     0.137 C 
HETATM   16  C   UNL     1     -42.039  57.630 -50.901  1.00  0.00     0.096 C 
HETATM   17  C   UNL     1     -40.586  58.100 -51.051  1.00  0.00     0.017 C 
HETATM   18  C   UNL     1     -40.224  58.565 -52.461  1.00  0.00     0.021 C 
HETATM   19  C   UNL     1     -41.296  59.486 -53.030  1.00  0.00     0.123 C 
BRANCH  16  20
HETATM   20  C   UNL     1     -42.210  56.153 -51.209  1.00  0.00     0.223 C 
HETATM   21  N   UNL     1     -41.208  55.547 -51.916  1.00  0.00    -0.359 N 
HETATM   22  H   UNL     1     -40.434  56.160 -52.188  1.00  0.00     0.162 HD
HETATM   23  O   UNL     1     -43.226  55.535 -50.883  1.00  0.00    -0.273 OA
BRANCH  21  24
HETATM   24  C   UNL     1     -41.007  54.111 -52.087  1.00  0.00     0.150 C 
BRANCH  24  25
HETATM   25  C   UNL     1     -39.938  53.389 -51.236  1.00  0.00     0.254 C 
BRANCH  25  26
HETATM   26  N   UNL     1     -39.537  52.043 -51.788  1.00  0.00    -0.066 N 
HETATM   27  H   UNL     1     -38.501  52.103 -51.834  1.00  0.00     0.280 HD
HETATM   28  C   UNL     1     -39.918  50.850 -50.940  1.00  0.00     0.261 C 
HETATM   29  C   UNL     1     -39.399  49.563 -51.593  1.00  0.00     0.195 C 
HETATM   30  O   UNL     1     -39.889  49.431 -52.932  1.00  0.00    -0.388 OA
HETATM   31  C   UNL     1     -39.454  50.518 -53.758  1.00  0.00     0.195 C 
HETATM   32  C   UNL     1     -39.987  51.853 -53.226  1.00  0.00     0.261 C 
ENDBRANCH  25  26
ENDBRANCH  24  25
ENDBRANCH  21  24
ENDBRANCH  16  20
ENDBRANCH   2  14
BRANCH   1  33
HETATM   33  C   UNL     1     -43.556  56.921 -55.126  1.00  0.00    -0.023 A 
HETATM   34  C   UNL     1     -44.173  55.954 -54.326  1.00  0.00     0.012 A 
HETATM   35  C   UNL     1     -43.798  54.612 -54.424  1.00  0.00     0.001 A 
HETATM   36  C   UNL     1     -42.811  54.229 -55.332  1.00  0.00     0.000 A 
HETATM   37  C   UNL     1     -42.211  55.181 -56.153  1.00  0.00     0.001 A 
HETATM   38  C   UNL     1     -42.590  56.520 -56.060  1.00  0.00     0.012 A 
ENDBRANCH   1  33
TORSDOF 6
ENDMDL
MODEL 7
REMARK VINA RESULT:      -7.9      3.459      6.162
REMARK  6 active torsions:
REMARK  status: ('A' for Active; 'I' for Inactive)
REMARK    1  A    between atoms: C_4  and  C_5 
REMARK    2  A    between atoms: C_6  and  N_7 
REMARK    3  A    between atoms: C_9  and  C_10 
REMARK       I    between atoms: C_10  and  N_11 
REMARK    4  A    between atoms: N_11  and  C_12 
REMARK    5  A    between atoms: C_12  and  C_13 
REMARK    6  A    between atoms: C_13  and  N_14 
ROOT
HETATM    1  C   UNL     1     -41.546  54.880 -53.146  1.00  0.00     0.019 A 
HETATM    2  C   UNL     1     -41.708  55.874 -52.223  1.00  0.00     0.111 A 
HETATM    3  C   UNL     1     -41.116  55.646 -50.821  1.00  0.00     0.273 A 
HETATM    4  O   UNL     1     -41.199  56.475 -49.917  1.00  0.00    -0.266 OA
HETATM    5  N   UNL     1     -40.464  54.477 -50.572  1.00  0.00    -0.321 N 
HETATM    6  C   UNL     1     -40.293  53.466 -51.504  1.00  0.00     0.046 A 
HETATM    7  C   UNL     1     -40.809  53.630 -52.791  1.00  0.00     0.006 A 
HETATM    8  C   UNL     1     -39.598  52.311 -51.133  1.00  0.00     0.032 A 
HETATM    9  C   UNL     1     -39.404  51.291 -52.062  1.00  0.00     0.026 A 
HETATM   10  C   UNL     1     -39.908  51.437 -53.350  1.00  0.00     0.035 A 
HETATM   11 CL   UNL     1     -39.665  50.187 -54.507  1.00  0.00    -0.084 Cl
HETATM   12  C   UNL     1     -40.604  52.591 -53.716  1.00  0.00     0.038 A 
HETATM   13  H   UNL     1     -40.107  54.374 -49.630  1.00  0.00     0.169 HD
ENDROOT
BRANCH   2  14
HETATM   14  N   UNL     1     -42.401  57.111 -52.460  1.00  0.00    -0.375 N 
HETATM   15  C   UNL     1     -43.828  57.087 -52.894  1.00  0.00     0.137 C 
HETATM   16  C   UNL     1     -44.518  58.429 -52.637  1.00  0.00     0.096 C 
HETATM   17  C   UNL     1     -43.696  59.644 -53.085  1.00  0.00     0.017 C 
HETATM   18  C   UNL     1     -42.199  59.521 -52.806  1.00  0.00     0.021 C 
HETATM   19  C   UNL     1     -41.671  58.154 -53.224  1.00  0.00     0.123 C 
BRANCH  16  20
HETATM   20  C   UNL     1     -44.987  58.540 -51.197  1.00  0.00     0.223 C 
HETATM   21  N   UNL     1     -44.834  59.754 -50.587  1.00  0.00    -0.359 N 
HETATM   22  H   UNL     1     -44.396  60.480 -51.163  1.00  0.00     0.162 HD
HETATM   23  O   UNL     1     -45.440  57.570 -50.585  1.00  0.00    -0.273 OA
BRANCH  21  24
HETATM   24  C   UNL     1     -45.450  60.185 -49.335  1.00  0.00     0.150 C 
BRANCH  24  25
HETATM   25  C   UNL     1     -45.549  61.695 -49.019  1.00  0.00     0.254 C 
BRANCH  25  26
HETATM   26  N   UNL     1     -45.106  62.047 -47.620  1.00  0.00    -0.066 N 
HETATM   27  H   UNL     1     -44.078  62.165 -47.718  1.00  0.00     0.280 HD
HETATM   28  C   UNL     1     -45.690  63.322 -47.052  1.00  0.00     0.261 C 
HETATM   29  C   UNL     1     -45.110  63.581 -45.657  1.00  0.00     0.195 C 
HETATM   30  O   UNL     1     -45.341  62.468 -44.787  1.00  0.00    -0.388 OA
HETATM   31  C   UNL     1     -44.713  61.279 -45.282  1.00  0.00     0.195 C 
HETATM   32  C   UNL     1     -45.282  60.890 -46.651  1.00  0.00     0.261 C 
ENDBRANCH  25  26
ENDBRANCH  24  25
ENDBRANCH  21  24
ENDBRANCH  16  20
ENDBRANCH   2  14
BRANCH   1  33
HETATM   33  C   UNL     1     -42.077  55.078 -54.523  1.00  0.00    -0.023 A 
HETATM   34  C   UNL     1     -41.482  56.009 -55.382  1.00  0.00     0.012 A 
HETATM   35  C   UNL     1     -41.937  56.151 -56.695  1.00  0.00     0.001 A 
HETATM   36  C   UNL     1     -42.983  55.355 -57.160  1.00  0.00     0.000 A 
HETATM   37  C   UNL     1     -43.563  54.406 -56.321  1.00  0.00     0.001 A 
HETATM   38  C   UNL     1     -43.105  54.259 -55.012  1.00  0.00     0.012 A 
ENDBRANCH   1  33
TORSDOF 6
ENDMDL
MODEL 8
REMARK VINA RESULT:      -7.8      3.016      5.888
REMARK  6 active torsions:
REMARK  status: ('A' for Active; 'I' for Inactive)
REMARK    1  A    between atoms: C_4  and  C_5 
REMARK    2  A    between atoms: C_6  and  N_7 
REMARK    3  A    between atoms: C_9  and  C_10 
REMARK       I    between atoms: C_10  and  N_11 
REMARK    4  A    between atoms: N_11  and  C_12 
REMARK    5  A    between atoms: C_12  and  C_13 
REMARK    6  A    between atoms: C_13  and  N_14 
ROOT
HETATM    1  C   UNL     1     -41.997  56.543 -53.998  1.00  0.00     0.019 A 
HETATM    2  C   UNL     1     -42.509  56.767 -55.244  1.00  0.00     0.111 A 
HETATM    3  C   UNL     1     -42.505  55.591 -56.237  1.00  0.00     0.273 A 
HETATM    4  O   UNL     1     -42.946  55.680 -57.381  1.00  0.00    -0.266 OA
HETATM    5  N   UNL     1     -41.999  54.395 -55.827  1.00  0.00    -0.321 N 
HETATM    6  C   UNL     1     -41.481  54.160 -54.563  1.00  0.00     0.046 A 
HETATM    7  C   UNL     1     -41.467  55.195 -53.627  1.00  0.00     0.006 A 
HETATM    8  C   UNL     1     -40.995  52.885 -54.256  1.00  0.00     0.032 A 
HETATM    9  C   UNL     1     -40.484  52.627 -52.986  1.00  0.00     0.026 A 
HETATM   10  C   UNL     1     -40.465  53.645 -52.038  1.00  0.00     0.035 A 
HETATM   11 CL   UNL     1     -39.845  53.333 -50.464  1.00  0.00    -0.084 Cl
HETATM   12  C   UNL     1     -40.949  54.918 -52.351  1.00  0.00     0.038 A 
HETATM   13  H   UNL     1     -42.008  53.661 -56.524  1.00  0.00     0.169 HD
ENDROOT
BRANCH   2  14
HETATM   14  N   UNL     1     -43.039  58.023 -55.702  1.00  0.00    -0.375 N 
HETATM   15  C   UNL     1     -44.515  58.231 -55.737  1.00  0.00     0.137 C 
HETATM   16  C   UNL     1     -44.873  59.719 -55.781  1.00  0.00     0.096 C 
HETATM   17  C   UNL     1     -44.053  60.523 -56.798  1.00  0.00     0.017 C 
HETATM   18  C   UNL     1     -42.582  60.117 -56.873  1.00  0.00     0.021 C 
HETATM   19  C   UNL     1     -42.430  58.602 -56.926  1.00  0.00     0.123 C 
BRANCH  16  20
HETATM   20  C   UNL     1     -44.846  60.333 -54.392  1.00  0.00     0.223 C 
HETATM   21  N   UNL     1     -46.021  60.335 -53.692  1.00  0.00    -0.359 N 
HETATM   22  H   UNL     1     -46.823  59.931 -54.185  1.00  0.00     0.162 HD
HETATM   23  O   UNL     1     -43.826  60.851 -53.931  1.00  0.00    -0.273 OA
BRANCH  21  24
HETATM   24  C   UNL     1     -46.186  60.601 -52.266  1.00  0.00     0.150 C 
BRANCH  24  25
HETATM   25  C   UNL     1     -46.152  62.060 -51.757  1.00  0.00     0.254 C 
BRANCH  25  26
HETATM   26  N   UNL     1     -44.763  62.644 -51.694  1.00  0.00    -0.066 N 
HETATM   27  H   UNL     1     -44.176  61.910 -52.136  1.00  0.00     0.280 HD
HETATM   28  C   UNL     1     -44.565  63.942 -52.444  1.00  0.00     0.261 C 
HETATM   29  C   UNL     1     -43.101  64.384 -52.340  1.00  0.00     0.195 C 
HETATM   30  O   UNL     1     -42.694  64.504 -50.972  1.00  0.00    -0.388 OA
HETATM   31  C   UNL     1     -42.799  63.251 -50.284  1.00  0.00     0.195 C 
HETATM   32  C   UNL     1     -44.250  62.758 -50.268  1.00  0.00     0.261 C 
ENDBRANCH  25  26
ENDBRANCH  24  25
ENDBRANCH  21  24
ENDBRANCH  16  20
ENDBRANCH   2  14
BRANCH   1  33
HETATM   33  C   UNL     1     -42.012  57.648 -52.999  1.00  0.00    -0.023 A 
HETATM   34  C   UNL     1     -43.127  57.838 -52.175  1.00  0.00     0.012 A 
HETATM   35  C   UNL     1     -43.119  58.833 -51.194  1.00  0.00     0.001 A 
HETATM   36  C   UNL     1     -41.991  59.637 -51.026  1.00  0.00     0.000 A 
HETATM   37  C   UNL     1     -40.867  59.437 -51.823  1.00  0.00     0.001 A 
HETATM   38  C   UNL     1     -40.872  58.439 -52.798  1.00  0.00     0.012 A 
ENDBRANCH   1  33
TORSDOF 6
ENDMDL
MODEL 9
REMARK VINA RESULT:      -7.6      3.517      8.877
REMARK  6 active torsions:
REMARK  status: ('A' for Active; 'I' for Inactive)
REMARK    1  A    between atoms: C_4  and  C_5 
REMARK    2  A    between atoms: C_6  and  N_7 
REMARK    3  A    between atoms: C_9  and  C_10 
REMARK       I    between atoms: C_10  and  N_11 
REMARK    4  A    between atoms: N_11  and  C_12 
REMARK    5  A    between atoms: C_12  and  C_13 
REMARK    6  A    between atoms: C_13  and  N_14 
ROOT
HETATM    1  C   UNL     1     -43.231  58.910 -58.736  1.00  0.00     0.019 A 
HETATM    2  C   UNL     1     -42.898  58.936 -57.411  1.00  0.00     0.111 A 
HETATM    3  C   UNL     1     -41.918  60.028 -56.946  1.00  0.00     0.273 A 
HETATM    4  O   UNL     1     -41.555  60.147 -55.777  1.00  0.00    -0.266 OA
HETATM    5  N   UNL     1     -41.439  60.908 -57.867  1.00  0.00    -0.321 N 
HETATM    6  C   UNL     1     -41.776  60.890 -59.211  1.00  0.00     0.046 A 
HETATM    7  C   UNL     1     -42.664  59.920 -59.680  1.00  0.00     0.006 A 
HETATM    8  C   UNL     1     -41.223  61.852 -60.062  1.00  0.00     0.032 A 
HETATM    9  C   UNL     1     -41.562  61.857 -61.413  1.00  0.00     0.026 A 
HETATM   10  C   UNL     1     -42.448  60.901 -61.899  1.00  0.00     0.035 A 
HETATM   11 CL   UNL     1     -42.880  60.906 -63.564  1.00  0.00    -0.084 Cl
HETATM   12  C   UNL     1     -42.995  59.940 -61.045  1.00  0.00     0.038 A 
HETATM   13  H   UNL     1     -40.788  61.596 -57.509  1.00  0.00     0.169 HD
ENDROOT
BRANCH   2  14
HETATM   14  N   UNL     1     -43.383  58.011 -56.423  1.00  0.00    -0.375 N 
HETATM   15  C   UNL     1     -43.247  56.544 -56.655  1.00  0.00     0.137 C 
HETATM   16  C   UNL     1     -43.363  55.754 -55.349  1.00  0.00     0.096 C 
HETATM   17  C   UNL     1     -44.536  56.193 -54.462  1.00  0.00     0.017 C 
HETATM   18  C   UNL     1     -44.764  57.703 -54.432  1.00  0.00     0.021 C 
HETATM   19  C   UNL     1     -44.716  58.296 -55.834  1.00  0.00     0.123 C 
BRANCH  16  20
HETATM   20  C   UNL     1     -42.042  55.731 -54.600  1.00  0.00     0.223 C 
HETATM   21  N   UNL     1     -41.727  54.578 -53.934  1.00  0.00    -0.359 N 
HETATM   22  H   UNL     1     -42.431  53.836 -53.991  1.00  0.00     0.162 HD
HETATM   23  O   UNL     1     -41.306  56.719 -54.551  1.00  0.00    -0.273 OA
BRANCH  21  24
HETATM   24  C   UNL     1     -40.421  54.213 -53.393  1.00  0.00     0.150 C 
BRANCH  24  25
HETATM   25  C   UNL     1     -40.341  53.221 -52.210  1.00  0.00     0.254 C 
BRANCH  25  26
HETATM   26  N   UNL     1     -40.340  51.775 -52.637  1.00  0.00    -0.066 N 
HETATM   27  H   UNL     1     -41.324  51.479 -52.482  1.00  0.00     0.280 HD
HETATM   28  C   UNL     1     -39.978  51.522 -54.084  1.00  0.00     0.261 C 
HETATM   29  C   UNL     1     -40.074  50.022 -54.388  1.00  0.00     0.195 C 
HETATM   30  O   UNL     1     -39.244  49.262 -53.502  1.00  0.00    -0.388 OA
HETATM   31  C   UNL     1     -39.644  49.434 -52.136  1.00  0.00     0.195 C 
HETATM   32  C   UNL     1     -39.512  50.900 -51.710  1.00  0.00     0.261 C 
ENDBRANCH  25  26
ENDBRANCH  24  25
ENDBRANCH  21  24
ENDBRANCH  16  20
ENDBRANCH   2  14
BRANCH   1  33
HETATM   33  C   UNL     1     -44.201  57.887 -59.218  1.00  0.00    -0.023 A 
HETATM   34  C   UNL     1     -45.577  58.121 -59.123  1.00  0.00     0.012 A 
HETATM   35  C   UNL     1     -46.488  57.192 -59.633  1.00  0.00     0.001 A 
HETATM   36  C   UNL     1     -46.026  56.029 -60.250  1.00  0.00     0.000 A 
HETATM   37  C   UNL     1     -44.657  55.801 -60.373  1.00  0.00     0.001 A 
HETATM   38  C   UNL     1     -43.747  56.732 -59.871  1.00  0.00     0.012 A 
ENDBRANCH   1  33
TORSDOF 6
ENDMDL
MODEL 10
REMARK VINA RESULT:      -7.6      3.502      6.627
REMARK  6 active torsions:
REMARK  status: ('A' for Active; 'I' for Inactive)
REMARK    1  A    between atoms: C_4  and  C_5 
REMARK    2  A    between atoms: C_6  and  N_7 
REMARK    3  A    between atoms: C_9  and  C_10 
REMARK       I    between atoms: C_10  and  N_11 
REMARK    4  A    between atoms: N_11  and  C_12 
REMARK    5  A    between atoms: C_12  and  C_13 
REMARK    6  A    between atoms: C_13  and  N_14 
ROOT
HETATM    1  C   UNL     1     -42.597  59.018 -51.027  1.00  0.00     0.019 A 
HETATM    2  C   UNL     1     -43.185  57.785 -51.025  1.00  0.00     0.111 A 
HETATM    3  C   UNL     1     -44.702  57.720 -50.770  1.00  0.00     0.273 A 
HETATM    4  O   UNL     1     -45.332  56.664 -50.753  1.00  0.00    -0.266 OA
HETATM    5  N   UNL     1     -45.377  58.883 -50.564  1.00  0.00    -0.321 N 
HETATM    6  C   UNL     1     -44.789  60.138 -50.569  1.00  0.00     0.046 A 
HETATM    7  C   UNL     1     -43.417  60.247 -50.799  1.00  0.00     0.006 A 
HETATM    8  C   UNL     1     -45.589  61.263 -50.351  1.00  0.00     0.032 A 
HETATM    9  C   UNL     1     -45.016  62.533 -50.366  1.00  0.00     0.026 A 
HETATM   10  C   UNL     1     -43.651  62.664 -50.598  1.00  0.00     0.035 A 
HETATM   11 CL   UNL     1     -42.936  64.228 -50.628  1.00  0.00    -0.084 Cl
HETATM   12  C   UNL     1     -42.855  61.536 -50.811  1.00  0.00     0.038 A 
HETATM   13  H   UNL     1     -46.369  58.781 -50.388  1.00  0.00     0.169 HD
ENDROOT
BRANCH   2  14
HETATM   14  N   UNL     1     -42.491  56.543 -51.230  1.00  0.00    -0.375 N 
HETATM   15  C   UNL     1     -43.155  55.442 -51.987  1.00  0.00     0.137 C 
HETATM   16  C   UNL     1     -42.138  54.424 -52.510  1.00  0.00     0.096 C 
HETATM   17  C   UNL     1     -41.099  53.995 -51.465  1.00  0.00     0.017 C 
HETATM   18  C   UNL     1     -40.610  55.131 -50.569  1.00  0.00     0.021 C 
HETATM   19  C   UNL     1     -41.773  55.973 -50.061  1.00  0.00     0.123 C 
BRANCH  16  20
HETATM   20  C   UNL     1     -41.502  54.896 -53.806  1.00  0.00     0.223 C 
HETATM   21  N   UNL     1     -42.249  55.725 -54.596  1.00  0.00    -0.359 N 
HETATM   22  H   UNL     1     -43.187  55.938 -54.242  1.00  0.00     0.162 HD
HETATM   23  O   UNL     1     -40.383  54.515 -54.157  1.00  0.00    -0.273 OA
BRANCH  21  24
HETATM   24  C   UNL     1     -41.770  56.523 -55.721  1.00  0.00     0.150 C 
BRANCH  24  25
HETATM   25  C   UNL     1     -42.711  57.565 -56.368  1.00  0.00     0.254 C 
BRANCH  25  26
HETATM   26  N   UNL     1     -42.940  57.335 -57.841  1.00  0.00    -0.066 N 
HETATM   27  H   UNL     1     -43.903  57.697 -57.992  1.00  0.00     0.280 HD
HETATM   28  C   UNL     1     -41.995  58.064 -58.771  1.00  0.00     0.261 C 
HETATM   29  C   UNL     1     -42.381  57.784 -60.228  1.00  0.00     0.195 C 
HETATM   30  O   UNL     1     -42.397  56.378 -60.496  1.00  0.00    -0.388 OA
HETATM   31  C   UNL     1     -43.356  55.699 -59.676  1.00  0.00     0.195 C 
HETATM   32  C   UNL     1     -43.013  55.858 -58.191  1.00  0.00     0.261 C 
ENDBRANCH  25  26
ENDBRANCH  24  25
ENDBRANCH  21  24
ENDBRANCH  16  20
ENDBRANCH   2  14
BRANCH   1  33
HETATM   33  C   UNL     1     -41.137  59.123 -51.301  1.00  0.00    -0.023 A 
HETATM   34  C   UNL     1     -40.245  59.420 -50.265  1.00  0.00     0.012 A 
HETATM   35  C   UNL     1     -38.869  59.456 -50.507  1.00  0.00     0.001 A 
HETATM   36  C   UNL     1     -38.379  59.185 -51.784  1.00  0.00     0.000 A 
HETATM   37  C   UNL     1     -39.258  58.862 -52.815  1.00  0.00     0.001 A 
HETATM   38  C   UNL     1     -40.631  58.819 -52.573  1.00  0.00     0.012 A 
ENDBRANCH   1  33
TORSDOF 6
ENDMDL
