MODEL 1
REMARK VINA RESULT:      -8.3      0.000      0.000
REMARK  5 active torsions:
REMARK  status: ('A' for Active; 'I' for Inactive)
REMARK    1  A    between atoms: N_2  and  C_4 
REMARK    2  A    between atoms: C_4  and  C_5 
REMARK    3  A    between atoms: C_5  and  N_6 
REMARK    4  A    between atoms: C_11  and  C_12 
REMARK    5  A    between atoms: C_14  and  O_15 
ROOT
HETATM    1  N   UNL     1     -43.011  56.701 -51.868  1.00  0.00    -0.332 N 
HETATM    2  C   UNL     1     -42.131  55.998 -51.060  1.00  0.00     0.279 C 
HETATM    3  O   UNL     1     -41.811  56.303 -49.928  1.00  0.00    -0.265 OA
HETATM    4  C   UNL     1     -41.701  54.818 -51.829  1.00  0.00     0.156 A 
HETATM    5  C   UNL     1     -42.401  54.827 -52.964  1.00  0.00     0.060 A 
HETATM    6  C   UNL     1     -43.412  55.909 -53.032  1.00  0.00     0.161 C 
HETATM    7  O   UNL     1     -40.764  53.911 -51.425  1.00  0.00    -0.303 OA
HETATM    8  C   UNL     1     -40.473  52.905 -52.323  1.00  0.00     0.090 A 
HETATM    9  C   UNL     1     -41.103  52.798 -53.574  1.00  0.00     0.051 A 
HETATM   10  C   UNL     1     -42.169  53.761 -53.933  1.00  0.00     0.196 A 
HETATM   11  O   UNL     1     -42.828  53.667 -54.955  1.00  0.00    -0.287 OA
HETATM   12  C   UNL     1     -39.507  51.974 -51.944  1.00  0.00     0.041 A 
HETATM   13  C   UNL     1     -39.156  50.949 -52.826  1.00  0.00     0.045 A 
HETATM   14  C   UNL     1     -39.769  50.869 -54.074  1.00  0.00     0.117 A 
HETATM   15  F   UNL     1     -39.414  49.891 -54.917  1.00  0.00    -0.206 F 
HETATM   16  C   UNL     1     -40.744  51.781 -54.461  1.00  0.00     0.060 A 
ENDROOT
BRANCH   6  17
HETATM   17  C   UNL     1     -43.570  56.713 -54.293  1.00  0.00    -0.028 A 
HETATM   18  C   UNL     1     -44.873  56.988 -54.748  1.00  0.00     0.046 A 
HETATM   19  C   UNL     1     -45.080  57.781 -55.871  1.00  0.00     0.066 A 
HETATM   20  C   UNL     1     -44.008  58.310 -56.571  1.00  0.00     0.036 A 
HETATM   21  C   UNL     1     -42.708  58.042 -56.138  1.00  0.00     0.003 A 
HETATM   22  C   UNL     1     -42.488  57.252 -55.002  1.00  0.00     0.010 A 
BRANCH  19  23
HETATM   23  O   UNL     1     -46.371  58.017 -56.236  1.00  0.00    -0.361 OA
HETATM   24  H   UNL     1     -46.896  57.217 -56.055  1.00  0.00     0.217 HD
ENDBRANCH  19  23
ENDBRANCH   6  17
BRANCH   1  25
HETATM   25  C   UNL     1     -43.396  58.090 -51.616  1.00  0.00     0.155 C 
BRANCH  25  26
HETATM   26  C   UNL     1     -42.245  59.091 -51.751  1.00  0.00     0.254 C 
BRANCH  26  27
HETATM   27  N   UNL     1     -41.835  59.657 -50.403  1.00  0.00    -0.077 N 
HETATM   28  C   UNL     1     -42.408  61.027 -50.185  1.00  0.00     0.269 C 
HETATM   29  H   UNL     1     -42.226  59.031 -49.683  1.00  0.00     0.279 HD
HETATM   30  C   UNL     1     -40.345  59.646 -50.176  1.00  0.00     0.269 C 
ENDBRANCH  26  27
ENDBRANCH  25  26
ENDBRANCH   1  25
TORSDOF 5
ENDMDL
MODEL 2
REMARK VINA RESULT:      -7.7      2.264      4.759
REMARK  5 active torsions:
REMARK  status: ('A' for Active; 'I' for Inactive)
REMARK    1  A    between atoms: N_2  and  C_4 
REMARK    2  A    between atoms: C_4  and  C_5 
REMARK    3  A    between atoms: C_5  and  N_6 
REMARK    4  A    between atoms: C_11  and  C_12 
REMARK    5  A    between atoms: C_14  and  O_15 
ROOT
HETATM    1  N   UNL     1     -42.756  57.378 -55.134  1.00  0.00    -0.332 N 
HETATM    2  C   UNL     1     -42.358  56.267 -55.861  1.00  0.00     0.279 C 
HETATM    3  O   UNL     1     -42.492  56.120 -57.061  1.00  0.00    -0.265 OA
HETATM    4  C   UNL     1     -41.728  55.339 -54.906  1.00  0.00     0.156 A 
HETATM    5  C   UNL     1     -41.692  55.969 -53.731  1.00  0.00     0.060 A 
HETATM    6  C   UNL     1     -42.176  57.369 -53.790  1.00  0.00     0.161 C 
HETATM    7  O   UNL     1     -41.279  54.085 -55.203  1.00  0.00    -0.303 OA
HETATM    8  C   UNL     1     -40.767  53.363 -54.145  1.00  0.00     0.090 A 
HETATM    9  C   UNL     1     -40.691  53.877 -52.840  1.00  0.00     0.051 A 
HETATM   10  C   UNL     1     -41.119  55.272 -52.586  1.00  0.00     0.196 A 
HETATM   11  O   UNL     1     -40.986  55.816 -51.502  1.00  0.00    -0.287 OA
HETATM   12  C   UNL     1     -40.316  52.071 -54.416  1.00  0.00     0.041 A 
HETATM   13  C   UNL     1     -39.811  51.287 -53.377  1.00  0.00     0.045 A 
HETATM   14  C   UNL     1     -39.765  51.799 -52.081  1.00  0.00     0.117 A 
HETATM   15  F   UNL     1     -39.292  51.033 -51.091  1.00  0.00    -0.206 F 
HETATM   16  C   UNL     1     -40.197  53.089 -51.799  1.00  0.00     0.060 A 
ENDROOT
BRANCH   6  17
HETATM   17  C   UNL     1     -43.099  57.892 -52.723  1.00  0.00    -0.028 A 
HETATM   18  C   UNL     1     -42.855  59.177 -52.204  1.00  0.00     0.046 A 
HETATM   19  C   UNL     1     -43.712  59.736 -51.263  1.00  0.00     0.066 A 
HETATM   20  C   UNL     1     -44.820  59.039 -50.812  1.00  0.00     0.036 A 
HETATM   21  C   UNL     1     -45.074  57.760 -51.312  1.00  0.00     0.003 A 
HETATM   22  C   UNL     1     -44.222  57.189 -52.266  1.00  0.00     0.010 A 
BRANCH  19  23
HETATM   23  O   UNL     1     -43.418  60.992 -50.824  1.00  0.00    -0.361 OA
HETATM   24  H   UNL     1     -42.547  60.972 -50.389  1.00  0.00     0.217 HD
ENDBRANCH  19  23
ENDBRANCH   6  17
BRANCH   1  25
HETATM   25  C   UNL     1     -43.710  58.366 -55.638  1.00  0.00     0.155 C 
BRANCH  25  26
HETATM   26  C   UNL     1     -45.128  57.821 -55.835  1.00  0.00     0.254 C 
BRANCH  26  27
HETATM   27  N   UNL     1     -45.502  57.754 -57.305  1.00  0.00    -0.077 N 
HETATM   28  C   UNL     1     -44.595  58.607 -58.142  1.00  0.00     0.269 C 
HETATM   29  H   UNL     1     -45.380  56.774 -57.601  1.00  0.00     0.279 HD
HETATM   30  C   UNL     1     -46.951  58.073 -57.569  1.00  0.00     0.269 C 
ENDBRANCH  26  27
ENDBRANCH  25  26
ENDBRANCH   1  25
TORSDOF 5
ENDMDL
MODEL 3
REMARK VINA RESULT:      -7.6      1.560      2.052
REMARK  5 active torsions:
REMARK  status: ('A' for Active; 'I' for Inactive)
REMARK    1  A    between atoms: N_2  and  C_4 
REMARK    2  A    between atoms: C_4  and  C_5 
REMARK    3  A    between atoms: C_5  and  N_6 
REMARK    4  A    between atoms: C_11  and  C_12 
REMARK    5  A    between atoms: C_14  and  O_15 
ROOT
HETATM    1  N   UNL     1     -42.765  57.425 -52.401  1.00  0.00    -0.332 N 
HETATM    2  C   UNL     1     -41.831  56.773 -51.610  1.00  0.00     0.279 C 
HETATM    3  O   UNL     1     -41.344  57.208 -50.585  1.00  0.00    -0.265 OA
HETATM    4  C   UNL     1     -41.584  55.464 -52.239  1.00  0.00     0.156 A 
HETATM    5  C   UNL     1     -42.427  55.371 -53.269  1.00  0.00     0.060 A 
HETATM    6  C   UNL     1     -43.367  56.512 -53.374  1.00  0.00     0.161 C 
HETATM    7  O   UNL     1     -40.661  54.550 -51.821  1.00  0.00    -0.303 OA
HETATM    8  C   UNL     1     -40.558  53.407 -52.587  1.00  0.00     0.090 A 
HETATM    9  C   UNL     1     -41.355  53.176 -53.720  1.00  0.00     0.051 A 
HETATM   10  C   UNL     1     -42.395  54.164 -54.086  1.00  0.00     0.196 A 
HETATM   11  O   UNL     1     -43.189  53.981 -54.995  1.00  0.00    -0.287 OA
HETATM   12  C   UNL     1     -39.610  52.461 -52.193  1.00  0.00     0.041 A 
HETATM   13  C   UNL     1     -39.446  51.297 -52.946  1.00  0.00     0.045 A 
HETATM   14  C   UNL     1     -40.225  51.092 -54.084  1.00  0.00     0.117 A 
HETATM   15  F   UNL     1     -40.048  49.979 -54.806  1.00  0.00    -0.206 F 
HETATM   16  C   UNL     1     -41.182  52.018 -54.481  1.00  0.00     0.060 A 
ENDROOT
BRANCH   6  17
HETATM   17  C   UNL     1     -43.641  57.140 -54.713  1.00  0.00    -0.028 A 
HETATM   18  C   UNL     1     -42.587  57.212 -55.642  1.00  0.00     0.046 A 
HETATM   19  C   UNL     1     -42.798  57.723 -56.918  1.00  0.00     0.066 A 
HETATM   20  C   UNL     1     -44.050  58.180 -57.298  1.00  0.00     0.036 A 
HETATM   21  C   UNL     1     -45.106  58.123 -56.387  1.00  0.00     0.003 A 
HETATM   22  C   UNL     1     -44.906  57.602 -55.102  1.00  0.00     0.010 A 
BRANCH  19  23
HETATM   23  O   UNL     1     -41.732  57.740 -57.766  1.00  0.00    -0.361 OA
HETATM   24  H   UNL     1     -40.972  58.132 -57.300  1.00  0.00     0.217 HD
ENDBRANCH  19  23
ENDBRANCH   6  17
BRANCH   1  25
HETATM   25  C   UNL     1     -43.024  58.862 -52.315  1.00  0.00     0.155 C 
BRANCH  25  26
HETATM   26  C   UNL     1     -44.118  59.240 -51.313  1.00  0.00     0.254 C 
BRANCH  26  27
HETATM   27  N   UNL     1     -44.844  60.508 -51.727  1.00  0.00    -0.077 N 
HETATM   28  C   UNL     1     -44.549  61.642 -50.788  1.00  0.00     0.269 C 
HETATM   29  H   UNL     1     -44.487  60.767 -52.659  1.00  0.00     0.279 HD
HETATM   30  C   UNL     1     -46.328  60.319 -51.906  1.00  0.00     0.269 C 
ENDBRANCH  26  27
ENDBRANCH  25  26
ENDBRANCH   1  25
TORSDOF 5
ENDMDL
MODEL 4
REMARK VINA RESULT:      -7.4      2.855      5.188
REMARK  5 active torsions:
REMARK  status: ('A' for Active; 'I' for Inactive)
REMARK    1  A    between atoms: N_2  and  C_4 
REMARK    2  A    between atoms: C_4  and  C_5 
REMARK    3  A    between atoms: C_5  and  N_6 
REMARK    4  A    between atoms: C_11  and  C_12 
REMARK    5  A    between atoms: C_14  and  O_15 
ROOT
HETATM    1  N   UNL     1     -43.695  56.947 -54.399  1.00  0.00    -0.332 N 
HETATM    2  C   UNL     1     -43.305  55.617 -54.402  1.00  0.00     0.279 C 
HETATM    3  O   UNL     1     -43.524  54.817 -55.291  1.00  0.00    -0.265 OA
HETATM    4  C   UNL     1     -42.562  55.390 -53.151  1.00  0.00     0.156 A 
HETATM    5  C   UNL     1     -42.464  56.575 -52.546  1.00  0.00     0.060 A 
HETATM    6  C   UNL     1     -43.013  57.698 -53.343  1.00  0.00     0.161 C 
HETATM    7  O   UNL     1     -42.081  54.185 -52.725  1.00  0.00    -0.303 OA
HETATM    8  C   UNL     1     -41.457  54.188 -51.495  1.00  0.00     0.090 A 
HETATM    9  C   UNL     1     -41.303  55.351 -50.722  1.00  0.00     0.051 A 
HETATM   10  C   UNL     1     -41.773  56.646 -51.264  1.00  0.00     0.196 A 
HETATM   11  O   UNL     1     -41.581  57.708 -50.694  1.00  0.00    -0.287 OA
HETATM   12  C   UNL     1     -40.970  52.967 -51.027  1.00  0.00     0.041 A 
HETATM   13  C   UNL     1     -40.352  52.907 -49.777  1.00  0.00     0.045 A 
HETATM   14  C   UNL     1     -40.229  54.063 -49.008  1.00  0.00     0.117 A 
HETATM   15  F   UNL     1     -39.647  53.990 -47.805  1.00  0.00    -0.206 F 
HETATM   16  C   UNL     1     -40.696  55.289 -49.467  1.00  0.00     0.060 A 
ENDROOT
BRANCH   6  17
HETATM   17  C   UNL     1     -43.874  58.740 -52.681  1.00  0.00    -0.028 A 
HETATM   18  C   UNL     1     -44.875  58.309 -51.791  1.00  0.00     0.046 A 
HETATM   19  C   UNL     1     -45.656  59.229 -51.102  1.00  0.00     0.066 A 
HETATM   20  C   UNL     1     -45.471  60.590 -51.283  1.00  0.00     0.036 A 
HETATM   21  C   UNL     1     -44.487  61.036 -52.167  1.00  0.00     0.003 A 
HETATM   22  C   UNL     1     -43.688  60.117 -52.861  1.00  0.00     0.010 A 
BRANCH  19  23
HETATM   23  O   UNL     1     -46.590  58.733 -50.243  1.00  0.00    -0.361 OA
HETATM   24  H   UNL     1     -47.086  58.029 -50.698  1.00  0.00     0.217 HD
ENDBRANCH  19  23
ENDBRANCH   6  17
BRANCH   1  25
HETATM   25  C   UNL     1     -44.729  57.482 -55.285  1.00  0.00     0.155 C 
BRANCH  25  26
HETATM   26  C   UNL     1     -44.197  57.985 -56.631  1.00  0.00     0.254 C 
BRANCH  26  27
HETATM   27  N   UNL     1     -44.334  56.931 -57.715  1.00  0.00    -0.077 N 
HETATM   28  C   UNL     1     -42.993  56.505 -58.240  1.00  0.00     0.269 C 
HETATM   29  H   UNL     1     -44.780  56.109 -57.281  1.00  0.00     0.279 HD
HETATM   30  C   UNL     1     -45.254  57.340 -58.836  1.00  0.00     0.269 C 
ENDBRANCH  26  27
ENDBRANCH  25  26
ENDBRANCH   1  25
TORSDOF 5
ENDMDL
MODEL 5
REMARK VINA RESULT:      -7.4      3.523      7.152
REMARK  5 active torsions:
REMARK  status: ('A' for Active; 'I' for Inactive)
REMARK    1  A    between atoms: N_2  and  C_4 
REMARK    2  A    between atoms: C_4  and  C_5 
REMARK    3  A    between atoms: C_5  and  N_6 
REMARK    4  A    between atoms: C_11  and  C_12 
REMARK    5  A    between atoms: C_14  and  O_15 
ROOT
HETATM    1  N   UNL     1     -42.509  55.972 -53.885  1.00  0.00    -0.332 N 
HETATM    2  C   UNL     1     -42.648  55.541 -55.195  1.00  0.00     0.279 C 
HETATM    3  O   UNL     1     -42.860  54.396 -55.545  1.00  0.00    -0.265 OA
HETATM    4  C   UNL     1     -42.518  56.733 -56.050  1.00  0.00     0.156 A 
HETATM    5  C   UNL     1     -42.419  57.781 -55.230  1.00  0.00     0.060 A 
HETATM    6  C   UNL     1     -42.573  57.432 -53.797  1.00  0.00     0.161 C 
HETATM    7  O   UNL     1     -42.506  56.728 -57.415  1.00  0.00    -0.303 OA
HETATM    8  C   UNL     1     -42.324  57.955 -58.019  1.00  0.00     0.090 A 
HETATM    9  C   UNL     1     -42.172  59.146 -57.291  1.00  0.00     0.051 A 
HETATM   10  C   UNL     1     -42.271  59.109 -55.814  1.00  0.00     0.196 A 
HETATM   11  O   UNL     1     -42.251  60.116 -55.125  1.00  0.00    -0.287 OA
HETATM   12  C   UNL     1     -42.290  57.978 -59.413  1.00  0.00     0.041 A 
HETATM   13  C   UNL     1     -42.083  59.189 -60.077  1.00  0.00     0.045 A 
HETATM   14  C   UNL     1     -41.908  60.360 -59.342  1.00  0.00     0.117 A 
HETATM   15  F   UNL     1     -41.695  61.513 -59.988  1.00  0.00    -0.206 F 
HETATM   16  C   UNL     1     -41.953  60.355 -57.953  1.00  0.00     0.060 A 
ENDROOT
BRANCH   6  17
HETATM   17  C   UNL     1     -41.642  58.024 -52.775  1.00  0.00    -0.028 A 
HETATM   18  C   UNL     1     -40.341  58.374 -53.184  1.00  0.00     0.046 A 
HETATM   19  C   UNL     1     -39.459  58.984 -52.299  1.00  0.00     0.066 A 
HETATM   20  C   UNL     1     -39.839  59.254 -50.994  1.00  0.00     0.036 A 
HETATM   21  C   UNL     1     -41.123  58.908 -50.570  1.00  0.00     0.003 A 
HETATM   22  C   UNL     1     -42.024  58.300 -51.455  1.00  0.00     0.010 A 
BRANCH  19  23
HETATM   23  O   UNL     1     -38.225  59.310 -52.776  1.00  0.00    -0.361 OA
HETATM   24  H   UNL     1     -38.330  59.714 -53.655  1.00  0.00     0.217 HD
ENDBRANCH  19  23
ENDBRANCH   6  17
BRANCH   1  25
HETATM   25  C   UNL     1     -42.238  55.068 -52.767  1.00  0.00     0.155 C 
BRANCH  25  26
HETATM   26  C   UNL     1     -40.804  54.531 -52.733  1.00  0.00     0.254 C 
BRANCH  26  27
HETATM   27  N   UNL     1     -40.772  53.016 -52.837  1.00  0.00    -0.077 N 
HETATM   28  C   UNL     1     -40.010  52.404 -51.698  1.00  0.00     0.269 C 
HETATM   29  H   UNL     1     -41.748  52.691 -52.777  1.00  0.00     0.279 HD
HETATM   30  C   UNL     1     -40.264  52.517 -54.164  1.00  0.00     0.269 C 
ENDBRANCH  26  27
ENDBRANCH  25  26
ENDBRANCH   1  25
TORSDOF 5
ENDMDL
MODEL 6
REMARK VINA RESULT:      -7.3      2.296      4.222
REMARK  5 active torsions:
REMARK  status: ('A' for Active; 'I' for Inactive)
REMARK    1  A    between atoms: N_2  and  C_4 
REMARK    2  A    between atoms: C_4  and  C_5 
REMARK    3  A    between atoms: C_5  and  N_6 
REMARK    4  A    between atoms: C_11  and  C_12 
REMARK    5  A    between atoms: C_14  and  O_15 
ROOT
HETATM    1  N   UNL     1     -42.614  57.227 -55.411  1.00  0.00    -0.332 N 
HETATM    2  C   UNL     1     -42.331  56.028 -56.045  1.00  0.00     0.279 C 
HETATM    3  O   UNL     1     -42.544  55.778 -57.215  1.00  0.00    -0.265 OA
HETATM    4  C   UNL     1     -41.706  55.153 -55.038  1.00  0.00     0.156 A 
HETATM    5  C   UNL     1     -41.560  55.887 -53.933  1.00  0.00     0.060 A 
HETATM    6  C   UNL     1     -41.957  57.305 -54.104  1.00  0.00     0.161 C 
HETATM    7  O   UNL     1     -41.356  53.848 -55.234  1.00  0.00    -0.303 OA
HETATM    8  C   UNL     1     -40.829  53.196 -54.139  1.00  0.00     0.090 A 
HETATM    9  C   UNL     1     -40.643  53.824 -52.896  1.00  0.00     0.051 A 
HETATM   10  C   UNL     1     -40.966  55.262 -52.757  1.00  0.00     0.196 A 
HETATM   11  O   UNL     1     -40.734  55.896 -51.741  1.00  0.00    -0.287 OA
HETATM   12  C   UNL     1     -40.479  51.856 -54.305  1.00  0.00     0.041 A 
HETATM   13  C   UNL     1     -39.964  51.140 -53.222  1.00  0.00     0.045 A 
HETATM   14  C   UNL     1     -39.809  51.767 -51.987  1.00  0.00     0.117 A 
HETATM   15  F   UNL     1     -39.327  51.067 -50.953  1.00  0.00    -0.206 F 
HETATM   16  C   UNL     1     -40.140  53.105 -51.810  1.00  0.00     0.060 A 
ENDROOT
BRANCH   6  17
HETATM   17  C   UNL     1     -42.779  57.989 -53.047  1.00  0.00    -0.028 A 
HETATM   18  C   UNL     1     -43.826  57.265 -52.447  1.00  0.00     0.046 A 
HETATM   19  C   UNL     1     -44.578  57.824 -51.419  1.00  0.00     0.066 A 
HETATM   20  C   UNL     1     -44.317  59.107 -50.969  1.00  0.00     0.036 A 
HETATM   21  C   UNL     1     -43.286  59.842 -51.557  1.00  0.00     0.003 A 
HETATM   22  C   UNL     1     -42.516  59.287 -52.587  1.00  0.00     0.010 A 
BRANCH  19  23
HETATM   23  O   UNL     1     -45.561  57.052 -50.877  1.00  0.00    -0.361 OA
HETATM   24  H   UNL     1     -45.445  57.038 -49.910  1.00  0.00     0.217 HD
ENDBRANCH  19  23
ENDBRANCH   6  17
BRANCH   1  25
HETATM   25  C   UNL     1     -43.531  58.227 -55.957  1.00  0.00     0.155 C 
BRANCH  25  26
HETATM   26  C   UNL     1     -42.936  59.063 -57.095  1.00  0.00     0.254 C 
BRANCH  26  27
HETATM   27  N   UNL     1     -42.286  60.333 -56.576  1.00  0.00    -0.077 N 
HETATM   28  C   UNL     1     -43.215  61.100 -55.680  1.00  0.00     0.269 C 
HETATM   29  H   UNL     1     -41.471  60.045 -56.015  1.00  0.00     0.279 HD
HETATM   30  C   UNL     1     -41.731  61.211 -57.667  1.00  0.00     0.269 C 
ENDBRANCH  26  27
ENDBRANCH  25  26
ENDBRANCH   1  25
TORSDOF 5
ENDMDL
MODEL 7
REMARK VINA RESULT:      -7.3      3.172      6.512
REMARK  5 active torsions:
REMARK  status: ('A' for Active; 'I' for Inactive)
REMARK    1  A    between atoms: N_2  and  C_4 
REMARK    2  A    between atoms: C_4  and  C_5 
REMARK    3  A    between atoms: C_5  and  N_6 
REMARK    4  A    between atoms: C_11  and  C_12 
REMARK    5  A    between atoms: C_14  and  O_15 
ROOT
HETATM    1  N   UNL     1     -42.587  55.059 -53.445  1.00  0.00    -0.332 N 
HETATM    2  C   UNL     1     -42.589  54.336 -54.628  1.00  0.00     0.279 C 
HETATM    3  O   UNL     1     -42.397  53.139 -54.727  1.00  0.00    -0.265 OA
HETATM    4  C   UNL     1     -42.896  55.289 -55.707  1.00  0.00     0.156 A 
HETATM    5  C   UNL     1     -43.153  56.459 -55.121  1.00  0.00     0.060 A 
HETATM    6  C   UNL     1     -43.152  56.395 -53.639  1.00  0.00     0.161 C 
HETATM    7  O   UNL     1     -42.906  54.996 -57.041  1.00  0.00    -0.303 OA
HETATM    8  C   UNL     1     -43.171  56.053 -57.887  1.00  0.00     0.090 A 
HETATM    9  C   UNL     1     -43.430  57.353 -57.422  1.00  0.00     0.051 A 
HETATM   10  C   UNL     1     -43.485  57.602 -55.963  1.00  0.00     0.196 A 
HETATM   11  O   UNL     1     -43.805  58.680 -55.489  1.00  0.00    -0.287 OA
HETATM   12  C   UNL     1     -43.171  55.786 -59.256  1.00  0.00     0.041 A 
HETATM   13  C   UNL     1     -43.408  56.824 -60.159  1.00  0.00     0.045 A 
HETATM   14  C   UNL     1     -43.638  58.115 -59.687  1.00  0.00     0.117 A 
HETATM   15  F   UNL     1     -43.850  59.105 -60.562  1.00  0.00    -0.206 F 
HETATM   16  C   UNL     1     -43.655  58.393 -58.325  1.00  0.00     0.060 A 
ENDROOT
BRANCH   6  17
HETATM   17  C   UNL     1     -42.468  57.470 -52.841  1.00  0.00    -0.028 A 
HETATM   18  C   UNL     1     -41.152  57.826 -53.194  1.00  0.00     0.046 A 
HETATM   19  C   UNL     1     -40.494  58.856 -52.532  1.00  0.00     0.066 A 
HETATM   20  C   UNL     1     -41.116  59.550 -51.507  1.00  0.00     0.036 A 
HETATM   21  C   UNL     1     -42.418  59.207 -51.139  1.00  0.00     0.003 A 
HETATM   22  C   UNL     1     -43.095  58.176 -51.804  1.00  0.00     0.010 A 
BRANCH  19  23
HETATM   23  O   UNL     1     -39.231  59.154 -52.946  1.00  0.00    -0.361 OA
HETATM   24  H   UNL     1     -38.608  58.910 -52.238  1.00  0.00     0.217 HD
ENDBRANCH  19  23
ENDBRANCH   6  17
BRANCH   1  25
HETATM   25  C   UNL     1     -42.000  54.561 -52.201  1.00  0.00     0.155 C 
BRANCH  25  26
HETATM   26  C   UNL     1     -40.578  54.013 -52.358  1.00  0.00     0.254 C 
BRANCH  26  27
HETATM   27  N   UNL     1     -40.527  52.514 -52.123  1.00  0.00    -0.077 N 
HETATM   28  C   UNL     1     -40.215  52.192 -50.690  1.00  0.00     0.269 C 
HETATM   29  H   UNL     1     -41.465  52.145 -52.334  1.00  0.00     0.279 HD
HETATM   30  C   UNL     1     -39.593  51.792 -53.059  1.00  0.00     0.269 C 
ENDBRANCH  26  27
ENDBRANCH  25  26
ENDBRANCH   1  25
TORSDOF 5
ENDMDL
MODEL 8
REMARK VINA RESULT:      -7.2      2.859      5.851
REMARK  5 active torsions:
REMARK  status: ('A' for Active; 'I' for Inactive)
REMARK    1  A    between atoms: N_2  and  C_4 
REMARK    2  A    between atoms: C_4  and  C_5 
REMARK    3  A    between atoms: C_5  and  N_6 
REMARK    4  A    between atoms: C_11  and  C_12 
REMARK    5  A    between atoms: C_14  and  O_15 
ROOT
HETATM    1  N   UNL     1     -42.773  58.302 -53.862  1.00  0.00    -0.332 N 
HETATM    2  C   UNL     1     -43.569  58.982 -54.771  1.00  0.00     0.279 C 
HETATM    3  O   UNL     1     -44.053  60.085 -54.603  1.00  0.00    -0.265 OA
HETATM    4  C   UNL     1     -43.675  58.126 -55.965  1.00  0.00     0.156 A 
HETATM    5  C   UNL     1     -42.884  57.074 -55.751  1.00  0.00     0.060 A 
HETATM    6  C   UNL     1     -42.109  57.159 -54.490  1.00  0.00     0.161 C 
HETATM    7  O   UNL     1     -44.447  58.391 -57.060  1.00  0.00    -0.303 OA
HETATM    8  C   UNL     1     -44.439  57.428 -58.047  1.00  0.00     0.090 A 
HETATM    9  C   UNL     1     -43.681  56.249 -57.955  1.00  0.00     0.051 A 
HETATM   10  C   UNL     1     -42.801  56.045 -56.781  1.00  0.00     0.196 A 
HETATM   11  O   UNL     1     -42.039  55.097 -56.683  1.00  0.00    -0.287 OA
HETATM   12  C   UNL     1     -45.232  57.664 -59.171  1.00  0.00     0.041 A 
HETATM   13  C   UNL     1     -45.282  56.710 -60.190  1.00  0.00     0.045 A 
HETATM   14  C   UNL     1     -44.545  55.533 -60.074  1.00  0.00     0.117 A 
HETATM   15  F   UNL     1     -44.612  54.619 -61.050  1.00  0.00    -0.206 F 
HETATM   16  C   UNL     1     -43.741  55.290 -58.967  1.00  0.00     0.060 A 
ENDROOT
BRANCH   6  17
HETATM   17  C   UNL     1     -41.993  55.954 -53.597  1.00  0.00    -0.028 A 
HETATM   18  C   UNL     1     -43.158  55.475 -52.970  1.00  0.00     0.046 A 
HETATM   19  C   UNL     1     -43.122  54.329 -52.185  1.00  0.00     0.066 A 
HETATM   20  C   UNL     1     -41.937  53.636 -51.997  1.00  0.00     0.036 A 
HETATM   21  C   UNL     1     -40.770  54.100 -52.607  1.00  0.00     0.003 A 
HETATM   22  C   UNL     1     -40.795  55.250 -53.406  1.00  0.00     0.010 A 
BRANCH  19  23
HETATM   23  O   UNL     1     -44.296  53.919 -51.628  1.00  0.00    -0.361 OA
HETATM   24  H   UNL     1     -44.286  54.146 -50.681  1.00  0.00     0.217 HD
ENDBRANCH  19  23
ENDBRANCH   6  17
BRANCH   1  25
HETATM   25  C   UNL     1     -42.701  58.649 -52.443  1.00  0.00     0.155 C 
BRANCH  25  26
HETATM   26  C   UNL     1     -41.481  59.495 -52.069  1.00  0.00     0.254 C 
BRANCH  26  27
HETATM   27  N   UNL     1     -40.428  58.672 -51.347  1.00  0.00    -0.077 N 
HETATM   28  C   UNL     1     -41.054  57.612 -50.488  1.00  0.00     0.269 C 
HETATM   29  H   UNL     1     -39.866  58.203 -52.072  1.00  0.00     0.279 HD
HETATM   30  C   UNL     1     -39.451  59.506 -50.560  1.00  0.00     0.269 C 
ENDBRANCH  26  27
ENDBRANCH  25  26
ENDBRANCH   1  25
TORSDOF 5
ENDMDL
MODEL 9
REMARK VINA RESULT:      -7.2      2.811      5.864
REMARK  5 active torsions:
REMARK  status: ('A' for Active; 'I' for Inactive)
REMARK    1  A    between atoms: N_2  and  C_4 
REMARK    2  A    between atoms: C_4  and  C_5 
REMARK    3  A    between atoms: C_5  and  N_6 
REMARK    4  A    between atoms: C_11  and  C_12 
REMARK    5  A    between atoms: C_14  and  O_15 
ROOT
HETATM    1  N   UNL     1     -41.482  58.095 -53.846  1.00  0.00    -0.332 N 
HETATM    2  C   UNL     1     -41.871  58.934 -54.878  1.00  0.00     0.279 C 
HETATM    3  O   UNL     1     -41.806  60.148 -54.866  1.00  0.00    -0.265 OA
HETATM    4  C   UNL     1     -42.339  58.070 -55.975  1.00  0.00     0.156 A 
HETATM    5  C   UNL     1     -42.113  56.812 -55.592  1.00  0.00     0.060 A 
HETATM    6  C   UNL     1     -41.400  56.704 -54.296  1.00  0.00     0.161 C 
HETATM    7  O   UNL     1     -42.891  58.507 -57.144  1.00  0.00    -0.303 OA
HETATM    8  C   UNL     1     -43.308  57.524 -58.017  1.00  0.00     0.090 A 
HETATM    9  C   UNL     1     -43.168  56.153 -57.742  1.00  0.00     0.051 A 
HETATM   10  C   UNL     1     -42.491  55.731 -56.495  1.00  0.00     0.196 A 
HETATM   11  O   UNL     1     -42.244  54.564 -56.239  1.00  0.00    -0.287 OA
HETATM   12  C   UNL     1     -43.893  57.941 -59.213  1.00  0.00     0.041 A 
HETATM   13  C   UNL     1     -44.356  56.988 -60.122  1.00  0.00     0.045 A 
HETATM   14  C   UNL     1     -44.235  55.631 -59.826  1.00  0.00     0.117 A 
HETATM   15  F   UNL     1     -44.695  54.726 -60.698  1.00  0.00    -0.206 F 
HETATM   16  C   UNL     1     -43.642  55.200 -58.645  1.00  0.00     0.060 A 
ENDROOT
BRANCH   6  17
HETATM   17  C   UNL     1     -41.855  55.702 -53.270  1.00  0.00    -0.028 A 
HETATM   18  C   UNL     1     -40.885  54.878 -52.669  1.00  0.00     0.046 A 
HETATM   19  C   UNL     1     -41.238  53.980 -51.669  1.00  0.00     0.066 A 
HETATM   20  C   UNL     1     -42.553  53.872 -51.246  1.00  0.00     0.036 A 
HETATM   21  C   UNL     1     -43.529  54.677 -51.836  1.00  0.00     0.003 A 
HETATM   22  C   UNL     1     -43.184  55.591 -52.839  1.00  0.00     0.010 A 
BRANCH  19  23
HETATM   23  O   UNL     1     -40.238  53.232 -51.123  1.00  0.00    -0.361 OA
HETATM   24  H   UNL     1     -39.739  53.790 -50.500  1.00  0.00     0.217 HD
ENDBRANCH  19  23
ENDBRANCH   6  17
BRANCH   1  25
HETATM   25  C   UNL     1     -41.280  58.553 -52.472  1.00  0.00     0.155 C 
BRANCH  25  26
HETATM   26  C   UNL     1     -42.571  58.959 -51.754  1.00  0.00     0.254 C 
BRANCH  26  27
HETATM   27  N   UNL     1     -42.285  59.575 -50.396  1.00  0.00    -0.077 N 
HETATM   28  C   UNL     1     -42.802  60.982 -50.311  1.00  0.00     0.269 C 
HETATM   29  H   UNL     1     -42.789  59.009 -49.698  1.00  0.00     0.279 HD
HETATM   30  C   UNL     1     -40.834  59.503 -49.998  1.00  0.00     0.269 C 
ENDBRANCH  26  27
ENDBRANCH  25  26
ENDBRANCH   1  25
TORSDOF 5
ENDMDL
MODEL 10
REMARK VINA RESULT:      -7.1      5.172      8.309
REMARK  5 active torsions:
REMARK  status: ('A' for Active; 'I' for Inactive)
REMARK    1  A    between atoms: N_2  and  C_4 
REMARK    2  A    between atoms: C_4  and  C_5 
REMARK    3  A    between atoms: C_5  and  N_6 
REMARK    4  A    between atoms: C_11  and  C_12 
REMARK    5  A    between atoms: C_14  and  O_15 
ROOT
HETATM    1  N   UNL     1     -42.804  57.696 -56.740  1.00  0.00    -0.332 N 
HETATM    2  C   UNL     1     -42.161  58.823 -56.251  1.00  0.00     0.279 C 
HETATM    3  O   UNL     1     -41.896  59.037 -55.084  1.00  0.00    -0.265 OA
HETATM    4  C   UNL     1     -41.845  59.669 -57.415  1.00  0.00     0.156 A 
HETATM    5  C   UNL     1     -42.208  58.979 -58.497  1.00  0.00     0.060 A 
HETATM    6  C   UNL     1     -42.688  57.609 -58.197  1.00  0.00     0.161 C 
HETATM    7  O   UNL     1     -41.287  60.914 -57.358  1.00  0.00    -0.303 OA
HETATM    8  C   UNL     1     -41.122  61.554 -58.568  1.00  0.00     0.090 A 
HETATM    9  C   UNL     1     -41.485  60.971 -59.794  1.00  0.00     0.051 A 
HETATM   10  C   UNL     1     -42.013  59.588 -59.808  1.00  0.00     0.196 A 
HETATM   11  O   UNL     1     -42.253  58.983 -60.840  1.00  0.00    -0.287 OA
HETATM   12  C   UNL     1     -40.570  62.835 -58.539  1.00  0.00     0.041 A 
HETATM   13  C   UNL     1     -40.403  63.539 -59.733  1.00  0.00     0.045 A 
HETATM   14  C   UNL     1     -40.792  62.960 -60.940  1.00  0.00     0.117 A 
HETATM   15  F   UNL     1     -40.641  63.651 -62.077  1.00  0.00    -0.206 F 
HETATM   16  C   UNL     1     -41.330  61.680 -60.986  1.00  0.00     0.060 A 
ENDROOT
BRANCH   6  17
HETATM   17  C   UNL     1     -43.920  57.077 -58.877  1.00  0.00    -0.028 A 
HETATM   18  C   UNL     1     -43.864  55.791 -59.445  1.00  0.00     0.046 A 
HETATM   19  C   UNL     1     -44.990  55.224 -60.030  1.00  0.00     0.066 A 
HETATM   20  C   UNL     1     -46.190  55.915 -60.071  1.00  0.00     0.036 A 
HETATM   21  C   UNL     1     -46.262  57.194 -59.517  1.00  0.00     0.003 A 
HETATM   22  C   UNL     1     -45.136  57.773 -58.919  1.00  0.00     0.010 A 
BRANCH  19  23
HETATM   23  O   UNL     1     -44.860  53.968 -60.540  1.00  0.00    -0.361 OA
HETATM   24  H   UNL     1     -44.527  54.037 -61.453  1.00  0.00     0.217 HD
ENDBRANCH  19  23
ENDBRANCH   6  17
BRANCH   1  25
HETATM   25  C   UNL     1     -43.574  56.783 -55.896  1.00  0.00     0.155 C 
BRANCH  25  26
HETATM   26  C   UNL     1     -42.747  55.641 -55.297  1.00  0.00     0.254 C 
BRANCH  26  27
HETATM   27  N   UNL     1     -42.093  56.049 -53.989  1.00  0.00    -0.077 N 
HETATM   28  C   UNL     1     -40.998  55.097 -53.602  1.00  0.00     0.269 C 
HETATM   29  H   UNL     1     -41.668  56.975 -54.143  1.00  0.00     0.279 HD
HETATM   30  C   UNL     1     -43.074  56.241 -52.862  1.00  0.00     0.269 C 
ENDBRANCH  26  27
ENDBRANCH  25  26
ENDBRANCH   1  25
TORSDOF 5
ENDMDL
