MODEL 1
REMARK VINA RESULT:      -7.6      0.000      0.000
REMARK  6 active torsions:
REMARK  status: ('A' for Active; 'I' for Inactive)
REMARK    1  A    between atoms: C_2  and  O_3 
REMARK    2  A    between atoms: O_3  and  C_4 
REMARK    3  A    between atoms: C_7  and  C_8 
REMARK       I    between atoms: N_11  and  C_12 
REMARK       I    between atoms: C_12  and  N_13 
REMARK    4  A    between atoms: N_13  and  C_14 
REMARK    5  A    between atoms: C_14  and  C_15 
REMARK    6  A    between atoms: C_15  and  C_16 
ROOT
HETATM    1  C   UNL     1     -41.700  56.848 -51.711  1.00  0.00    -0.049 C 
HETATM    2  C   UNL     1     -43.040  57.291 -52.232  1.00  0.00     0.059 C 
HETATM    3  C   UNL     1     -43.635  58.401 -51.364  1.00  0.00     0.132 C 
HETATM    4  N   UNL     1     -42.675  59.478 -51.113  1.00  0.00    -0.331 N 
HETATM    5  C   UNL     1     -43.050  60.785 -50.822  1.00  0.00     0.318 C 
HETATM    6  N   UNL     1     -44.339  61.110 -51.132  1.00  0.00    -0.338 N 
HETATM    7  O   UNL     1     -42.294  61.584 -50.273  1.00  0.00    -0.247 OA
HETATM    8  C   UNL     1     -41.377  59.083 -50.574  1.00  0.00     0.155 C 
HETATM    9  C   UNL     1     -40.969  57.688 -50.954  1.00  0.00     0.001 C 
HETATM   10  H   UNL     1     -44.767  60.646 -51.924  1.00  0.00     0.164 HD
ENDROOT
BRANCH   6  11
HETATM   11  C   UNL     1     -44.930  62.408 -50.833  1.00  0.00     0.087 C 
HETATM   12  C   UNL     1     -45.330  63.144 -52.114  1.00  0.00     0.032 C 
BRANCH  11  13
HETATM   13  C   UNL     1     -46.106  62.255 -49.850  1.00  0.00     0.085 C 
BRANCH  13  14
HETATM   14  C   UNL     1     -45.781  61.548 -48.567  1.00  0.00     0.058 A 
HETATM   15  N   UNL     1     -45.992  60.230 -48.424  1.00  0.00    -0.179 NA
HETATM   16  N   UNL     1     -45.561  59.965 -47.180  1.00  0.00    -0.282 N 
HETATM   17  H   UNL     1     -45.622  59.009 -46.843  1.00  0.00     0.189 HD
HETATM   18  C   UNL     1     -45.076  61.059 -46.522  1.00  0.00     0.026 A 
HETATM   19  C   UNL     1     -44.531  60.991 -45.148  1.00  0.00     0.070 C 
HETATM   20  C   UNL     1     -45.209  62.109 -47.402  1.00  0.00     0.055 A 
ENDBRANCH  13  14
ENDBRANCH  11  13
ENDBRANCH   6  11
BRANCH   1  21
HETATM   21  C   UNL     1     -41.240  55.473 -51.988  1.00  0.00    -0.030 A 
HETATM   22  C   UNL     1     -40.811  54.637 -50.948  1.00  0.00     0.014 A 
HETATM   23  C   UNL     1     -40.383  53.328 -51.202  1.00  0.00     0.037 A 
HETATM   24  C   UNL     1     -40.377  52.832 -52.505  1.00  0.00     0.068 A 
HETATM   25  C   UNL     1     -40.791  53.662 -53.548  1.00  0.00     0.037 A 
HETATM   26  C   UNL     1     -41.222  54.969 -53.294  1.00  0.00     0.014 A 
BRANCH  24  27
HETATM   27  O   UNL     1     -39.986  51.578 -52.885  1.00  0.00    -0.352 OA
BRANCH  27  28
HETATM   28  C   UNL     1     -40.282  51.189 -54.226  1.00  0.00     0.171 C 
HETATM   29  C   UNL     1     -39.607  49.856 -54.490  1.00  0.00     0.034 C 
ENDBRANCH  27  28
ENDBRANCH  24  27
ENDBRANCH   1  21
TORSDOF 6
ENDMDL
MODEL 2
REMARK VINA RESULT:      -7.5      5.431      7.664
REMARK  6 active torsions:
REMARK  status: ('A' for Active; 'I' for Inactive)
REMARK    1  A    between atoms: C_2  and  O_3 
REMARK    2  A    between atoms: O_3  and  C_4 
REMARK    3  A    between atoms: C_7  and  C_8 
REMARK       I    between atoms: N_11  and  C_12 
REMARK       I    between atoms: C_12  and  N_13 
REMARK    4  A    between atoms: N_13  and  C_14 
REMARK    5  A    between atoms: C_14  and  C_15 
REMARK    6  A    between atoms: C_15  and  C_16 
ROOT
HETATM    1  C   UNL     1     -42.250  55.228 -54.339  1.00  0.00    -0.049 C 
HETATM    2  C   UNL     1     -41.827  55.950 -55.589  1.00  0.00     0.059 C 
HETATM    3  C   UNL     1     -43.027  56.563 -56.312  1.00  0.00     0.132 C 
HETATM    4  N   UNL     1     -43.880  57.333 -55.404  1.00  0.00    -0.331 N 
HETATM    5  C   UNL     1     -44.701  58.374 -55.825  1.00  0.00     0.318 C 
HETATM    6  N   UNL     1     -44.413  58.889 -57.055  1.00  0.00    -0.338 N 
HETATM    7  O   UNL     1     -45.657  58.774 -55.162  1.00  0.00    -0.247 OA
HETATM    8  C   UNL     1     -44.337  56.648 -54.198  1.00  0.00     0.155 C 
HETATM    9  C   UNL     1     -43.403  55.568 -53.732  1.00  0.00     0.001 C 
HETATM   10  H   UNL     1     -43.446  58.878 -57.359  1.00  0.00     0.164 HD
ENDROOT
BRANCH   6  11
HETATM   11  C   UNL     1     -45.206  59.934 -57.690  1.00  0.00     0.087 C 
HETATM   12  C   UNL     1     -44.537  61.303 -57.550  1.00  0.00     0.032 C 
BRANCH  11  13
HETATM   13  C   UNL     1     -45.504  59.572 -59.158  1.00  0.00     0.085 C 
BRANCH  13  14
HETATM   14  C   UNL     1     -45.626  58.104 -59.444  1.00  0.00     0.058 A 
HETATM   15  N   UNL     1     -46.638  57.377 -58.945  1.00  0.00    -0.179 NA
HETATM   16  N   UNL     1     -46.425  56.144 -59.434  1.00  0.00    -0.282 N 
HETATM   17  H   UNL     1     -47.079  55.409 -59.186  1.00  0.00     0.189 HD
HETATM   18  C   UNL     1     -45.319  56.053 -60.231  1.00  0.00     0.026 A 
HETATM   19  C   UNL     1     -44.908  54.794 -60.889  1.00  0.00     0.070 C 
HETATM   20  C   UNL     1     -44.775  57.317 -60.254  1.00  0.00     0.055 A 
ENDBRANCH  13  14
ENDBRANCH  11  13
ENDBRANCH   6  11
BRANCH   1  21
HETATM   21  C   UNL     1     -41.421  54.115 -53.836  1.00  0.00    -0.030 A 
HETATM   22  C   UNL     1     -40.803  53.224 -54.724  1.00  0.00     0.014 A 
HETATM   23  C   UNL     1     -40.006  52.171 -54.254  1.00  0.00     0.037 A 
HETATM   24  C   UNL     1     -39.817  51.991 -52.885  1.00  0.00     0.068 A 
HETATM   25  C   UNL     1     -40.440  52.867 -51.994  1.00  0.00     0.037 A 
HETATM   26  C   UNL     1     -41.232  53.921 -52.463  1.00  0.00     0.014 A 
BRANCH  24  27
HETATM   27  O   UNL     1     -39.067  51.009 -52.301  1.00  0.00    -0.352 OA
BRANCH  27  28
HETATM   28  C   UNL     1     -39.709  49.754 -52.077  1.00  0.00     0.171 C 
HETATM   29  C   UNL     1     -39.911  49.589 -50.582  1.00  0.00     0.034 C 
ENDBRANCH  27  28
ENDBRANCH  24  27
ENDBRANCH   1  21
TORSDOF 6
ENDMDL
MODEL 3
REMARK VINA RESULT:      -7.2     18.518     21.309
REMARK  6 active torsions:
REMARK  status: ('A' for Active; 'I' for Inactive)
REMARK    1  A    between atoms: C_2  and  O_3 
REMARK    2  A    between atoms: O_3  and  C_4 
REMARK    3  A    between atoms: C_7  and  C_8 
REMARK       I    between atoms: N_11  and  C_12 
REMARK       I    between atoms: C_12  and  N_13 
REMARK    4  A    between atoms: N_13  and  C_14 
REMARK    5  A    between atoms: C_14  and  C_15 
REMARK    6  A    between atoms: C_15  and  C_16 
ROOT
HETATM    1  C   UNL     1     -37.176  40.090 -57.454  1.00  0.00    -0.049 C 
HETATM    2  C   UNL     1     -36.406  39.153 -56.565  1.00  0.00     0.059 C 
HETATM    3  C   UNL     1     -35.454  39.915 -55.644  1.00  0.00     0.132 C 
HETATM    4  N   UNL     1     -36.123  41.021 -54.955  1.00  0.00    -0.331 N 
HETATM    5  C   UNL     1     -35.692  41.538 -53.738  1.00  0.00     0.318 C 
HETATM    6  N   UNL     1     -34.836  40.743 -53.032  1.00  0.00    -0.338 N 
HETATM    7  O   UNL     1     -36.013  42.658 -53.343  1.00  0.00    -0.247 OA
HETATM    8  C   UNL     1     -36.850  41.968 -55.795  1.00  0.00     0.155 C 
HETATM    9  C   UNL     1     -37.357  41.369 -57.076  1.00  0.00     0.001 C 
HETATM   10  H   UNL     1     -34.934  39.739 -53.127  1.00  0.00     0.164 HD
ENDROOT
BRANCH   6  11
HETATM   11  C   UNL     1     -34.225  41.147 -51.772  1.00  0.00     0.087 C 
HETATM   12  C   UNL     1     -34.932  40.500 -50.579  1.00  0.00     0.032 C 
BRANCH  11  13
HETATM   13  C   UNL     1     -32.711  40.860 -51.787  1.00  0.00     0.085 C 
BRANCH  13  14
HETATM   14  C   UNL     1     -32.243  39.946 -52.880  1.00  0.00     0.058 A 
HETATM   15  N   UNL     1     -31.986  40.408 -54.114  1.00  0.00    -0.179 NA
HETATM   16  N   UNL     1     -31.572  39.321 -54.788  1.00  0.00    -0.282 N 
HETATM   17  H   UNL     1     -31.314  39.430 -55.764  1.00  0.00     0.189 HD
HETATM   18  C   UNL     1     -31.547  38.183 -54.033  1.00  0.00     0.026 A 
HETATM   19  C   UNL     1     -31.105  36.877 -54.568  1.00  0.00     0.070 C 
HETATM   20  C   UNL     1     -31.983  38.559 -52.783  1.00  0.00     0.055 A 
ENDBRANCH  13  14
ENDBRANCH  11  13
ENDBRANCH   6  11
BRANCH   1  21
HETATM   21  C   UNL     1     -37.666  39.603 -58.759  1.00  0.00    -0.030 A 
HETATM   22  C   UNL     1     -37.157  40.126 -59.956  1.00  0.00     0.014 A 
HETATM   23  C   UNL     1     -37.609  39.661 -61.198  1.00  0.00     0.037 A 
HETATM   24  C   UNL     1     -38.581  38.665 -61.263  1.00  0.00     0.068 A 
HETATM   25  C   UNL     1     -39.102  38.148 -60.075  1.00  0.00     0.037 A 
HETATM   26  C   UNL     1     -38.647  38.608 -58.835  1.00  0.00     0.014 A 
BRANCH  24  27
HETATM   27  O   UNL     1     -39.104  38.126 -62.405  1.00  0.00    -0.352 OA
BRANCH  27  28
HETATM   28  C   UNL     1     -40.263  37.306 -62.260  1.00  0.00     0.171 C 
HETATM   29  C   UNL     1     -41.398  37.951 -63.035  1.00  0.00     0.034 C 
ENDBRANCH  27  28
ENDBRANCH  24  27
ENDBRANCH   1  21
TORSDOF 6
ENDMDL
MODEL 4
REMARK VINA RESULT:      -7.2      5.260      7.017
REMARK  6 active torsions:
REMARK  status: ('A' for Active; 'I' for Inactive)
REMARK    1  A    between atoms: C_2  and  O_3 
REMARK    2  A    between atoms: O_3  and  C_4 
REMARK    3  A    between atoms: C_7  and  C_8 
REMARK       I    between atoms: N_11  and  C_12 
REMARK       I    between atoms: C_12  and  N_13 
REMARK    4  A    between atoms: N_13  and  C_14 
REMARK    5  A    between atoms: C_14  and  C_15 
REMARK    6  A    between atoms: C_15  and  C_16 
ROOT
HETATM    1  C   UNL     1     -41.461  56.100 -54.651  1.00  0.00    -0.049 C 
HETATM    2  C   UNL     1     -42.179  56.133 -55.973  1.00  0.00     0.059 C 
HETATM    3  C   UNL     1     -43.130  57.327 -56.060  1.00  0.00     0.132 C 
HETATM    4  N   UNL     1     -42.476  58.580 -55.672  1.00  0.00    -0.331 N 
HETATM    5  C   UNL     1     -42.891  59.830 -56.118  1.00  0.00     0.318 C 
HETATM    6  N   UNL     1     -43.703  59.822 -57.215  1.00  0.00    -0.338 N 
HETATM    7  O   UNL     1     -42.594  60.873 -55.538  1.00  0.00    -0.247 OA
HETATM    8  C   UNL     1     -41.800  58.590 -54.378  1.00  0.00     0.155 C 
HETATM    9  C   UNL     1     -41.310  57.237 -53.947  1.00  0.00     0.001 C 
HETATM   10  H   UNL     1     -43.577  59.081 -57.894  1.00  0.00     0.164 HD
ENDROOT
BRANCH   6  11
HETATM   11  C   UNL     1     -44.293  61.029 -57.782  1.00  0.00     0.087 C 
HETATM   12  C   UNL     1     -43.512  61.507 -59.007  1.00  0.00     0.032 C 
BRANCH  11  13
HETATM   13  C   UNL     1     -45.788  60.811 -58.084  1.00  0.00     0.085 C 
BRANCH  13  14
HETATM   14  C   UNL     1     -46.189  59.389 -58.343  1.00  0.00     0.058 A 
HETATM   15  N   UNL     1     -46.578  58.580 -57.344  1.00  0.00    -0.179 NA
HETATM   16  N   UNL     1     -46.878  57.424 -57.961  1.00  0.00    -0.282 N 
HETATM   17  H   UNL     1     -47.204  56.648 -57.394  1.00  0.00     0.189 HD
HETATM   18  C   UNL     1     -46.702  57.462 -59.314  1.00  0.00     0.026 A 
HETATM   19  C   UNL     1     -46.992  56.306 -60.192  1.00  0.00     0.070 C 
HETATM   20  C   UNL     1     -46.250  58.732 -59.594  1.00  0.00     0.055 A 
ENDBRANCH  13  14
ENDBRANCH  11  13
ENDBRANCH   6  11
BRANCH   1  21
HETATM   21  C   UNL     1     -40.991  54.805 -54.121  1.00  0.00    -0.030 A 
HETATM   22  C   UNL     1     -40.508  53.810 -54.982  1.00  0.00     0.014 A 
HETATM   23  C   UNL     1     -40.050  52.583 -54.485  1.00  0.00     0.037 A 
HETATM   24  C   UNL     1     -40.071  52.330 -53.115  1.00  0.00     0.068 A 
HETATM   25  C   UNL     1     -40.563  53.310 -52.252  1.00  0.00     0.037 A 
HETATM   26  C   UNL     1     -41.015  54.538 -52.747  1.00  0.00     0.014 A 
BRANCH  24  27
HETATM   27  O   UNL     1     -39.654  51.179 -52.504  1.00  0.00    -0.352 OA
BRANCH  27  28
HETATM   28  C   UNL     1     -39.707  51.150 -51.078  1.00  0.00     0.171 C 
HETATM   29  C   UNL     1     -39.766  49.698 -50.639  1.00  0.00     0.034 C 
ENDBRANCH  27  28
ENDBRANCH  24  27
ENDBRANCH   1  21
TORSDOF 6
ENDMDL
MODEL 5
REMARK VINA RESULT:      -7.1      1.746      2.225
REMARK  6 active torsions:
REMARK  status: ('A' for Active; 'I' for Inactive)
REMARK    1  A    between atoms: C_2  and  O_3 
REMARK    2  A    between atoms: O_3  and  C_4 
REMARK    3  A    between atoms: C_7  and  C_8 
REMARK       I    between atoms: N_11  and  C_12 
REMARK       I    between atoms: C_12  and  N_13 
REMARK    4  A    between atoms: N_13  and  C_14 
REMARK    5  A    between atoms: C_14  and  C_15 
REMARK    6  A    between atoms: C_15  and  C_16 
ROOT
HETATM    1  C   UNL     1     -41.874  56.387 -53.282  1.00  0.00    -0.049 C 
HETATM    2  C   UNL     1     -43.369  56.547 -53.260  1.00  0.00     0.059 C 
HETATM    3  C   UNL     1     -43.778  57.892 -52.659  1.00  0.00     0.132 C 
HETATM    4  N   UNL     1     -43.039  59.007 -53.255  1.00  0.00    -0.331 N 
HETATM    5  C   UNL     1     -43.522  60.311 -53.295  1.00  0.00     0.318 C 
HETATM    6  N   UNL     1     -44.863  60.447 -53.082  1.00  0.00    -0.338 N 
HETATM    7  O   UNL     1     -42.789  61.285 -53.458  1.00  0.00    -0.247 OA
HETATM    8  C   UNL     1     -41.583  58.898 -53.259  1.00  0.00     0.155 C 
HETATM    9  C   UNL     1     -41.088  57.480 -53.276  1.00  0.00     0.001 C 
HETATM   10  H   UNL     1     -45.471  59.694 -53.382  1.00  0.00     0.164 HD
ENDROOT
BRANCH   6  11
HETATM   11  C   UNL     1     -45.536  61.739 -53.016  1.00  0.00     0.087 C 
HETATM   12  C   UNL     1     -46.132  62.124 -54.371  1.00  0.00     0.032 C 
BRANCH  11  13
HETATM   13  C   UNL     1     -46.584  61.748 -51.887  1.00  0.00     0.085 C 
BRANCH  13  14
HETATM   14  C   UNL     1     -46.104  61.229 -50.563  1.00  0.00     0.058 A 
HETATM   15  N   UNL     1     -45.925  59.916 -50.352  1.00  0.00    -0.179 NA
HETATM   16  N   UNL     1     -45.471  59.848 -49.089  1.00  0.00    -0.282 N 
HETATM   17  H   UNL     1     -45.260  58.934 -48.702  1.00  0.00     0.189 HD
HETATM   18  C   UNL     1     -45.347  61.067 -48.485  1.00  0.00     0.026 A 
HETATM   19  C   UNL     1     -44.847  61.227 -47.102  1.00  0.00     0.070 C 
HETATM   20  C   UNL     1     -45.755  61.988 -49.422  1.00  0.00     0.055 A 
ENDBRANCH  13  14
ENDBRANCH  11  13
ENDBRANCH   6  11
BRANCH   1  21
HETATM   21  C   UNL     1     -41.295  55.030 -53.245  1.00  0.00    -0.030 A 
HETATM   22  C   UNL     1     -40.837  54.413 -54.417  1.00  0.00     0.014 A 
HETATM   23  C   UNL     1     -40.277  53.130 -54.387  1.00  0.00     0.037 A 
HETATM   24  C   UNL     1     -40.167  52.440 -53.182  1.00  0.00     0.068 A 
HETATM   25  C   UNL     1     -40.632  53.042 -52.012  1.00  0.00     0.037 A 
HETATM   26  C   UNL     1     -41.187  54.326 -52.040  1.00  0.00     0.014 A 
BRANCH  24  27
HETATM   27  O   UNL     1     -39.641  51.188 -53.017  1.00  0.00    -0.352 OA
BRANCH  27  28
HETATM   28  C   UNL     1     -39.244  50.824 -51.696  1.00  0.00     0.171 C 
HETATM   29  C   UNL     1     -39.793  49.439 -51.404  1.00  0.00     0.034 C 
ENDBRANCH  27  28
ENDBRANCH  24  27
ENDBRANCH   1  21
TORSDOF 6
ENDMDL
MODEL 6
REMARK VINA RESULT:      -6.9     19.158     21.517
REMARK  6 active torsions:
REMARK  status: ('A' for Active; 'I' for Inactive)
REMARK    1  A    between atoms: C_2  and  O_3 
REMARK    2  A    between atoms: O_3  and  C_4 
REMARK    3  A    between atoms: C_7  and  C_8 
REMARK       I    between atoms: N_11  and  C_12 
REMARK       I    between atoms: C_12  and  N_13 
REMARK    4  A    between atoms: N_13  and  C_14 
REMARK    5  A    between atoms: C_14  and  C_15 
REMARK    6  A    between atoms: C_15  and  C_16 
ROOT
HETATM    1  C   UNL     1     -34.721  40.459 -53.273  1.00  0.00    -0.049 C 
HETATM    2  C   UNL     1     -34.223  40.691 -54.673  1.00  0.00     0.059 C 
HETATM    3  C   UNL     1     -35.261  40.263 -55.711  1.00  0.00     0.132 C 
HETATM    4  N   UNL     1     -36.587  40.811 -55.421  1.00  0.00    -0.331 N 
HETATM    5  C   UNL     1     -37.558  41.024 -56.395  1.00  0.00     0.318 C 
HETATM    6  N   UNL     1     -37.104  41.042 -57.682  1.00  0.00    -0.338 N 
HETATM    7  O   UNL     1     -38.752  41.137 -56.126  1.00  0.00    -0.247 OA
HETATM    8  C   UNL     1     -37.114  40.572 -54.080  1.00  0.00     0.155 C 
HETATM    9  C   UNL     1     -36.046  40.405 -53.037  1.00  0.00     0.001 C 
HETATM   10  H   UNL     1     -36.164  41.381 -57.849  1.00  0.00     0.164 HD
ENDROOT
BRANCH   6  11
HETATM   11  C   UNL     1     -37.982  41.180 -58.837  1.00  0.00     0.087 C 
HETATM   12  C   UNL     1     -37.365  42.093 -59.898  1.00  0.00     0.032 C 
BRANCH  11  13
HETATM   13  C   UNL     1     -38.362  39.796 -59.399  1.00  0.00     0.085 C 
BRANCH  13  14
HETATM   14  C   UNL     1     -37.402  39.228 -60.403  1.00  0.00     0.058 A 
HETATM   15  N   UNL     1     -36.139  38.923 -60.067  1.00  0.00    -0.179 NA
HETATM   16  N   UNL     1     -35.613  38.424 -61.198  1.00  0.00    -0.282 N 
HETATM   17  H   UNL     1     -34.645  38.118 -61.185  1.00  0.00     0.189 HD
HETATM   18  C   UNL     1     -36.491  38.391 -62.244  1.00  0.00     0.026 A 
HETATM   19  C   UNL     1     -36.129  37.861 -63.577  1.00  0.00     0.070 C 
HETATM   20  C   UNL     1     -37.668  38.912 -61.756  1.00  0.00     0.055 A 
ENDBRANCH  13  14
ENDBRANCH  11  13
ENDBRANCH   6  11
BRANCH   1  21
HETATM   21  C   UNL     1     -33.743  40.229 -52.191  1.00  0.00    -0.030 A 
HETATM   22  C   UNL     1     -32.590  39.466 -52.417  1.00  0.00     0.014 A 
HETATM   23  C   UNL     1     -31.652  39.254 -51.398  1.00  0.00     0.037 A 
HETATM   24  C   UNL     1     -31.856  39.800 -50.132  1.00  0.00     0.068 A 
HETATM   25  C   UNL     1     -33.008  40.551 -49.895  1.00  0.00     0.037 A 
HETATM   26  C   UNL     1     -33.942  40.768 -50.914  1.00  0.00     0.014 A 
BRANCH  24  27
HETATM   27  O   UNL     1     -31.021  39.668 -49.057  1.00  0.00    -0.352 OA
BRANCH  27  28
HETATM   28  C   UNL     1     -31.620  39.288 -47.819  1.00  0.00     0.171 C 
HETATM   29  C   UNL     1     -30.569  39.408 -46.731  1.00  0.00     0.034 C 
ENDBRANCH  27  28
ENDBRANCH  24  27
ENDBRANCH   1  21
TORSDOF 6
ENDMDL
MODEL 7
REMARK VINA RESULT:      -6.8      3.008      9.977
REMARK  6 active torsions:
REMARK  status: ('A' for Active; 'I' for Inactive)
REMARK    1  A    between atoms: C_2  and  O_3 
REMARK    2  A    between atoms: O_3  and  C_4 
REMARK    3  A    between atoms: C_7  and  C_8 
REMARK       I    between atoms: N_11  and  C_12 
REMARK       I    between atoms: C_12  and  N_13 
REMARK    4  A    between atoms: N_13  and  C_14 
REMARK    5  A    between atoms: C_14  and  C_15 
REMARK    6  A    between atoms: C_15  and  C_16 
ROOT
HETATM    1  C   UNL     1     -44.343  60.526 -50.149  1.00  0.00    -0.049 C 
HETATM    2  C   UNL     1     -42.987  60.432 -50.793  1.00  0.00     0.059 C 
HETATM    3  C   UNL     1     -42.728  59.029 -51.344  1.00  0.00     0.132 C 
HETATM    4  N   UNL     1     -43.842  58.546 -52.163  1.00  0.00    -0.331 N 
HETATM    5  C   UNL     1     -43.699  57.594 -53.166  1.00  0.00     0.318 C 
HETATM    6  N   UNL     1     -42.423  57.389 -53.603  1.00  0.00    -0.338 N 
HETATM    7  O   UNL     1     -44.646  56.938 -53.598  1.00  0.00    -0.247 OA
HETATM    8  C   UNL     1     -45.168  58.592 -51.553  1.00  0.00     0.155 C 
HETATM    9  C   UNL     1     -45.315  59.668 -50.515  1.00  0.00     0.001 C 
HETATM   10  H   UNL     1     -41.782  58.174 -53.583  1.00  0.00     0.164 HD
ENDROOT
BRANCH   6  11
HETATM   11  C   UNL     1     -42.069  56.382 -54.596  1.00  0.00     0.087 C 
HETATM   12  C   UNL     1     -42.300  56.898 -56.018  1.00  0.00     0.032 C 
BRANCH  11  13
HETATM   13  C   UNL     1     -40.628  55.885 -54.376  1.00  0.00     0.085 C 
BRANCH  13  14
HETATM   14  C   UNL     1     -40.501  54.450 -53.959  1.00  0.00     0.058 A 
HETATM   15  N   UNL     1     -40.635  54.081 -52.676  1.00  0.00    -0.179 NA
HETATM   16  N   UNL     1     -40.488  52.746 -52.704  1.00  0.00    -0.282 N 
HETATM   17  H   UNL     1     -40.553  52.236 -51.828  1.00  0.00     0.189 HD
HETATM   18  C   UNL     1     -40.272  52.244 -53.956  1.00  0.00     0.026 A 
HETATM   19  C   UNL     1     -40.102  50.798 -54.219  1.00  0.00     0.070 C 
HETATM   20  C   UNL     1     -40.272  53.333 -54.797  1.00  0.00     0.055 A 
ENDBRANCH  13  14
ENDBRANCH  11  13
ENDBRANCH   6  11
BRANCH   1  21
HETATM   21  C   UNL     1     -44.564  61.518 -49.080  1.00  0.00    -0.030 A 
HETATM   22  C   UNL     1     -45.093  61.132 -47.841  1.00  0.00     0.014 A 
HETATM   23  C   UNL     1     -45.295  62.067 -46.817  1.00  0.00     0.037 A 
HETATM   24  C   UNL     1     -44.973  63.407 -47.018  1.00  0.00     0.068 A 
HETATM   25  C   UNL     1     -44.458  63.803 -48.253  1.00  0.00     0.037 A 
HETATM   26  C   UNL     1     -44.251  62.869 -49.274  1.00  0.00     0.014 A 
BRANCH  24  27
HETATM   27  O   UNL     1     -45.120  64.414 -46.104  1.00  0.00    -0.352 OA
BRANCH  27  28
HETATM   28  C   UNL     1     -45.544  64.039 -44.794  1.00  0.00     0.171 C 
HETATM   29  C   UNL     1     -44.354  64.163 -43.860  1.00  0.00     0.034 C 
ENDBRANCH  27  28
ENDBRANCH  24  27
ENDBRANCH   1  21
TORSDOF 6
ENDMDL
MODEL 8
REMARK VINA RESULT:      -6.7     18.469     20.989
REMARK  6 active torsions:
REMARK  status: ('A' for Active; 'I' for Inactive)
REMARK    1  A    between atoms: C_2  and  O_3 
REMARK    2  A    between atoms: O_3  and  C_4 
REMARK    3  A    between atoms: C_7  and  C_8 
REMARK       I    between atoms: N_11  and  C_12 
REMARK       I    between atoms: C_12  and  N_13 
REMARK    4  A    between atoms: N_13  and  C_14 
REMARK    5  A    between atoms: C_14  and  C_15 
REMARK    6  A    between atoms: C_15  and  C_16 
ROOT
HETATM    1  C   UNL     1     -34.012  39.920 -50.644  1.00  0.00    -0.049 C 
HETATM    2  C   UNL     1     -34.560  38.898 -51.601  1.00  0.00     0.059 C 
HETATM    3  C   UNL     1     -35.773  39.439 -52.359  1.00  0.00     0.132 C 
HETATM    4  N   UNL     1     -35.517  40.761 -52.935  1.00  0.00    -0.331 N 
HETATM    5  C   UNL     1     -36.190  41.255 -54.048  1.00  0.00     0.318 C 
HETATM    6  N   UNL     1     -36.843  40.323 -54.801  1.00  0.00    -0.338 N 
HETATM    7  O   UNL     1     -36.243  42.455 -54.312  1.00  0.00    -0.247 OA
HETATM    8  C   UNL     1     -35.018  41.785 -52.023  1.00  0.00     0.155 C 
HETATM    9  C   UNL     1     -34.243  41.229 -50.862  1.00  0.00     0.001 C 
HETATM   10  H   UNL     1     -36.452  39.389 -54.844  1.00  0.00     0.164 HD
ENDROOT
BRANCH   6  11
HETATM   11  C   UNL     1     -37.660  40.660 -55.960  1.00  0.00     0.087 C 
HETATM   12  C   UNL     1     -39.007  41.250 -55.538  1.00  0.00     0.032 C 
BRANCH  11  13
HETATM   13  C   UNL     1     -36.886  41.586 -56.918  1.00  0.00     0.085 C 
BRANCH  13  14
HETATM   14  C   UNL     1     -37.080  41.303 -58.379  1.00  0.00     0.058 A 
HETATM   15  N   UNL     1     -37.100  42.293 -59.285  1.00  0.00    -0.179 NA
HETATM   16  N   UNL     1     -37.262  41.657 -60.458  1.00  0.00    -0.282 N 
HETATM   17  H   UNL     1     -37.305  42.215 -61.305  1.00  0.00     0.189 HD
HETATM   18  C   UNL     1     -37.341  40.299 -60.339  1.00  0.00     0.026 A 
HETATM   19  C   UNL     1     -37.500  39.402 -61.505  1.00  0.00     0.070 C 
HETATM   20  C   UNL     1     -37.228  40.037 -58.993  1.00  0.00     0.055 A 
ENDBRANCH  13  14
ENDBRANCH  11  13
ENDBRANCH   6  11
BRANCH   1  21
HETATM   21  C   UNL     1     -33.284  39.463 -49.444  1.00  0.00    -0.030 A 
HETATM   22  C   UNL     1     -32.064  40.048 -49.079  1.00  0.00     0.014 A 
HETATM   23  C   UNL     1     -31.373  39.628 -47.935  1.00  0.00     0.037 A 
HETATM   24  C   UNL     1     -31.892  38.610 -47.137  1.00  0.00     0.068 A 
HETATM   25  C   UNL     1     -33.100  38.014 -47.500  1.00  0.00     0.037 A 
HETATM   26  C   UNL     1     -33.793  38.437 -48.639  1.00  0.00     0.014 A 
BRANCH  24  27
HETATM   27  O   UNL     1     -31.320  38.110 -46.001  1.00  0.00    -0.352 OA
BRANCH  27  28
HETATM   28  C   UNL     1     -31.379  38.931 -44.834  1.00  0.00     0.171 C 
HETATM   29  C   UNL     1     -29.970  39.396 -44.513  1.00  0.00     0.034 C 
ENDBRANCH  27  28
ENDBRANCH  24  27
ENDBRANCH   1  21
TORSDOF 6
ENDMDL
MODEL 9
REMARK VINA RESULT:      -6.7      6.305      8.567
REMARK  6 active torsions:
REMARK  status: ('A' for Active; 'I' for Inactive)
REMARK    1  A    between atoms: C_2  and  O_3 
REMARK    2  A    between atoms: O_3  and  C_4 
REMARK    3  A    between atoms: C_7  and  C_8 
REMARK       I    between atoms: N_11  and  C_12 
REMARK       I    between atoms: C_12  and  N_13 
REMARK    4  A    between atoms: N_13  and  C_14 
REMARK    5  A    between atoms: C_14  and  C_15 
REMARK    6  A    between atoms: C_15  and  C_16 
ROOT
HETATM    1  C   UNL     1     -42.567  55.694 -55.526  1.00  0.00    -0.049 C 
HETATM    2  C   UNL     1     -42.627  57.196 -55.479  1.00  0.00     0.059 C 
HETATM    3  C   UNL     1     -42.411  57.806 -56.864  1.00  0.00     0.132 C 
HETATM    4  N   UNL     1     -43.261  57.179 -57.879  1.00  0.00    -0.331 N 
HETATM    5  C   UNL     1     -43.656  57.819 -59.048  1.00  0.00     0.318 C 
HETATM    6  N   UNL     1     -43.521  59.177 -59.050  1.00  0.00    -0.338 N 
HETATM    7  O   UNL     1     -44.051  57.206 -60.039  1.00  0.00    -0.247 OA
HETATM    8  C   UNL     1     -43.200  55.723 -57.973  1.00  0.00     0.155 C 
HETATM    9  C   UNL     1     -42.829  55.053 -56.681  1.00  0.00     0.001 C 
HETATM   10  H   UNL     1     -43.627  59.666 -58.168  1.00  0.00     0.164 HD
ENDROOT
BRANCH   6  11
HETATM   11  C   UNL     1     -43.815  60.010 -60.209  1.00  0.00     0.087 C 
HETATM   12  C   UNL     1     -44.635  61.240 -59.816  1.00  0.00     0.032 C 
BRANCH  11  13
HETATM   13  C   UNL     1     -42.518  60.380 -60.955  1.00  0.00     0.085 C 
BRANCH  13  14
HETATM   14  C   UNL     1     -41.564  61.248 -60.189  1.00  0.00     0.058 A 
HETATM   15  N   UNL     1     -41.285  61.009 -58.898  1.00  0.00    -0.179 NA
HETATM   16  N   UNL     1     -40.390  61.958 -58.577  1.00  0.00    -0.282 N 
HETATM   17  H   UNL     1     -40.026  61.976 -57.630  1.00  0.00     0.189 HD
HETATM   18  C   UNL     1     -40.080  62.792 -59.614  1.00  0.00     0.026 A 
HETATM   19  C   UNL     1     -39.102  63.896 -59.488  1.00  0.00     0.070 C 
HETATM   20  C   UNL     1     -40.833  62.355 -60.679  1.00  0.00     0.055 A 
ENDBRANCH  13  14
ENDBRANCH  11  13
ENDBRANCH   6  11
BRANCH   1  21
HETATM   21  C   UNL     1     -42.159  54.952 -54.317  1.00  0.00    -0.030 A 
HETATM   22  C   UNL     1     -41.045  54.102 -54.340  1.00  0.00     0.014 A 
HETATM   23  C   UNL     1     -40.645  53.403 -53.194  1.00  0.00     0.037 A 
HETATM   24  C   UNL     1     -41.356  53.542 -52.003  1.00  0.00     0.068 A 
HETATM   25  C   UNL     1     -42.474  54.377 -51.975  1.00  0.00     0.037 A 
HETATM   26  C   UNL     1     -42.870  55.079 -53.119  1.00  0.00     0.014 A 
BRANCH  24  27
HETATM   27  O   UNL     1     -41.070  52.920 -50.820  1.00  0.00    -0.352 OA
BRANCH  27  28
HETATM   28  C   UNL     1     -40.075  53.526 -49.996  1.00  0.00     0.171 C 
HETATM   29  C   UNL     1     -40.686  53.784 -48.631  1.00  0.00     0.034 C 
ENDBRANCH  27  28
ENDBRANCH  24  27
ENDBRANCH   1  21
TORSDOF 6
ENDMDL
MODEL 10
REMARK VINA RESULT:      -6.6      4.744      6.230
REMARK  6 active torsions:
REMARK  status: ('A' for Active; 'I' for Inactive)
REMARK    1  A    between atoms: C_2  and  O_3 
REMARK    2  A    between atoms: O_3  and  C_4 
REMARK    3  A    between atoms: C_7  and  C_8 
REMARK       I    between atoms: N_11  and  C_12 
REMARK       I    between atoms: C_12  and  N_13 
REMARK    4  A    between atoms: N_13  and  C_14 
REMARK    5  A    between atoms: C_14  and  C_15 
REMARK    6  A    between atoms: C_15  and  C_16 
ROOT
HETATM    1  C   UNL     1     -42.369  55.203 -54.941  1.00  0.00    -0.049 C 
HETATM    2  C   UNL     1     -43.187  56.354 -54.425  1.00  0.00     0.059 C 
HETATM    3  C   UNL     1     -43.338  57.449 -55.481  1.00  0.00     0.132 C 
HETATM    4  N   UNL     1     -43.764  56.910 -56.774  1.00  0.00    -0.331 N 
HETATM    5  C   UNL     1     -44.450  57.657 -57.726  1.00  0.00     0.318 C 
HETATM    6  N   UNL     1     -45.028  58.805 -57.267  1.00  0.00    -0.338 N 
HETATM    7  O   UNL     1     -44.493  57.339 -58.914  1.00  0.00    -0.247 OA
HETATM    8  C   UNL     1     -42.968  55.814 -57.319  1.00  0.00     0.155 C 
HETATM    9  C   UNL     1     -42.286  54.987 -56.268  1.00  0.00     0.001 C 
HETATM   10  H   UNL     1     -45.355  58.821 -56.308  1.00  0.00     0.164 HD
ENDROOT
BRANCH   6  11
HETATM   11  C   UNL     1     -45.726  59.749 -58.131  1.00  0.00     0.087 C 
HETATM   12  C   UNL     1     -47.241  59.543 -58.070  1.00  0.00     0.032 C 
BRANCH  11  13
HETATM   13  C   UNL     1     -45.314  61.196 -57.797  1.00  0.00     0.085 C 
BRANCH  13  14
HETATM   14  C   UNL     1     -44.339  61.340 -56.666  1.00  0.00     0.058 A 
HETATM   15  N   UNL     1     -43.032  61.086 -56.835  1.00  0.00    -0.179 NA
HETATM   16  N   UNL     1     -42.492  61.349 -55.633  1.00  0.00    -0.282 N 
HETATM   17  H   UNL     1     -41.491  61.226 -55.518  1.00  0.00     0.189 HD
HETATM   18  C   UNL     1     -43.400  61.768 -54.703  1.00  0.00     0.026 A 
HETATM   19  C   UNL     1     -43.020  62.130 -53.320  1.00  0.00     0.070 C 
HETATM   20  C   UNL     1     -44.616  61.769 -55.347  1.00  0.00     0.055 A 
ENDBRANCH  13  14
ENDBRANCH  11  13
ENDBRANCH   6  11
BRANCH   1  21
HETATM   21  C   UNL     1     -41.618  54.368 -53.983  1.00  0.00    -0.030 A 
HETATM   22  C   UNL     1     -40.966  53.201 -54.406  1.00  0.00     0.014 A 
HETATM   23  C   UNL     1     -40.243  52.410 -53.505  1.00  0.00     0.037 A 
HETATM   24  C   UNL     1     -40.162  52.772 -52.162  1.00  0.00     0.068 A 
HETATM   25  C   UNL     1     -40.818  53.925 -51.730  1.00  0.00     0.037 A 
HETATM   26  C   UNL     1     -41.537  54.719 -52.631  1.00  0.00     0.014 A 
BRANCH  24  27
HETATM   27  O   UNL     1     -39.490  52.090 -51.185  1.00  0.00    -0.352 OA
BRANCH  27  28
HETATM   28  C   UNL     1     -40.235  51.123 -50.445  1.00  0.00     0.171 C 
HETATM   29  C   UNL     1     -39.649  49.753 -50.737  1.00  0.00     0.034 C 
ENDBRANCH  27  28
ENDBRANCH  24  27
ENDBRANCH   1  21
TORSDOF 6
ENDMDL
