MODEL 1
REMARK VINA RESULT:      -8.4      0.000      0.000
REMARK  9 active torsions:
REMARK  status: ('A' for Active; 'I' for Inactive)
REMARK    1  A    between atoms: C_3  and  C_4 
REMARK    2  A    between atoms: C_4  and  C_5 
REMARK       I    between atoms: C_5  and  N_6 
REMARK    3  A    between atoms: N_6  and  C_7 
REMARK    4  A    between atoms: C_16  and  N_17 
REMARK       I    between atoms: N_17  and  C_18 
REMARK    5  A    between atoms: C_18  and  C_19 
REMARK    6  A    between atoms: C_19  and  S_20 
REMARK    7  A    between atoms: C_26  and  C_27 
REMARK    8  A    between atoms: C_27  and  O_28 
REMARK    9  A    between atoms: C_30  and  O_31 
ROOT
HETATM    1  C   UNL     1     -43.473  55.740 -51.017  1.00  0.00     0.016 C 
HETATM    2  C   UNL     1     -42.500  56.762 -51.703  1.00  0.00    -0.030 C 
HETATM    3  C   UNL     1     -42.207  56.132 -53.162  1.00  0.00     0.056 C 
HETATM    4  C   UNL     1     -43.139  56.719 -54.206  1.00  0.00     0.056 A 
HETATM    5  C   UNL     1     -44.149  57.616 -53.937  1.00  0.00     0.012 A 
HETATM    6  S   UNL     1     -45.007  57.999 -55.355  1.00  0.00    -0.055 SA
HETATM    7  C   UNL     1     -43.973  56.979 -56.240  1.00  0.00     0.173 A 
HETATM    8  N   UNL     1     -43.030  56.382 -55.546  1.00  0.00    -0.227 NA
HETATM    9  C   UNL     1     -44.483  58.192 -52.613  1.00  0.00     0.055 C 
HETATM   10  C   UNL     1     -43.240  58.180 -51.689  1.00  0.00     0.012 C 
HETATM   11  C   UNL     1     -42.316  59.465 -51.819  1.00  0.00     0.008 C 
HETATM   12  C   UNL     1     -43.132  60.731 -51.429  1.00  0.00     0.020 C 
HETATM   13  C   UNL     1     -41.125  59.347 -50.822  1.00  0.00     0.128 C 
HETATM   14  C   UNL     1     -40.361  58.036 -50.971  1.00  0.00     0.033 C 
HETATM   15  C   UNL     1     -41.266  56.822 -50.765  1.00  0.00     0.013 C 
ENDROOT
BRANCH   3  16
HETATM   16  C   UNL     1     -40.741  56.110 -53.638  1.00  0.00     0.114 C 
BRANCH  16  17
HETATM   17  C   UNL     1     -40.328  54.781 -54.251  1.00  0.00     0.218 C 
HETATM   18  N   UNL     1     -40.227  53.757 -53.340  1.00  0.00    -0.356 N 
HETATM   19  H   UNL     1     -39.951  54.059 -52.407  1.00  0.00     0.162 HD
HETATM   20  O   UNL     1     -40.152  54.647 -55.458  1.00  0.00    -0.274 OA
BRANCH  18  21
HETATM   21  C   UNL     1     -39.889  52.412 -53.740  1.00  0.00     0.084 C 
HETATM   22  C   UNL     1     -39.561  51.490 -52.571  1.00  0.00     0.025 C 
HETATM   23  C   UNL     1     -39.679  50.100 -53.183  1.00  0.00     0.002 C 
HETATM   24  C   UNL     1     -40.744  50.215 -54.273  1.00  0.00     0.002 C 
HETATM   25  C   UNL     1     -41.063  51.701 -54.406  1.00  0.00     0.025 C 
ENDBRANCH  18  21
ENDBRANCH  16  17
ENDBRANCH   3  16
BRANCH  11  26
HETATM   26  C   UNL     1     -41.783  59.700 -53.252  1.00  0.00     0.176 C 
BRANCH  26  27
HETATM   27  O   UNL     1     -42.053  61.025 -53.703  1.00  0.00    -0.400 OA
HETATM   28  H   UNL     1     -41.247  61.360 -54.134  1.00  0.00     0.209 HD
ENDBRANCH  26  27
ENDBRANCH  11  26
BRANCH   7  29
HETATM   29  N   UNL     1     -44.073  56.805 -57.594  1.00  0.00    -0.305 N 
HETATM   30  C   UNL     1     -43.191  57.224 -58.564  1.00  0.00     0.232 C 
HETATM   31  O   UNL     1     -42.150  57.852 -58.394  1.00  0.00    -0.272 OA
HETATM   32  H   UNL     1     -44.945  56.386 -57.898  1.00  0.00     0.171 HD
BRANCH  30  33
HETATM   33  C   UNL     1     -43.574  56.749 -59.961  1.00  0.00     0.176 C 
BRANCH  33  34
HETATM   34  S   UNL     1     -44.440  55.144 -59.945  1.00  0.00    -0.164 SA
HETATM   35  C   UNL     1     -46.084  55.709 -60.456  1.00  0.00     0.090 C 
ENDBRANCH  33  34
ENDBRANCH  30  33
ENDBRANCH   7  29
BRANCH  13  36
HETATM   36  O   UNL     1     -41.598  59.411 -49.472  1.00  0.00    -0.395 OA
HETATM   37  H   UNL     1     -42.569  59.448 -49.507  1.00  0.00     0.210 HD
ENDBRANCH  13  36
TORSDOF 9
ENDMDL
MODEL 2
REMARK VINA RESULT:      -7.3      2.840      7.245
REMARK  9 active torsions:
REMARK  status: ('A' for Active; 'I' for Inactive)
REMARK    1  A    between atoms: C_3  and  C_4 
REMARK    2  A    between atoms: C_4  and  C_5 
REMARK       I    between atoms: C_5  and  N_6 
REMARK    3  A    between atoms: N_6  and  C_7 
REMARK    4  A    between atoms: C_16  and  N_17 
REMARK       I    between atoms: N_17  and  C_18 
REMARK    5  A    between atoms: C_18  and  C_19 
REMARK    6  A    between atoms: C_19  and  S_20 
REMARK    7  A    between atoms: C_26  and  C_27 
REMARK    8  A    between atoms: C_27  and  O_28 
REMARK    9  A    between atoms: C_30  and  O_31 
ROOT
HETATM    1  C   UNL     1     -41.944  56.939 -60.192  1.00  0.00     0.016 C 
HETATM    2  C   UNL     1     -43.286  56.581 -59.463  1.00  0.00    -0.030 C 
HETATM    3  C   UNL     1     -42.929  56.648 -57.889  1.00  0.00     0.056 C 
HETATM    4  C   UNL     1     -43.280  58.005 -57.308  1.00  0.00     0.056 A 
HETATM    5  C   UNL     1     -43.771  59.065 -58.038  1.00  0.00     0.012 A 
HETATM    6  S   UNL     1     -43.991  60.429 -57.045  1.00  0.00    -0.055 SA
HETATM    7  C   UNL     1     -43.450  59.526 -55.708  1.00  0.00     0.173 A 
HETATM    8  N   UNL     1     -43.126  58.277 -55.957  1.00  0.00    -0.227 NA
HETATM    9  C   UNL     1     -44.079  59.066 -59.487  1.00  0.00     0.055 C 
HETATM   10  C   UNL     1     -44.381  57.628 -59.977  1.00  0.00     0.012 C 
HETATM   11  C   UNL     1     -45.901  57.195 -59.834  1.00  0.00     0.008 C 
HETATM   12  C   UNL     1     -46.792  58.140 -60.692  1.00  0.00     0.020 C 
HETATM   13  C   UNL     1     -46.081  55.750 -60.387  1.00  0.00     0.128 C 
HETATM   14  C   UNL     1     -45.108  54.757 -59.761  1.00  0.00     0.033 C 
HETATM   15  C   UNL     1     -43.653  55.166 -59.983  1.00  0.00     0.013 C 
ENDROOT
BRANCH   3  16
HETATM   16  C   UNL     1     -43.427  55.490 -57.003  1.00  0.00     0.114 C 
BRANCH  16  17
HETATM   17  C   UNL     1     -42.498  55.179 -55.840  1.00  0.00     0.218 C 
HETATM   18  N   UNL     1     -43.056  55.408 -54.606  1.00  0.00    -0.356 N 
HETATM   19  H   UNL     1     -43.742  56.162 -54.596  1.00  0.00     0.162 HD
HETATM   20  O   UNL     1     -41.372  54.722 -56.011  1.00  0.00    -0.274 OA
BRANCH  18  21
HETATM   21  C   UNL     1     -42.343  55.130 -53.382  1.00  0.00     0.084 C 
HETATM   22  C   UNL     1     -41.919  56.381 -52.623  1.00  0.00     0.025 C 
HETATM   23  C   UNL     1     -41.609  55.851 -51.229  1.00  0.00     0.002 C 
HETATM   24  C   UNL     1     -42.542  54.658 -51.020  1.00  0.00     0.002 C 
HETATM   25  C   UNL     1     -43.215  54.401 -52.366  1.00  0.00     0.025 C 
ENDBRANCH  18  21
ENDBRANCH  16  17
ENDBRANCH   3  16
BRANCH  11  26
HETATM   26  C   UNL     1     -46.433  57.275 -58.383  1.00  0.00     0.176 C 
BRANCH  26  27
HETATM   27  O   UNL     1     -47.322  58.375 -58.208  1.00  0.00    -0.400 OA
HETATM   28  H   UNL     1     -47.276  58.645 -57.274  1.00  0.00     0.209 HD
ENDBRANCH  26  27
ENDBRANCH  11  26
BRANCH   7  29
HETATM   29  N   UNL     1     -43.384  60.036 -54.439  1.00  0.00    -0.305 N 
HETATM   30  C   UNL     1     -42.265  60.192 -53.653  1.00  0.00     0.232 C 
HETATM   31  O   UNL     1     -41.112  59.885 -53.940  1.00  0.00    -0.272 OA
HETATM   32  H   UNL     1     -44.285  60.242 -54.024  1.00  0.00     0.171 HD
BRANCH  30  33
HETATM   33  C   UNL     1     -42.557  60.903 -52.336  1.00  0.00     0.176 C 
BRANCH  33  34
HETATM   34  S   UNL     1     -42.794  59.742 -50.950  1.00  0.00    -0.164 SA
HETATM   35  C   UNL     1     -41.079  59.642 -50.373  1.00  0.00     0.090 C 
ENDBRANCH  33  34
ENDBRANCH  30  33
ENDBRANCH   7  29
BRANCH  13  36
HETATM   36  O   UNL     1     -45.858  55.727 -61.801  1.00  0.00    -0.395 OA
HETATM   37  H   UNL     1     -46.007  54.814 -62.102  1.00  0.00     0.210 HD
ENDBRANCH  13  36
TORSDOF 9
ENDMDL
MODEL 3
REMARK VINA RESULT:      -7.1      2.597      6.632
REMARK  9 active torsions:
REMARK  status: ('A' for Active; 'I' for Inactive)
REMARK    1  A    between atoms: C_3  and  C_4 
REMARK    2  A    between atoms: C_4  and  C_5 
REMARK       I    between atoms: C_5  and  N_6 
REMARK    3  A    between atoms: N_6  and  C_7 
REMARK    4  A    between atoms: C_16  and  N_17 
REMARK       I    between atoms: N_17  and  C_18 
REMARK    5  A    between atoms: C_18  and  C_19 
REMARK    6  A    between atoms: C_19  and  S_20 
REMARK    7  A    between atoms: C_26  and  C_27 
REMARK    8  A    between atoms: C_27  and  O_28 
REMARK    9  A    between atoms: C_30  and  O_31 
ROOT
HETATM    1  C   UNL     1     -41.732  57.607 -59.758  1.00  0.00     0.016 C 
HETATM    2  C   UNL     1     -43.069  57.279 -59.008  1.00  0.00    -0.030 C 
HETATM    3  C   UNL     1     -42.604  56.651 -57.594  1.00  0.00     0.056 C 
HETATM    4  C   UNL     1     -42.564  57.715 -56.512  1.00  0.00     0.056 A 
HETATM    5  C   UNL     1     -42.819  59.052 -56.720  1.00  0.00     0.012 A 
HETATM    6  S   UNL     1     -42.623  59.933 -55.278  1.00  0.00    -0.055 SA
HETATM    7  C   UNL     1     -42.240  58.490 -54.463  1.00  0.00     0.173 A 
HETATM    8  N   UNL     1     -42.258  57.399 -55.197  1.00  0.00    -0.227 NA
HETATM    9  C   UNL     1     -43.211  59.682 -58.002  1.00  0.00     0.055 C 
HETATM   10  C   UNL     1     -43.897  58.646 -58.927  1.00  0.00     0.012 C 
HETATM   11  C   UNL     1     -45.465  58.516 -58.715  1.00  0.00     0.008 C 
HETATM   12  C   UNL     1     -46.143  59.883 -59.019  1.00  0.00     0.020 C 
HETATM   13  C   UNL     1     -46.038  57.473 -59.719  1.00  0.00     0.128 C 
HETATM   14  C   UNL     1     -45.307  56.136 -59.658  1.00  0.00     0.033 C 
HETATM   15  C   UNL     1     -43.813  56.289 -59.942  1.00  0.00     0.013 C 
ENDROOT
BRANCH   3  16
HETATM   16  C   UNL     1     -43.318  55.369 -57.123  1.00  0.00     0.114 C 
BRANCH  16  17
HETATM   17  C   UNL     1     -42.674  54.736 -55.900  1.00  0.00     0.218 C 
HETATM   18  N   UNL     1     -41.301  54.735 -55.933  1.00  0.00    -0.356 N 
HETATM   19  H   UNL     1     -40.910  54.676 -56.872  1.00  0.00     0.162 HD
HETATM   20  O   UNL     1     -43.339  54.313 -54.959  1.00  0.00    -0.274 OA
BRANCH  18  21
HETATM   21  C   UNL     1     -40.512  54.217 -54.841  1.00  0.00     0.084 C 
HETATM   22  C   UNL     1     -41.003  54.659 -53.468  1.00  0.00     0.025 C 
HETATM   23  C   UNL     1     -40.327  53.672 -52.524  1.00  0.00     0.002 C 
HETATM   24  C   UNL     1     -40.186  52.371 -53.315  1.00  0.00     0.002 C 
HETATM   25  C   UNL     1     -40.589  52.697 -54.750  1.00  0.00     0.025 C 
ENDBRANCH  18  21
ENDBRANCH  16  17
ENDBRANCH   3  16
BRANCH  11  26
HETATM   26  C   UNL     1     -45.863  58.132 -57.269  1.00  0.00     0.176 C 
BRANCH  26  27
HETATM   27  O   UNL     1     -47.244  57.793 -57.176  1.00  0.00    -0.400 OA
HETATM   28  H   UNL     1     -47.434  57.136 -57.868  1.00  0.00     0.209 HD
ENDBRANCH  26  27
ENDBRANCH  11  26
BRANCH   7  29
HETATM   29  N   UNL     1     -41.965  58.438 -53.124  1.00  0.00    -0.305 N 
HETATM   30  C   UNL     1     -40.781  58.751 -52.495  1.00  0.00     0.232 C 
HETATM   31  O   UNL     1     -39.739  59.122 -53.027  1.00  0.00    -0.272 OA
HETATM   32  H   UNL     1     -42.710  58.046 -52.559  1.00  0.00     0.171 HD
BRANCH  30  33
HETATM   33  C   UNL     1     -40.878  58.685 -50.976  1.00  0.00     0.176 C 
BRANCH  33  34
HETATM   34  S   UNL     1     -40.812  56.976 -50.342  1.00  0.00    -0.164 SA
HETATM   35  C   UNL     1     -42.535  56.501 -50.642  1.00  0.00     0.090 C 
ENDBRANCH  33  34
ENDBRANCH  30  33
ENDBRANCH   7  29
BRANCH  13  36
HETATM   36  O   UNL     1     -45.921  57.958 -61.061  1.00  0.00    -0.395 OA
HETATM   37  H   UNL     1     -46.488  57.399 -61.621  1.00  0.00     0.210 HD
ENDBRANCH  13  36
TORSDOF 9
ENDMDL
MODEL 4
REMARK VINA RESULT:      -6.9      3.257      6.820
REMARK  9 active torsions:
REMARK  status: ('A' for Active; 'I' for Inactive)
REMARK    1  A    between atoms: C_3  and  C_4 
REMARK    2  A    between atoms: C_4  and  C_5 
REMARK       I    between atoms: C_5  and  N_6 
REMARK    3  A    between atoms: N_6  and  C_7 
REMARK    4  A    between atoms: C_16  and  N_17 
REMARK       I    between atoms: N_17  and  C_18 
REMARK    5  A    between atoms: C_18  and  C_19 
REMARK    6  A    between atoms: C_19  and  S_20 
REMARK    7  A    between atoms: C_26  and  C_27 
REMARK    8  A    between atoms: C_27  and  O_28 
REMARK    9  A    between atoms: C_30  and  O_31 
ROOT
HETATM    1  C   UNL     1     -40.852  58.130 -51.713  1.00  0.00     0.016 C 
HETATM    2  C   UNL     1     -42.012  57.087 -51.877  1.00  0.00    -0.030 C 
HETATM    3  C   UNL     1     -43.342  57.982 -52.084  1.00  0.00     0.056 C 
HETATM    4  C   UNL     1     -43.651  58.166 -53.559  1.00  0.00     0.056 A 
HETATM    5  C   UNL     1     -42.865  57.696 -54.587  1.00  0.00     0.012 A 
HETATM    6  S   UNL     1     -43.513  58.146 -56.094  1.00  0.00    -0.055 SA
HETATM    7  C   UNL     1     -44.806  58.910 -55.295  1.00  0.00     0.173 A 
HETATM    8  N   UNL     1     -44.786  58.842 -53.982  1.00  0.00    -0.227 NA
HETATM    9  C   UNL     1     -41.620  56.906 -54.450  1.00  0.00     0.055 C 
HETATM   10  C   UNL     1     -41.609  56.141 -53.103  1.00  0.00     0.012 C 
HETATM   11  C   UNL     1     -42.300  54.713 -53.156  1.00  0.00     0.008 C 
HETATM   12  C   UNL     1     -41.543  53.809 -54.172  1.00  0.00     0.020 C 
HETATM   13  C   UNL     1     -42.197  54.037 -51.757  1.00  0.00     0.128 C 
HETATM   14  C   UNL     1     -42.728  54.924 -50.635  1.00  0.00     0.033 C 
HETATM   15  C   UNL     1     -41.988  56.259 -50.566  1.00  0.00     0.013 C 
ENDROOT
BRANCH   3  16
HETATM   16  C   UNL     1     -44.592  57.585 -51.274  1.00  0.00     0.114 C 
BRANCH  16  17
HETATM   17  C   UNL     1     -45.281  58.769 -50.614  1.00  0.00     0.218 C 
HETATM   18  N   UNL     1     -44.429  59.794 -50.281  1.00  0.00    -0.356 N 
HETATM   19  H   UNL     1     -43.485  59.488 -50.049  1.00  0.00     0.162 HD
HETATM   20  O   UNL     1     -46.496  58.804 -50.445  1.00  0.00    -0.274 OA
BRANCH  18  21
HETATM   21  C   UNL     1     -44.906  61.020 -49.687  1.00  0.00     0.084 C 
HETATM   22  C   UNL     1     -44.902  61.002 -48.163  1.00  0.00     0.025 C 
HETATM   23  C   UNL     1     -45.007  62.478 -47.799  1.00  0.00     0.002 C 
HETATM   24  C   UNL     1     -44.305  63.234 -48.927  1.00  0.00     0.002 C 
HETATM   25  C   UNL     1     -43.999  62.202 -50.009  1.00  0.00     0.025 C 
ENDBRANCH  18  21
ENDBRANCH  16  17
ENDBRANCH   3  16
BRANCH  11  26
HETATM   26  C   UNL     1     -43.778  54.758 -53.613  1.00  0.00     0.176 C 
BRANCH  26  27
HETATM   27  O   UNL     1     -43.921  54.358 -54.973  1.00  0.00    -0.400 OA
HETATM   28  H   UNL     1     -44.101  55.157 -55.498  1.00  0.00     0.209 HD
ENDBRANCH  26  27
ENDBRANCH  11  26
BRANCH   7  29
HETATM   29  N   UNL     1     -45.832  59.529 -55.955  1.00  0.00    -0.305 N 
HETATM   30  C   UNL     1     -45.834  60.785 -56.520  1.00  0.00     0.232 C 
HETATM   31  O   UNL     1     -44.912  61.595 -56.520  1.00  0.00    -0.272 OA
HETATM   32  H   UNL     1     -46.706  59.015 -55.947  1.00  0.00     0.171 HD
BRANCH  30  33
HETATM   33  C   UNL     1     -47.120  61.096 -57.275  1.00  0.00     0.176 C 
BRANCH  33  34
HETATM   34  S   UNL     1     -46.815  61.603 -59.001  1.00  0.00    -0.164 SA
HETATM   35  C   UNL     1     -48.514  61.504 -59.625  1.00  0.00     0.090 C 
ENDBRANCH  33  34
ENDBRANCH  30  33
ENDBRANCH   7  29
BRANCH  13  36
HETATM   36  O   UNL     1     -40.831  53.736 -51.448  1.00  0.00    -0.395 OA
HETATM   37  H   UNL     1     -40.283  54.432 -51.852  1.00  0.00     0.210 HD
ENDBRANCH  13  36
TORSDOF 9
ENDMDL
MODEL 5
REMARK VINA RESULT:      -6.8      2.107      2.593
REMARK  9 active torsions:
REMARK  status: ('A' for Active; 'I' for Inactive)
REMARK    1  A    between atoms: C_3  and  C_4 
REMARK    2  A    between atoms: C_4  and  C_5 
REMARK       I    between atoms: C_5  and  N_6 
REMARK    3  A    between atoms: N_6  and  C_7 
REMARK    4  A    between atoms: C_16  and  N_17 
REMARK       I    between atoms: N_17  and  C_18 
REMARK    5  A    between atoms: C_18  and  C_19 
REMARK    6  A    between atoms: C_19  and  S_20 
REMARK    7  A    between atoms: C_26  and  C_27 
REMARK    8  A    between atoms: C_27  and  O_28 
REMARK    9  A    between atoms: C_30  and  O_31 
ROOT
HETATM    1  C   UNL     1     -44.571  54.631 -53.989  1.00  0.00     0.016 C 
HETATM    2  C   UNL     1     -43.659  55.843 -53.591  1.00  0.00    -0.030 C 
HETATM    3  C   UNL     1     -42.563  55.938 -54.774  1.00  0.00     0.056 C 
HETATM    4  C   UNL     1     -42.987  56.942 -55.830  1.00  0.00     0.056 A 
HETATM    5  C   UNL     1     -44.180  57.630 -55.821  1.00  0.00     0.012 A 
HETATM    6  S   UNL     1     -44.314  58.621 -57.198  1.00  0.00    -0.055 SA
HETATM    7  C   UNL     1     -42.775  58.101 -57.705  1.00  0.00     0.173 A 
HETATM    8  N   UNL     1     -42.171  57.245 -56.910  1.00  0.00    -0.227 NA
HETATM    9  C   UNL     1     -45.232  57.549 -54.782  1.00  0.00     0.055 C 
HETATM   10  C   UNL     1     -44.623  57.110 -53.427  1.00  0.00     0.012 C 
HETATM   11  C   UNL     1     -44.080  58.305 -52.535  1.00  0.00     0.008 C 
HETATM   12  C   UNL     1     -45.253  59.267 -52.189  1.00  0.00     0.020 C 
HETATM   13  C   UNL     1     -43.525  57.739 -51.195  1.00  0.00     0.128 C 
HETATM   14  C   UNL     1     -42.500  56.630 -51.406  1.00  0.00     0.033 C 
HETATM   15  C   UNL     1     -43.080  55.462 -52.203  1.00  0.00     0.013 C 
ENDROOT
BRANCH   3  16
HETATM   16  C   UNL     1     -41.090  56.119 -54.358  1.00  0.00     0.114 C 
BRANCH  16  17
HETATM   17  C   UNL     1     -40.264  54.851 -54.504  1.00  0.00     0.218 C 
HETATM   18  N   UNL     1     -40.535  53.898 -53.551  1.00  0.00    -0.356 N 
HETATM   19  H   UNL     1     -40.827  54.283 -52.654  1.00  0.00     0.162 HD
HETATM   20  O   UNL     1     -39.466  54.695 -55.423  1.00  0.00    -0.274 OA
BRANCH  18  21
HETATM   21  C   UNL     1     -39.882  52.611 -53.552  1.00  0.00     0.084 C 
HETATM   22  C   UNL     1     -39.850  51.941 -52.184  1.00  0.00     0.025 C 
HETATM   23  C   UNL     1     -39.538  50.487 -52.518  1.00  0.00     0.002 C 
HETATM   24  C   UNL     1     -40.159  50.234 -53.892  1.00  0.00     0.002 C 
HETATM   25  C   UNL     1     -40.628  51.592 -54.406  1.00  0.00     0.025 C 
ENDBRANCH  18  21
ENDBRANCH  16  17
ENDBRANCH   3  16
BRANCH  11  26
HETATM   26  C   UNL     1     -42.996  59.158 -53.238  1.00  0.00     0.176 C 
BRANCH  26  27
HETATM   27  O   UNL     1     -42.193  59.867 -52.298  1.00  0.00    -0.400 OA
HETATM   28  H   UNL     1     -41.823  59.216 -51.676  1.00  0.00     0.209 HD
ENDBRANCH  26  27
ENDBRANCH  11  26
BRANCH   7  29
HETATM   29  N   UNL     1     -42.170  58.558 -58.844  1.00  0.00    -0.305 N 
HETATM   30  C   UNL     1     -42.579  58.378 -60.146  1.00  0.00     0.232 C 
HETATM   31  O   UNL     1     -43.564  57.753 -60.530  1.00  0.00    -0.272 OA
HETATM   32  H   UNL     1     -41.277  59.012 -58.689  1.00  0.00     0.171 HD
BRANCH  30  33
HETATM   33  C   UNL     1     -41.716  59.131 -61.151  1.00  0.00     0.176 C 
BRANCH  33  34
HETATM   34  S   UNL     1     -41.996  60.933 -61.106  1.00  0.00    -0.164 SA
HETATM   35  C   UNL     1     -42.958  61.104 -62.631  1.00  0.00     0.090 C 
ENDBRANCH  33  34
ENDBRANCH  30  33
ENDBRANCH   7  29
BRANCH  13  36
HETATM   36  O   UNL     1     -44.588  57.190 -50.408  1.00  0.00    -0.395 OA
HETATM   37  H   UNL     1     -45.087  57.937 -50.035  1.00  0.00     0.210 HD
ENDBRANCH  13  36
TORSDOF 9
ENDMDL
MODEL 6
REMARK VINA RESULT:      -6.8     16.473     19.384
REMARK  9 active torsions:
REMARK  status: ('A' for Active; 'I' for Inactive)
REMARK    1  A    between atoms: C_3  and  C_4 
REMARK    2  A    between atoms: C_4  and  C_5 
REMARK       I    between atoms: C_5  and  N_6 
REMARK    3  A    between atoms: N_6  and  C_7 
REMARK    4  A    between atoms: C_16  and  N_17 
REMARK       I    between atoms: N_17  and  C_18 
REMARK    5  A    between atoms: C_18  and  C_19 
REMARK    6  A    between atoms: C_19  and  S_20 
REMARK    7  A    between atoms: C_26  and  C_27 
REMARK    8  A    between atoms: C_27  and  O_28 
REMARK    9  A    between atoms: C_30  and  O_31 
ROOT
HETATM    1  C   UNL     1     -35.302  42.499 -52.167  1.00  0.00     0.016 C 
HETATM    2  C   UNL     1     -35.712  40.985 -52.178  1.00  0.00    -0.030 C 
HETATM    3  C   UNL     1     -35.387  40.482 -53.679  1.00  0.00     0.056 C 
HETATM    4  C   UNL     1     -34.014  39.841 -53.754  1.00  0.00     0.056 A 
HETATM    5  C   UNL     1     -33.130  39.760 -52.701  1.00  0.00     0.012 A 
HETATM    6  S   UNL     1     -31.678  39.020 -53.189  1.00  0.00    -0.055 SA
HETATM    7  C   UNL     1     -32.318  38.827 -54.753  1.00  0.00     0.173 A 
HETATM    8  N   UNL     1     -33.543  39.272 -54.927  1.00  0.00    -0.227 NA
HETATM    9  C   UNL     1     -33.364  40.239 -51.319  1.00  0.00     0.055 C 
HETATM   10  C   UNL     1     -34.881  40.276 -51.008  1.00  0.00     0.012 C 
HETATM   11  C   UNL     1     -35.468  38.911 -50.447  1.00  0.00     0.008 C 
HETATM   12  C   UNL     1     -34.761  38.557 -49.107  1.00  0.00     0.020 C 
HETATM   13  C   UNL     1     -36.986  39.086 -50.147  1.00  0.00     0.128 C 
HETATM   14  C   UNL     1     -37.762  39.631 -51.341  1.00  0.00     0.033 C 
HETATM   15  C   UNL     1     -37.218  40.981 -51.807  1.00  0.00     0.013 C 
ENDROOT
BRANCH   3  16
HETATM   16  C   UNL     1     -36.463  39.637 -54.388  1.00  0.00     0.114 C 
BRANCH  16  17
HETATM   17  C   UNL     1     -37.204  40.396 -55.477  1.00  0.00     0.218 C 
HETATM   18  N   UNL     1     -36.778  40.101 -56.749  1.00  0.00    -0.356 N 
HETATM   19  H   UNL     1     -35.792  39.848 -56.806  1.00  0.00     0.162 HD
HETATM   20  O   UNL     1     -38.127  41.164 -55.222  1.00  0.00    -0.274 OA
BRANCH  18  21
HETATM   21  C   UNL     1     -37.392  40.689 -57.915  1.00  0.00     0.084 C 
HETATM   22  C   UNL     1     -36.783  42.027 -58.317  1.00  0.00     0.025 C 
HETATM   23  C   UNL     1     -37.265  42.209 -59.751  1.00  0.00     0.002 C 
HETATM   24  C   UNL     1     -37.391  40.799 -60.329  1.00  0.00     0.002 C 
HETATM   25  C   UNL     1     -37.183  39.838 -59.162  1.00  0.00     0.025 C 
ENDBRANCH  18  21
ENDBRANCH  16  17
ENDBRANCH   3  16
BRANCH  11  26
HETATM   26  C   UNL     1     -35.252  37.709 -51.397  1.00  0.00     0.176 C 
BRANCH  26  27
HETATM   27  O   UNL     1     -34.228  36.839 -50.922  1.00  0.00    -0.400 OA
HETATM   28  H   UNL     1     -34.538  36.448 -50.086  1.00  0.00     0.209 HD
ENDBRANCH  26  27
ENDBRANCH  11  26
BRANCH   7  29
HETATM   29  N   UNL     1     -31.635  38.218 -55.771  1.00  0.00    -0.305 N 
HETATM   30  C   UNL     1     -30.741  38.792 -56.646  1.00  0.00     0.232 C 
HETATM   31  O   UNL     1     -30.401  39.971 -56.687  1.00  0.00    -0.272 OA
HETATM   32  H   UNL     1     -31.893  37.250 -55.927  1.00  0.00     0.171 HD
BRANCH  30  33
HETATM   33  C   UNL     1     -30.085  37.779 -57.577  1.00  0.00     0.176 C 
BRANCH  33  34
HETATM   34  S   UNL     1     -28.282  38.015 -57.714  1.00  0.00    -0.164 SA
HETATM   35  C   UNL     1     -27.834  37.758 -55.978  1.00  0.00     0.090 C 
ENDBRANCH  33  34
ENDBRANCH  30  33
ENDBRANCH   7  29
BRANCH  13  36
HETATM   36  O   UNL     1     -37.177  40.003 -49.063  1.00  0.00    -0.395 OA
HETATM   37  H   UNL     1     -37.333  40.881 -49.452  1.00  0.00     0.210 HD
ENDBRANCH  13  36
TORSDOF 9
ENDMDL
MODEL 7
REMARK VINA RESULT:      -6.4      2.976      6.441
REMARK  9 active torsions:
REMARK  status: ('A' for Active; 'I' for Inactive)
REMARK    1  A    between atoms: C_3  and  C_4 
REMARK    2  A    between atoms: C_4  and  C_5 
REMARK       I    between atoms: C_5  and  N_6 
REMARK    3  A    between atoms: N_6  and  C_7 
REMARK    4  A    between atoms: C_16  and  N_17 
REMARK       I    between atoms: N_17  and  C_18 
REMARK    5  A    between atoms: C_18  and  C_19 
REMARK    6  A    between atoms: C_19  and  S_20 
REMARK    7  A    between atoms: C_26  and  C_27 
REMARK    8  A    between atoms: C_27  and  O_28 
REMARK    9  A    between atoms: C_30  and  O_31 
ROOT
HETATM    1  C   UNL     1     -44.409  54.350 -53.982  1.00  0.00     0.016 C 
HETATM    2  C   UNL     1     -43.120  55.130 -53.547  1.00  0.00    -0.030 C 
HETATM    3  C   UNL     1     -43.308  56.612 -54.165  1.00  0.00     0.056 C 
HETATM    4  C   UNL     1     -43.909  57.557 -53.142  1.00  0.00     0.056 A 
HETATM    5  C   UNL     1     -44.309  57.189 -51.876  1.00  0.00     0.012 A 
HETATM    6  S   UNL     1     -44.980  58.514 -51.047  1.00  0.00    -0.055 SA
HETATM    7  C   UNL     1     -44.675  59.498 -52.401  1.00  0.00     0.173 A 
HETATM    8  N   UNL     1     -44.100  58.902 -53.422  1.00  0.00    -0.227 NA
HETATM    9  C   UNL     1     -44.193  55.839 -51.277  1.00  0.00     0.055 C 
HETATM   10  C   UNL     1     -43.048  55.043 -51.951  1.00  0.00     0.012 C 
HETATM   11  C   UNL     1     -41.621  55.266 -51.291  1.00  0.00     0.008 C 
HETATM   12  C   UNL     1     -41.658  54.797 -49.808  1.00  0.00     0.020 C 
HETATM   13  C   UNL     1     -40.567  54.393 -52.034  1.00  0.00     0.128 C 
HETATM   14  C   UNL     1     -40.576  54.617 -53.542  1.00  0.00     0.033 C 
HETATM   15  C   UNL     1     -41.945  54.321 -54.154  1.00  0.00     0.013 C 
ENDROOT
BRANCH   3  16
HETATM   16  C   UNL     1     -42.098  57.232 -54.890  1.00  0.00     0.114 C 
BRANCH  16  17
HETATM   17  C   UNL     1     -42.383  57.587 -56.341  1.00  0.00     0.218 C 
HETATM   18  N   UNL     1     -43.041  56.601 -57.035  1.00  0.00    -0.356 N 
HETATM   19  H   UNL     1     -42.827  55.658 -56.716  1.00  0.00     0.162 HD
HETATM   20  O   UNL     1     -42.084  58.680 -56.814  1.00  0.00    -0.274 OA
BRANCH  18  21
HETATM   21  C   UNL     1     -43.436  56.773 -58.413  1.00  0.00     0.084 C 
HETATM   22  C   UNL     1     -43.585  55.462 -59.175  1.00  0.00     0.025 C 
HETATM   23  C   UNL     1     -44.402  55.862 -60.397  1.00  0.00     0.002 C 
HETATM   24  C   UNL     1     -45.294  57.017 -59.939  1.00  0.00     0.002 C 
HETATM   25  C   UNL     1     -44.825  57.390 -58.536  1.00  0.00     0.025 C 
ENDBRANCH  18  21
ENDBRANCH  16  17
ENDBRANCH   3  16
BRANCH  11  26
HETATM   26  C   UNL     1     -41.168  56.746 -51.281  1.00  0.00     0.176 C 
BRANCH  26  27
HETATM   27  O   UNL     1     -41.321  57.334 -49.991  1.00  0.00    -0.400 OA
HETATM   28  H   UNL     1     -41.106  56.654 -49.330  1.00  0.00     0.209 HD
ENDBRANCH  26  27
ENDBRANCH  11  26
BRANCH   7  29
HETATM   29  N   UNL     1     -44.966  60.835 -52.434  1.00  0.00    -0.305 N 
HETATM   30  C   UNL     1     -46.204  61.429 -52.341  1.00  0.00     0.232 C 
HETATM   31  O   UNL     1     -47.288  60.864 -52.227  1.00  0.00    -0.272 OA
HETATM   32  H   UNL     1     -44.170  61.432 -52.629  1.00  0.00     0.171 HD
BRANCH  30  33
HETATM   33  C   UNL     1     -46.132  62.951 -52.300  1.00  0.00     0.176 C 
BRANCH  33  34
HETATM   34  S   UNL     1     -47.299  63.677 -51.100  1.00  0.00    -0.164 SA
HETATM   35  C   UNL     1     -48.612  64.167 -52.249  1.00  0.00     0.090 C 
ENDBRANCH  33  34
ENDBRANCH  30  33
ENDBRANCH   7  29
BRANCH  13  36
HETATM   36  O   UNL     1     -40.825  53.002 -51.811  1.00  0.00    -0.395 OA
HETATM   37  H   UNL     1     -39.964  52.562 -51.703  1.00  0.00     0.210 HD
ENDBRANCH  13  36
TORSDOF 9
ENDMDL
MODEL 8
REMARK VINA RESULT:      -6.4      3.257      5.075
REMARK  9 active torsions:
REMARK  status: ('A' for Active; 'I' for Inactive)
REMARK    1  A    between atoms: C_3  and  C_4 
REMARK    2  A    between atoms: C_4  and  C_5 
REMARK       I    between atoms: C_5  and  N_6 
REMARK    3  A    between atoms: N_6  and  C_7 
REMARK    4  A    between atoms: C_16  and  N_17 
REMARK       I    between atoms: N_17  and  C_18 
REMARK    5  A    between atoms: C_18  and  C_19 
REMARK    6  A    between atoms: C_19  and  S_20 
REMARK    7  A    between atoms: C_26  and  C_27 
REMARK    8  A    between atoms: C_27  and  O_28 
REMARK    9  A    between atoms: C_30  and  O_31 
ROOT
HETATM    1  C   UNL     1     -44.853  57.509 -51.918  1.00  0.00     0.016 C 
HETATM    2  C   UNL     1     -43.319  57.559 -52.242  1.00  0.00    -0.030 C 
HETATM    3  C   UNL     1     -43.243  57.875 -53.825  1.00  0.00     0.056 C 
HETATM    4  C   UNL     1     -43.078  59.363 -54.075  1.00  0.00     0.056 A 
HETATM    5  C   UNL     1     -43.066  60.326 -53.090  1.00  0.00     0.012 A 
HETATM    6  S   UNL     1     -42.914  61.879 -53.768  1.00  0.00    -0.055 SA
HETATM    7  C   UNL     1     -42.845  61.180 -55.318  1.00  0.00     0.173 A 
HETATM    8  N   UNL     1     -42.920  59.868 -55.357  1.00  0.00    -0.227 NA
HETATM    9  C   UNL     1     -43.171  60.091 -51.632  1.00  0.00     0.055 C 
HETATM   10  C   UNL     1     -42.682  58.664 -51.276  1.00  0.00     0.012 C 
HETATM   11  C   UNL     1     -41.122  58.556 -51.004  1.00  0.00     0.008 C 
HETATM   12  C   UNL     1     -40.745  59.456 -49.792  1.00  0.00     0.020 C 
HETATM   13  C   UNL     1     -40.764  57.087 -50.629  1.00  0.00     0.128 C 
HETATM   14  C   UNL     1     -41.270  56.079 -51.655  1.00  0.00     0.033 C 
HETATM   15  C   UNL     1     -42.785  56.160 -51.836  1.00  0.00     0.013 C 
ENDROOT
BRANCH   3  16
HETATM   16  C   UNL     1     -42.266  57.032 -54.666  1.00  0.00     0.114 C 
BRANCH  16  17
HETATM   17  C   UNL     1     -42.945  56.273 -55.796  1.00  0.00     0.218 C 
HETATM   18  N   UNL     1     -43.146  57.025 -56.928  1.00  0.00    -0.356 N 
HETATM   19  H   UNL     1     -43.291  58.017 -56.746  1.00  0.00     0.162 HD
HETATM   20  O   UNL     1     -43.237  55.085 -55.699  1.00  0.00    -0.274 OA
BRANCH  18  21
HETATM   21  C   UNL     1     -43.736  56.465 -58.120  1.00  0.00     0.084 C 
HETATM   22  C   UNL     1     -44.956  57.232 -58.616  1.00  0.00     0.025 C 
HETATM   23  C   UNL     1     -45.111  56.745 -60.052  1.00  0.00     0.002 C 
HETATM   24  C   UNL     1     -43.696  56.425 -60.537  1.00  0.00     0.002 C 
HETATM   25  C   UNL     1     -42.790  56.535 -59.314  1.00  0.00     0.025 C 
ENDBRANCH  18  21
ENDBRANCH  16  17
ENDBRANCH   3  16
BRANCH  11  26
HETATM   26  C   UNL     1     -40.253  59.023 -52.195  1.00  0.00     0.176 C 
BRANCH  26  27
HETATM   27  O   UNL     1     -38.977  59.492 -51.765  1.00  0.00    -0.400 OA
HETATM   28  H   UNL     1     -39.056  60.446 -51.594  1.00  0.00     0.209 HD
ENDBRANCH  26  27
ENDBRANCH  11  26
BRANCH   7  29
HETATM   29  N   UNL     1     -42.684  61.914 -56.462  1.00  0.00    -0.305 N 
HETATM   30  C   UNL     1     -43.666  62.409 -57.290  1.00  0.00     0.232 C 
HETATM   31  O   UNL     1     -44.879  62.268 -57.162  1.00  0.00    -0.272 OA
HETATM   32  H   UNL     1     -41.720  62.026 -56.755  1.00  0.00     0.171 HD
BRANCH  30  33
HETATM   33  C   UNL     1     -43.116  63.281 -58.412  1.00  0.00     0.176 C 
BRANCH  33  34
HETATM   34  S   UNL     1     -41.948  62.385 -59.489  1.00  0.00    -0.164 SA
HETATM   35  C   UNL     1     -43.006  62.194 -60.948  1.00  0.00     0.090 C 
ENDBRANCH  33  34
ENDBRANCH  30  33
ENDBRANCH   7  29
BRANCH  13  36
HETATM   36  O   UNL     1     -41.349  56.738 -49.369  1.00  0.00    -0.395 OA
HETATM   37  H   UNL     1     -41.253  55.776 -49.262  1.00  0.00     0.210 HD
ENDBRANCH  13  36
TORSDOF 9
ENDMDL
MODEL 9
REMARK VINA RESULT:      -6.4     16.738     19.300
REMARK  9 active torsions:
REMARK  status: ('A' for Active; 'I' for Inactive)
REMARK    1  A    between atoms: C_3  and  C_4 
REMARK    2  A    between atoms: C_4  and  C_5 
REMARK       I    between atoms: C_5  and  N_6 
REMARK    3  A    between atoms: N_6  and  C_7 
REMARK    4  A    between atoms: C_16  and  N_17 
REMARK       I    between atoms: N_17  and  C_18 
REMARK    5  A    between atoms: C_18  and  C_19 
REMARK    6  A    between atoms: C_19  and  S_20 
REMARK    7  A    between atoms: C_26  and  C_27 
REMARK    8  A    between atoms: C_27  and  O_28 
REMARK    9  A    between atoms: C_30  and  O_31 
ROOT
HETATM    1  C   UNL     1     -34.961  37.319 -55.155  1.00  0.00     0.016 C 
HETATM    2  C   UNL     1     -34.706  38.640 -54.349  1.00  0.00    -0.030 C 
HETATM    3  C   UNL     1     -36.181  39.190 -53.985  1.00  0.00     0.056 C 
HETATM    4  C   UNL     1     -36.605  38.736 -52.600  1.00  0.00     0.056 A 
HETATM    5  C   UNL     1     -35.863  37.907 -51.788  1.00  0.00     0.012 A 
HETATM    6  S   UNL     1     -36.694  37.584 -50.338  1.00  0.00    -0.055 SA
HETATM    7  C   UNL     1     -37.968  38.583 -50.862  1.00  0.00     0.173 A 
HETATM    8  N   UNL     1     -37.807  39.143 -52.041  1.00  0.00    -0.227 NA
HETATM    9  C   UNL     1     -34.526  37.347 -52.091  1.00  0.00     0.055 C 
HETATM   10  C   UNL     1     -33.779  38.248 -53.106  1.00  0.00     0.012 C 
HETATM   11  C   UNL     1     -32.942  39.423 -52.444  1.00  0.00     0.008 C 
HETATM   12  C   UNL     1     -31.849  38.821 -51.514  1.00  0.00     0.020 C 
HETATM   13  C   UNL     1     -32.217  40.233 -53.559  1.00  0.00     0.128 C 
HETATM   14  C   UNL     1     -33.168  40.709 -54.652  1.00  0.00     0.033 C 
HETATM   15  C   UNL     1     -33.900  39.545 -55.319  1.00  0.00     0.013 C 
ENDROOT
BRANCH   3  16
HETATM   16  C   UNL     1     -36.451  40.690 -54.213  1.00  0.00     0.114 C 
BRANCH  16  17
HETATM   17  C   UNL     1     -37.318  40.967 -55.430  1.00  0.00     0.218 C 
HETATM   18  N   UNL     1     -36.679  40.756 -56.628  1.00  0.00    -0.356 N 
HETATM   19  H   UNL     1     -35.676  40.931 -56.597  1.00  0.00     0.162 HD
HETATM   20  O   UNL     1     -38.494  41.303 -55.329  1.00  0.00    -0.274 OA
BRANCH  18  21
HETATM   21  C   UNL     1     -37.354  40.924 -57.893  1.00  0.00     0.084 C 
HETATM   22  C   UNL     1     -37.006  42.226 -58.603  1.00  0.00     0.025 C 
HETATM   23  C   UNL     1     -37.462  41.972 -60.035  1.00  0.00     0.002 C 
HETATM   24  C   UNL     1     -37.286  40.471 -60.266  1.00  0.00     0.002 C 
HETATM   25  C   UNL     1     -36.935  39.867 -58.909  1.00  0.00     0.025 C 
ENDBRANCH  18  21
ENDBRANCH  16  17
ENDBRANCH   3  16
BRANCH  11  26
HETATM   26  C   UNL     1     -33.796  40.374 -51.571  1.00  0.00     0.176 C 
BRANCH  26  27
HETATM   27  O   UNL     1     -33.491  40.234 -50.186  1.00  0.00    -0.400 OA
HETATM   28  H   UNL     1     -33.355  39.287 -50.008  1.00  0.00     0.209 HD
ENDBRANCH  26  27
ENDBRANCH  11  26
BRANCH   7  29
HETATM   29  N   UNL     1     -39.082  38.831 -50.107  1.00  0.00    -0.305 N 
HETATM   30  C   UNL     1     -40.311  38.217 -50.193  1.00  0.00     0.232 C 
HETATM   31  O   UNL     1     -40.643  37.336 -50.981  1.00  0.00    -0.272 OA
HETATM   32  H   UNL     1     -38.990  39.615 -49.471  1.00  0.00     0.171 HD
BRANCH  30  33
HETATM   33  C   UNL     1     -41.281  38.673 -49.109  1.00  0.00     0.176 C 
BRANCH  33  34
HETATM   34  S   UNL     1     -40.792  38.109 -47.445  1.00  0.00    -0.164 SA
HETATM   35  C   UNL     1     -41.302  39.565 -46.496  1.00  0.00     0.090 C 
ENDBRANCH  33  34
ENDBRANCH  30  33
ENDBRANCH   7  29
BRANCH  13  36
HETATM   36  O   UNL     1     -31.217  39.425 -54.191  1.00  0.00    -0.395 OA
HETATM   37  H   UNL     1     -30.499  40.019 -54.468  1.00  0.00     0.210 HD
ENDBRANCH  13  36
TORSDOF 9
ENDMDL
MODEL 10
REMARK VINA RESULT:      -6.2     16.592     19.014
REMARK  9 active torsions:
REMARK  status: ('A' for Active; 'I' for Inactive)
REMARK    1  A    between atoms: C_3  and  C_4 
REMARK    2  A    between atoms: C_4  and  C_5 
REMARK       I    between atoms: C_5  and  N_6 
REMARK    3  A    between atoms: N_6  and  C_7 
REMARK    4  A    between atoms: C_16  and  N_17 
REMARK       I    between atoms: N_17  and  C_18 
REMARK    5  A    between atoms: C_18  and  C_19 
REMARK    6  A    between atoms: C_19  and  S_20 
REMARK    7  A    between atoms: C_26  and  C_27 
REMARK    8  A    between atoms: C_27  and  O_28 
REMARK    9  A    between atoms: C_30  and  O_31 
ROOT
HETATM    1  C   UNL     1     -34.014  41.810 -51.181  1.00  0.00     0.016 C 
HETATM    2  C   UNL     1     -34.324  40.647 -52.186  1.00  0.00    -0.030 C 
HETATM    3  C   UNL     1     -35.249  39.617 -51.351  1.00  0.00     0.056 C 
HETATM    4  C   UNL     1     -36.722  39.878 -51.605  1.00  0.00     0.056 A 
HETATM    5  C   UNL     1     -37.211  40.901 -52.387  1.00  0.00     0.012 A 
HETATM    6  S   UNL     1     -38.913  40.898 -52.387  1.00  0.00    -0.055 SA
HETATM    7  C   UNL     1     -38.896  39.529 -51.377  1.00  0.00     0.173 A 
HETATM    8  N   UNL     1     -37.706  39.075 -51.050  1.00  0.00    -0.227 NA
HETATM    9  C   UNL     1     -36.408  41.892 -53.141  1.00  0.00     0.055 C 
HETATM   10  C   UNL     1     -35.007  41.317 -53.468  1.00  0.00     0.012 C 
HETATM   11  C   UNL     1     -34.939  40.493 -54.823  1.00  0.00     0.008 C 
HETATM   12  C   UNL     1     -35.313  41.422 -56.014  1.00  0.00     0.020 C 
HETATM   13  C   UNL     1     -33.480  39.998 -55.053  1.00  0.00     0.128 C 
HETATM   14  C   UNL     1     -32.921  39.238 -53.855  1.00  0.00     0.033 C 
HETATM   15  C   UNL     1     -32.933  40.088 -52.585  1.00  0.00     0.013 C 
ENDROOT
BRANCH   3  16
HETATM   16  C   UNL     1     -34.898  38.120 -51.445  1.00  0.00     0.114 C 
BRANCH  16  17
HETATM   17  C   UNL     1     -33.752  37.711 -50.534  1.00  0.00     0.218 C 
HETATM   18  N   UNL     1     -33.511  38.598 -49.513  1.00  0.00    -0.356 N 
HETATM   19  H   UNL     1     -33.731  39.566 -49.745  1.00  0.00     0.162 HD
HETATM   20  O   UNL     1     -33.141  36.658 -50.687  1.00  0.00    -0.274 OA
BRANCH  18  21
HETATM   21  C   UNL     1     -32.490  38.359 -48.520  1.00  0.00     0.084 C 
HETATM   22  C   UNL     1     -31.676  39.599 -48.169  1.00  0.00     0.025 C 
HETATM   23  C   UNL     1     -31.014  39.216 -46.851  1.00  0.00     0.002 C 
HETATM   24  C   UNL     1     -31.989  38.265 -46.157  1.00  0.00     0.002 C 
HETATM   25  C   UNL     1     -33.085  37.958 -47.174  1.00  0.00     0.025 C 
ENDBRANCH  18  21
ENDBRANCH  16  17
ENDBRANCH   3  16
BRANCH  11  26
HETATM   26  C   UNL     1     -35.916  39.294 -54.868  1.00  0.00     0.176 C 
BRANCH  26  27
HETATM   27  O   UNL     1     -37.002  39.532 -55.760  1.00  0.00    -0.400 OA
HETATM   28  H   UNL     1     -36.635  39.918 -56.574  1.00  0.00     0.209 HD
ENDBRANCH  26  27
ENDBRANCH  11  26
BRANCH   7  29
HETATM   29  N   UNL     1     -40.034  38.901 -50.949  1.00  0.00    -0.305 N 
HETATM   30  C   UNL     1     -41.332  39.157 -51.333  1.00  0.00     0.232 C 
HETATM   31  O   UNL     1     -41.711  40.014 -52.125  1.00  0.00    -0.272 OA
HETATM   32  H   UNL     1     -39.887  38.227 -50.206  1.00  0.00     0.171 HD
BRANCH  30  33
HETATM   33  C   UNL     1     -42.334  38.178 -50.733  1.00  0.00     0.176 C 
BRANCH  33  34
HETATM   34  S   UNL     1     -42.892  36.922 -51.932  1.00  0.00    -0.164 SA
HETATM   35  C   UNL     1     -44.636  36.829 -51.447  1.00  0.00     0.090 C 
ENDBRANCH  33  34
ENDBRANCH  30  33
ENDBRANCH   7  29
BRANCH  13  36
HETATM   36  O   UNL     1     -32.609  41.110 -55.293  1.00  0.00    -0.395 OA
HETATM   37  H   UNL     1     -31.771  40.752 -55.634  1.00  0.00     0.210 HD
ENDBRANCH  13  36
TORSDOF 9
ENDMDL
