MODEL 1
REMARK VINA RESULT:      -7.9      0.000      0.000
REMARK  5 active torsions:
REMARK  status: ('A' for Active; 'I' for Inactive)
REMARK    1  A    between atoms: C_6  and  C_7 
REMARK    2  A    between atoms: C_7  and  C_8 
REMARK    3  A    between atoms: C_8  and  C_9 
REMARK    4  A    between atoms: C_9  and  N_10 
REMARK    5  A    between atoms: C_9  and  C_14 
ROOT
HETATM    1  C   UNL     1     -43.292  55.402 -50.607  1.00  0.00     0.253 C 
ENDROOT
BRANCH   1   2
HETATM    2  C   UNL     1     -42.138  54.576 -50.001  1.00  0.00     0.048 C 
BRANCH   2   3
HETATM    3  C   UNL     1     -40.759  54.720 -50.659  1.00  0.00     0.081 C 
BRANCH   3   4
HETATM    4  C   UNL     1     -40.379  53.498 -51.416  1.00  0.00     0.105 A 
HETATM    5  N   UNL     1     -40.388  53.399 -52.732  1.00  0.00    -0.233 NA
HETATM    6  C   UNL     1     -40.065  52.083 -52.995  1.00  0.00     0.085 A 
HETATM    7  C   UNL     1     -39.842  51.385 -51.813  1.00  0.00     0.062 A 
HETATM    8  C   UNL     1     -39.965  51.409 -54.221  1.00  0.00     0.034 A 
HETATM    9  C   UNL     1     -39.521  50.027 -51.774  1.00  0.00     0.032 A 
HETATM   10  N   UNL     1     -40.012  52.316 -50.822  1.00  0.00    -0.343 N 
HETATM   11  C   UNL     1     -39.434  49.368 -53.006  1.00  0.00     0.002 A 
HETATM   12  C   UNL     1     -39.651  50.044 -54.209  1.00  0.00     0.002 A 
HETATM   13  H   UNL     1     -39.910  52.144 -49.831  1.00  0.00     0.167 HD
ENDBRANCH   3   4
ENDBRANCH   2   3
ENDBRANCH   1   2
BRANCH   1  14
HETATM   14  N   UNL     1     -44.605  54.782 -50.302  1.00  0.00    -0.068 N 
HETATM   15  H   UNL     1     -44.466  53.865 -49.866  1.00  0.00     0.275 HD
HETATM   16  H   UNL     1     -45.133  55.345 -49.627  1.00  0.00     0.275 HD
HETATM   17  H   UNL     1     -45.133  54.643 -51.182  1.00  0.00     0.275 HD
ENDBRANCH   1  14
BRANCH   1  18
HETATM   18  C   UNL     1     -43.145  55.504 -52.091  1.00  0.00     0.136 A 
HETATM   19  N   UNL     1     -42.684  56.560 -52.731  1.00  0.00    -0.231 NA
HETATM   20  C   UNL     1     -42.708  56.215 -54.064  1.00  0.00     0.085 A 
HETATM   21  C   UNL     1     -43.155  54.908 -54.227  1.00  0.00     0.062 A 
HETATM   22  C   UNL     1     -42.355  56.965 -55.195  1.00  0.00     0.034 A 
HETATM   23  N   UNL     1     -43.430  54.476 -52.955  1.00  0.00    -0.341 N 
HETATM   24  C   UNL     1     -43.260  54.282 -55.470  1.00  0.00     0.032 A 
HETATM   25  H   UNL     1     -43.776  53.554 -52.721  1.00  0.00     0.167 HD
HETATM   26  C   UNL     1     -42.901  55.044 -56.587  1.00  0.00     0.002 A 
HETATM   27  C   UNL     1     -42.460  56.363 -56.455  1.00  0.00     0.002 A 
ENDBRANCH   1  18
TORSDOF 5
ENDMDL
MODEL 2
REMARK VINA RESULT:      -7.9      2.084      3.108
REMARK  5 active torsions:
REMARK  status: ('A' for Active; 'I' for Inactive)
REMARK    1  A    between atoms: C_6  and  C_7 
REMARK    2  A    between atoms: C_7  and  C_8 
REMARK    3  A    between atoms: C_8  and  C_9 
REMARK    4  A    between atoms: C_9  and  N_10 
REMARK    5  A    between atoms: C_9  and  C_14 
ROOT
HETATM    1  C   UNL     1     -43.478  55.925 -54.328  1.00  0.00     0.253 C 
ENDROOT
BRANCH   1   2
HETATM    2  C   UNL     1     -42.180  55.632 -53.545  1.00  0.00     0.048 C 
BRANCH   2   3
HETATM    3  C   UNL     1     -41.000  55.062 -54.344  1.00  0.00     0.081 C 
BRANCH   3   4
HETATM    4  C   UNL     1     -40.557  53.746 -53.812  1.00  0.00     0.105 A 
HETATM    5  N   UNL     1     -40.389  52.660 -54.543  1.00  0.00    -0.233 NA
HETATM    6  C   UNL     1     -40.074  51.666 -53.640  1.00  0.00     0.085 A 
HETATM    7  C   UNL     1     -40.035  52.170 -52.345  1.00  0.00     0.062 A 
HETATM    8  C   UNL     1     -39.828  50.302 -53.855  1.00  0.00     0.034 A 
HETATM    9  C   UNL     1     -39.764  51.383 -51.224  1.00  0.00     0.032 A 
HETATM   10  N   UNL     1     -40.310  53.505 -52.484  1.00  0.00    -0.343 N 
HETATM   11  C   UNL     1     -39.529  50.023 -51.455  1.00  0.00     0.002 A 
HETATM   12  C   UNL     1     -39.559  49.489 -52.745  1.00  0.00     0.002 A 
HETATM   13  H   UNL     1     -40.350  54.178 -51.729  1.00  0.00     0.167 HD
ENDBRANCH   3   4
ENDBRANCH   2   3
ENDBRANCH   1   2
BRANCH   1  14
HETATM   14  N   UNL     1     -44.350  54.725 -54.374  1.00  0.00    -0.068 N 
HETATM   15  H   UNL     1     -44.763  54.628 -55.307  1.00  0.00     0.275 HD
HETATM   16  H   UNL     1     -43.811  53.869 -54.206  1.00  0.00     0.275 HD
HETATM   17  H   UNL     1     -45.120  54.833 -53.690  1.00  0.00     0.275 HD
ENDBRANCH   1  14
BRANCH   1  18
HETATM   18  C   UNL     1     -43.167  56.345 -55.728  1.00  0.00     0.136 A 
HETATM   19  N   UNL     1     -42.622  57.496 -56.065  1.00  0.00    -0.231 NA
HETATM   20  C   UNL     1     -42.504  57.455 -57.436  1.00  0.00     0.085 A 
HETATM   21  C   UNL     1     -42.951  56.234 -57.932  1.00  0.00     0.062 A 
HETATM   22  C   UNL     1     -42.018  58.421 -58.328  1.00  0.00     0.034 A 
HETATM   23  N   UNL     1     -43.371  55.544 -56.824  1.00  0.00    -0.341 N 
HETATM   24  C   UNL     1     -42.929  55.902 -59.287  1.00  0.00     0.032 A 
HETATM   25  H   UNL     1     -43.755  54.608 -56.838  1.00  0.00     0.167 HD
HETATM   26  C   UNL     1     -42.437  56.876 -60.163  1.00  0.00     0.002 A 
HETATM   27  C   UNL     1     -41.993  58.115 -59.695  1.00  0.00     0.002 A 
ENDBRANCH   1  18
TORSDOF 5
ENDMDL
MODEL 3
REMARK VINA RESULT:      -7.7      2.138      3.725
REMARK  5 active torsions:
REMARK  status: ('A' for Active; 'I' for Inactive)
REMARK    1  A    between atoms: C_6  and  C_7 
REMARK    2  A    between atoms: C_7  and  C_8 
REMARK    3  A    between atoms: C_8  and  C_9 
REMARK    4  A    between atoms: C_9  and  N_10 
REMARK    5  A    between atoms: C_9  and  C_14 
ROOT
HETATM    1  C   UNL     1     -43.205  54.880 -53.964  1.00  0.00     0.253 C 
ENDROOT
BRANCH   1   2
HETATM    2  C   UNL     1     -42.299  54.642 -55.191  1.00  0.00     0.048 C 
BRANCH   2   3
HETATM    3  C   UNL     1     -40.786  54.588 -54.939  1.00  0.00     0.081 C 
BRANCH   3   4
HETATM    4  C   UNL     1     -40.399  53.382 -54.161  1.00  0.00     0.105 A 
HETATM    5  N   UNL     1     -40.208  52.184 -54.681  1.00  0.00    -0.233 NA
HETATM    6  C   UNL     1     -39.963  51.359 -53.603  1.00  0.00     0.085 A 
HETATM    7  C   UNL     1     -39.991  52.081 -52.414  1.00  0.00     0.062 A 
HETATM    8  C   UNL     1     -39.730  49.977 -53.562  1.00  0.00     0.034 A 
HETATM    9  C   UNL     1     -39.799  51.499 -51.160  1.00  0.00     0.032 A 
HETATM   10  N   UNL     1     -40.233  53.374 -52.799  1.00  0.00    -0.343 N 
HETATM   11  C   UNL     1     -39.575  50.118 -51.138  1.00  0.00     0.002 A 
HETATM   12  C   UNL     1     -39.540  49.368 -52.315  1.00  0.00     0.002 A 
HETATM   13  H   UNL     1     -40.305  54.168 -52.176  1.00  0.00     0.167 HD
ENDBRANCH   3   4
ENDBRANCH   2   3
ENDBRANCH   1   2
BRANCH   1  14
HETATM   14  N   UNL     1     -44.591  55.204 -54.384  1.00  0.00    -0.068 N 
HETATM   15  H   UNL     1     -45.239  55.045 -53.607  1.00  0.00     0.275 HD
HETATM   16  H   UNL     1     -44.680  56.194 -54.637  1.00  0.00     0.275 HD
HETATM   17  H   UNL     1     -44.867  54.583 -55.166  1.00  0.00     0.275 HD
ENDBRANCH   1  14
BRANCH   1  18
HETATM   18  C   UNL     1     -42.682  56.006 -53.132  1.00  0.00     0.136 A 
HETATM   19  N   UNL     1     -42.043  55.864 -51.989  1.00  0.00    -0.231 NA
HETATM   20  C   UNL     1     -41.736  57.143 -51.582  1.00  0.00     0.085 A 
HETATM   21  C   UNL     1     -42.165  58.074 -52.522  1.00  0.00     0.062 A 
HETATM   22  C   UNL     1     -41.086  57.588 -50.423  1.00  0.00     0.034 A 
HETATM   23  N   UNL     1     -42.767  57.326 -53.501  1.00  0.00    -0.341 N 
HETATM   24  C   UNL     1     -41.969  59.450 -52.386  1.00  0.00     0.032 A 
HETATM   25  H   UNL     1     -43.188  57.704 -54.340  1.00  0.00     0.167 HD
HETATM   26  C   UNL     1     -41.315  59.876 -51.224  1.00  0.00     0.002 A 
HETATM   27  C   UNL     1     -40.884  58.964 -50.257  1.00  0.00     0.002 A 
ENDBRANCH   1  18
TORSDOF 5
ENDMDL
MODEL 4
REMARK VINA RESULT:      -7.5      1.709      2.543
REMARK  5 active torsions:
REMARK  status: ('A' for Active; 'I' for Inactive)
REMARK    1  A    between atoms: C_6  and  C_7 
REMARK    2  A    between atoms: C_7  and  C_8 
REMARK    3  A    between atoms: C_8  and  C_9 
REMARK    4  A    between atoms: C_9  and  N_10 
REMARK    5  A    between atoms: C_9  and  C_14 
ROOT
HETATM    1  C   UNL     1     -43.314  55.112 -50.683  1.00  0.00     0.253 C 
ENDROOT
BRANCH   1   2
HETATM    2  C   UNL     1     -42.102  54.683 -49.828  1.00  0.00     0.048 C 
BRANCH   2   3
HETATM    3  C   UNL     1     -40.716  54.806 -50.475  1.00  0.00     0.081 C 
BRANCH   3   4
HETATM    4  C   UNL     1     -40.396  53.627 -51.323  1.00  0.00     0.105 A 
HETATM    5  N   UNL     1     -40.541  53.584 -52.634  1.00  0.00    -0.233 NA
HETATM    6  C   UNL     1     -40.225  52.289 -52.988  1.00  0.00     0.085 A 
HETATM    7  C   UNL     1     -39.866  51.545 -51.869  1.00  0.00     0.062 A 
HETATM    8  C   UNL     1     -40.243  51.671 -54.247  1.00  0.00     0.034 A 
HETATM    9  C   UNL     1     -39.519  50.195 -51.926  1.00  0.00     0.032 A 
HETATM   10  N   UNL     1     -39.947  52.429 -50.825  1.00  0.00    -0.343 N 
HETATM   11  C   UNL     1     -39.550  49.592 -53.189  1.00  0.00     0.002 A 
HETATM   12  C   UNL     1     -39.904  50.314 -54.331  1.00  0.00     0.002 A 
HETATM   13  H   UNL     1     -39.738  52.216 -49.858  1.00  0.00     0.167 HD
ENDBRANCH   3   4
ENDBRANCH   2   3
ENDBRANCH   1   2
BRANCH   1  14
HETATM   14  N   UNL     1     -43.715  54.028 -51.613  1.00  0.00    -0.068 N 
HETATM   15  H   UNL     1     -43.146  53.193 -51.445  1.00  0.00     0.275 HD
HETATM   16  H   UNL     1     -44.690  53.749 -51.458  1.00  0.00     0.275 HD
HETATM   17  H   UNL     1     -43.556  54.336 -52.589  1.00  0.00     0.275 HD
ENDBRANCH   1  14
BRANCH   1  18
HETATM   18  C   UNL     1     -42.991  56.332 -51.482  1.00  0.00     0.136 A 
HETATM   19  N   UNL     1     -42.758  56.343 -52.779  1.00  0.00    -0.231 NA
HETATM   20  C   UNL     1     -42.521  57.663 -53.095  1.00  0.00     0.085 A 
HETATM   21  C   UNL     1     -42.654  58.469 -51.969  1.00  0.00     0.062 A 
HETATM   22  C   UNL     1     -42.191  58.249 -54.324  1.00  0.00     0.034 A 
HETATM   23  N   UNL     1     -42.952  57.599 -50.953  1.00  0.00    -0.341 N 
HETATM   24  C   UNL     1     -42.493  59.856 -51.995  1.00  0.00     0.032 A 
HETATM   25  H   UNL     1     -43.115  57.868 -49.991  1.00  0.00     0.167 HD
HETATM   26  C   UNL     1     -42.168  60.425 -53.231  1.00  0.00     0.002 A 
HETATM   27  C   UNL     1     -42.016  59.638 -54.376  1.00  0.00     0.002 A 
ENDBRANCH   1  18
TORSDOF 5
ENDMDL
MODEL 5
REMARK VINA RESULT:      -7.5      2.284      3.579
REMARK  5 active torsions:
REMARK  status: ('A' for Active; 'I' for Inactive)
REMARK    1  A    between atoms: C_6  and  C_7 
REMARK    2  A    between atoms: C_7  and  C_8 
REMARK    3  A    between atoms: C_8  and  C_9 
REMARK    4  A    between atoms: C_9  and  N_10 
REMARK    5  A    between atoms: C_9  and  C_14 
ROOT
HETATM    1  C   UNL     1     -44.101  57.256 -54.490  1.00  0.00     0.253 C 
ENDROOT
BRANCH   1   2
HETATM    2  C   UNL     1     -42.943  57.091 -53.483  1.00  0.00     0.048 C 
BRANCH   2   3
HETATM    3  C   UNL     1     -43.166  56.115 -52.320  1.00  0.00     0.081 C 
BRANCH   3   4
HETATM    4  C   UNL     1     -42.313  54.904 -52.444  1.00  0.00     0.105 A 
HETATM    5  N   UNL     1     -41.599  54.386 -51.462  1.00  0.00    -0.233 NA
HETATM    6  C   UNL     1     -40.898  53.346 -52.039  1.00  0.00     0.085 A 
HETATM    7  C   UNL     1     -41.211  53.229 -53.388  1.00  0.00     0.062 A 
HETATM    8  C   UNL     1     -39.958  52.473 -51.473  1.00  0.00     0.034 A 
HETATM    9  C   UNL     1     -40.633  52.276 -54.229  1.00  0.00     0.032 A 
HETATM   10  N   UNL     1     -42.142  54.208 -53.615  1.00  0.00    -0.343 N 
HETATM   11  C   UNL     1     -39.692  51.418 -53.650  1.00  0.00     0.002 A 
HETATM   12  C   UNL     1     -39.359  51.511 -52.297  1.00  0.00     0.002 A 
HETATM   13  H   UNL     1     -42.595  54.394 -54.500  1.00  0.00     0.167 HD
ENDBRANCH   3   4
ENDBRANCH   2   3
ENDBRANCH   1   2
BRANCH   1  14
HETATM   14  N   UNL     1     -45.088  56.158 -54.345  1.00  0.00    -0.068 N 
HETATM   15  H   UNL     1     -44.961  55.471 -55.094  1.00  0.00     0.275 HD
HETATM   16  H   UNL     1     -44.953  55.652 -53.463  1.00  0.00     0.275 HD
HETATM   17  H   UNL     1     -46.046  56.544 -54.422  1.00  0.00     0.275 HD
ENDBRANCH   1  14
BRANCH   1  18
HETATM   18  C   UNL     1     -43.585  57.253 -55.893  1.00  0.00     0.136 A 
HETATM   19  N   UNL     1     -42.884  58.226 -56.440  1.00  0.00    -0.231 NA
HETATM   20  C   UNL     1     -42.611  57.802 -57.721  1.00  0.00     0.085 A 
HETATM   21  C   UNL     1     -43.125  56.528 -57.937  1.00  0.00     0.062 A 
HETATM   22  C   UNL     1     -41.924  58.450 -58.757  1.00  0.00     0.034 A 
HETATM   23  N   UNL     1     -43.743  56.199 -56.758  1.00  0.00    -0.341 N 
HETATM   24  C   UNL     1     -42.980  55.836 -59.141  1.00  0.00     0.032 A 
HETATM   25  H   UNL     1     -44.221  55.324 -56.581  1.00  0.00     0.167 HD
HETATM   26  C   UNL     1     -42.288  56.496 -60.162  1.00  0.00     0.002 A 
HETATM   27  C   UNL     1     -41.771  57.781 -59.978  1.00  0.00     0.002 A 
ENDBRANCH   1  18
TORSDOF 5
ENDMDL
MODEL 6
REMARK VINA RESULT:      -7.3      2.944      7.014
REMARK  5 active torsions:
REMARK  status: ('A' for Active; 'I' for Inactive)
REMARK    1  A    between atoms: C_6  and  C_7 
REMARK    2  A    between atoms: C_7  and  C_8 
REMARK    3  A    between atoms: C_8  and  C_9 
REMARK    4  A    between atoms: C_9  and  N_10 
REMARK    5  A    between atoms: C_9  and  C_14 
ROOT
HETATM    1  C   UNL     1     -43.423  55.832 -54.976  1.00  0.00     0.253 C 
ENDROOT
BRANCH   1   2
HETATM    2  C   UNL     1     -42.846  57.262 -54.919  1.00  0.00     0.048 C 
BRANCH   2   3
HETATM    3  C   UNL     1     -42.416  57.893 -56.251  1.00  0.00     0.081 C 
BRANCH   3   4
HETATM    4  C   UNL     1     -43.199  57.354 -57.395  1.00  0.00     0.105 A 
HETATM    5  N   UNL     1     -44.380  57.805 -57.773  1.00  0.00    -0.233 NA
HETATM    6  C   UNL     1     -44.773  56.965 -58.795  1.00  0.00     0.085 A 
HETATM    7  C   UNL     1     -43.801  56.002 -59.044  1.00  0.00     0.062 A 
HETATM    8  C   UNL     1     -45.960  56.951 -59.541  1.00  0.00     0.034 A 
HETATM    9  C   UNL     1     -43.940  55.005 -60.010  1.00  0.00     0.032 A 
HETATM   10  N   UNL     1     -42.791  56.294 -58.165  1.00  0.00    -0.343 N 
HETATM   11  C   UNL     1     -45.134  55.001 -60.740  1.00  0.00     0.002 A 
HETATM   12  C   UNL     1     -46.128  55.956 -60.513  1.00  0.00     0.002 A 
HETATM   13  H   UNL     1     -41.917  55.791 -58.087  1.00  0.00     0.167 HD
ENDBRANCH   3   4
ENDBRANCH   2   3
ENDBRANCH   1   2
BRANCH   1  14
HETATM   14  N   UNL     1     -44.738  55.764 -54.293  1.00  0.00    -0.068 N 
HETATM   15  H   UNL     1     -45.438  55.352 -54.918  1.00  0.00     0.275 HD
HETATM   16  H   UNL     1     -44.696  55.158 -53.467  1.00  0.00     0.275 HD
HETATM   17  H   UNL     1     -45.049  56.722 -54.049  1.00  0.00     0.275 HD
ENDBRANCH   1  14
BRANCH   1  18
HETATM   18  C   UNL     1     -42.494  54.862 -54.322  1.00  0.00     0.136 A 
HETATM   19  N   UNL     1     -42.204  54.846 -53.036  1.00  0.00    -0.231 NA
HETATM   20  C   UNL     1     -41.333  53.793 -52.872  1.00  0.00     0.085 A 
HETATM   21  C   UNL     1     -41.125  53.134 -54.080  1.00  0.00     0.062 A 
HETATM   22  C   UNL     1     -40.682  53.333 -51.719  1.00  0.00     0.034 A 
HETATM   23  N   UNL     1     -41.874  53.835 -54.990  1.00  0.00    -0.341 N 
HETATM   24  C   UNL     1     -40.304  52.012 -54.211  1.00  0.00     0.032 A 
HETATM   25  H   UNL     1     -41.945  53.611 -55.974  1.00  0.00     0.167 HD
HETATM   26  C   UNL     1     -39.665  51.566 -53.049  1.00  0.00     0.002 A 
HETATM   27  C   UNL     1     -39.846  52.214 -51.825  1.00  0.00     0.002 A 
ENDBRANCH   1  18
TORSDOF 5
ENDMDL
MODEL 7
REMARK VINA RESULT:      -7.2      2.087      6.164
REMARK  5 active torsions:
REMARK  status: ('A' for Active; 'I' for Inactive)
REMARK    1  A    between atoms: C_6  and  C_7 
REMARK    2  A    between atoms: C_7  and  C_8 
REMARK    3  A    between atoms: C_8  and  C_9 
REMARK    4  A    between atoms: C_9  and  N_10 
REMARK    5  A    between atoms: C_9  and  C_14 
ROOT
HETATM    1  C   UNL     1     -43.113  56.330 -52.295  1.00  0.00     0.253 C 
ENDROOT
BRANCH   1   2
HETATM    2  C   UNL     1     -42.613  57.514 -53.149  1.00  0.00     0.048 C 
BRANCH   2   3
HETATM    3  C   UNL     1     -43.591  58.087 -54.185  1.00  0.00     0.081 C 
BRANCH   3   4
HETATM    4  C   UNL     1     -43.250  57.652 -55.565  1.00  0.00     0.105 A 
HETATM    5  N   UNL     1     -42.629  58.402 -56.456  1.00  0.00    -0.233 NA
HETATM    6  C   UNL     1     -42.609  57.646 -57.610  1.00  0.00     0.085 A 
HETATM    7  C   UNL     1     -43.214  56.411 -57.401  1.00  0.00     0.062 A 
HETATM    8  C   UNL     1     -42.108  57.960 -58.881  1.00  0.00     0.034 A 
HETATM    9  C   UNL     1     -43.357  55.449 -58.402  1.00  0.00     0.032 A 
HETATM   10  N   UNL     1     -43.582  56.424 -56.081  1.00  0.00    -0.343 N 
HETATM   11  C   UNL     1     -42.860  55.782 -59.666  1.00  0.00     0.002 A 
HETATM   12  C   UNL     1     -42.245  57.013 -59.905  1.00  0.00     0.002 A 
HETATM   13  H   UNL     1     -44.042  55.667 -55.592  1.00  0.00     0.167 HD
ENDBRANCH   3   4
ENDBRANCH   2   3
ENDBRANCH   1   2
BRANCH   1  14
HETATM   14  N   UNL     1     -43.053  56.657 -50.849  1.00  0.00    -0.068 N 
HETATM   15  H   UNL     1     -43.998  56.813 -50.485  1.00  0.00     0.275 HD
HETATM   16  H   UNL     1     -42.659  55.879 -50.309  1.00  0.00     0.275 HD
HETATM   17  H   UNL     1     -42.509  57.529 -50.716  1.00  0.00     0.275 HD
ENDBRANCH   1  14
BRANCH   1  18
HETATM   18  C   UNL     1     -42.283  55.112 -52.544  1.00  0.00     0.136 A 
HETATM   19  N   UNL     1     -42.211  54.472 -53.694  1.00  0.00    -0.231 NA
HETATM   20  C   UNL     1     -41.331  53.435 -53.478  1.00  0.00     0.085 A 
HETATM   21  C   UNL     1     -40.831  53.476 -52.181  1.00  0.00     0.062 A 
HETATM   22  C   UNL     1     -40.905  52.420 -54.346  1.00  0.00     0.034 A 
HETATM   23  N   UNL     1     -41.453  54.552 -51.604  1.00  0.00    -0.341 N 
HETATM   24  C   UNL     1     -39.900  52.559 -51.688  1.00  0.00     0.032 A 
HETATM   25  H   UNL     1     -41.306  54.862 -50.652  1.00  0.00     0.167 HD
HETATM   26  C   UNL     1     -39.484  51.556 -52.569  1.00  0.00     0.002 A 
HETATM   27  C   UNL     1     -39.978  51.483 -53.874  1.00  0.00     0.002 A 
ENDBRANCH   1  18
TORSDOF 5
ENDMDL
MODEL 8
REMARK VINA RESULT:      -7.1      2.276      7.135
REMARK  5 active torsions:
REMARK  status: ('A' for Active; 'I' for Inactive)
REMARK    1  A    between atoms: C_6  and  C_7 
REMARK    2  A    between atoms: C_7  and  C_8 
REMARK    3  A    between atoms: C_8  and  C_9 
REMARK    4  A    between atoms: C_9  and  N_10 
REMARK    5  A    between atoms: C_9  and  C_14 
ROOT
HETATM    1  C   UNL     1     -40.830  54.816 -54.017  1.00  0.00     0.253 C 
ENDROOT
BRANCH   1   2
HETATM    2  C   UNL     1     -42.360  55.014 -54.055  1.00  0.00     0.048 C 
BRANCH   2   3
HETATM    3  C   UNL     1     -42.872  56.429 -54.360  1.00  0.00     0.081 C 
BRANCH   3   4
HETATM    4  C   UNL     1     -42.804  56.739 -55.812  1.00  0.00     0.105 A 
HETATM    5  N   UNL     1     -43.102  55.888 -56.776  1.00  0.00    -0.233 NA
HETATM    6  C   UNL     1     -42.808  56.555 -57.947  1.00  0.00     0.085 A 
HETATM    7  C   UNL     1     -42.342  57.838 -57.681  1.00  0.00     0.062 A 
HETATM    8  C   UNL     1     -42.896  56.118 -59.277  1.00  0.00     0.034 A 
HETATM    9  C   UNL     1     -41.946  58.731 -58.677  1.00  0.00     0.032 A 
HETATM   10  N   UNL     1     -42.383  57.945 -56.315  1.00  0.00    -0.343 N 
HETATM   11  C   UNL     1     -42.032  58.276 -59.997  1.00  0.00     0.002 A 
HETATM   12  C   UNL     1     -42.499  56.994 -60.296  1.00  0.00     0.002 A 
HETATM   13  H   UNL     1     -42.119  58.764 -55.782  1.00  0.00     0.167 HD
ENDBRANCH   3   4
ENDBRANCH   2   3
ENDBRANCH   1   2
BRANCH   1  14
HETATM   14  N   UNL     1     -40.257  54.860 -55.385  1.00  0.00    -0.068 N 
HETATM   15  H   UNL     1     -40.840  55.446 -55.991  1.00  0.00     0.275 HD
HETATM   16  H   UNL     1     -39.324  55.286 -55.383  1.00  0.00     0.275 HD
HETATM   17  H   UNL     1     -40.240  53.903 -55.782  1.00  0.00     0.275 HD
ENDBRANCH   1  14
BRANCH   1  18
HETATM   18  C   UNL     1     -40.483  53.502 -53.396  1.00  0.00     0.136 A 
HETATM   19  N   UNL     1     -40.410  53.279 -52.099  1.00  0.00    -0.231 NA
HETATM   20  C   UNL     1     -40.079  51.948 -51.977  1.00  0.00     0.085 A 
HETATM   21  C   UNL     1     -39.992  51.346 -53.228  1.00  0.00     0.062 A 
HETATM   22  C   UNL     1     -39.843  51.179 -50.829  1.00  0.00     0.034 A 
HETATM   23  N   UNL     1     -40.252  52.357 -54.117  1.00  0.00    -0.341 N 
HETATM   24  C   UNL     1     -39.694  49.995 -53.412  1.00  0.00     0.032 A 
HETATM   25  H   UNL     1     -40.268  52.252 -55.124  1.00  0.00     0.167 HD
HETATM   26  C   UNL     1     -39.465  49.242 -52.254  1.00  0.00     0.002 A 
HETATM   27  C   UNL     1     -39.534  49.822 -50.985  1.00  0.00     0.002 A 
ENDBRANCH   1  18
TORSDOF 5
ENDMDL
MODEL 9
REMARK VINA RESULT:      -7.1      2.159      6.325
REMARK  5 active torsions:
REMARK  status: ('A' for Active; 'I' for Inactive)
REMARK    1  A    between atoms: C_6  and  C_7 
REMARK    2  A    between atoms: C_7  and  C_8 
REMARK    3  A    between atoms: C_8  and  C_9 
REMARK    4  A    between atoms: C_9  and  N_10 
REMARK    5  A    between atoms: C_9  and  C_14 
ROOT
HETATM    1  C   UNL     1     -42.028  56.662 -52.319  1.00  0.00     0.253 C 
ENDROOT
BRANCH   1   2
HETATM    2  C   UNL     1     -41.461  57.691 -53.321  1.00  0.00     0.048 C 
BRANCH   2   3
HETATM    3  C   UNL     1     -42.477  58.497 -54.141  1.00  0.00     0.081 C 
BRANCH   3   4
HETATM    4  C   UNL     1     -42.581  57.995 -55.537  1.00  0.00     0.105 A 
HETATM    5  N   UNL     1     -42.985  56.784 -55.870  1.00  0.00    -0.233 NA
HETATM    6  C   UNL     1     -42.834  56.720 -57.240  1.00  0.00     0.085 A 
HETATM    7  C   UNL     1     -42.346  57.922 -57.740  1.00  0.00     0.062 A 
HETATM    8  C   UNL     1     -43.074  55.656 -58.123  1.00  0.00     0.034 A 
HETATM    9  C   UNL     1     -42.074  58.136 -59.091  1.00  0.00     0.032 A 
HETATM   10  N   UNL     1     -42.228  58.732 -56.640  1.00  0.00    -0.343 N 
HETATM   11  C   UNL     1     -42.311  57.062 -59.956  1.00  0.00     0.002 A 
HETATM   12  C   UNL     1     -42.803  55.844 -59.484  1.00  0.00     0.002 A 
HETATM   13  H   UNL     1     -41.907  59.691 -56.650  1.00  0.00     0.167 HD
ENDBRANCH   3   4
ENDBRANCH   2   3
ENDBRANCH   1   2
BRANCH   1  14
HETATM   14  N   UNL     1     -41.751  57.075 -50.922  1.00  0.00    -0.068 N 
HETATM   15  H   UNL     1     -42.245  57.947 -50.709  1.00  0.00     0.275 HD
HETATM   16  H   UNL     1     -42.095  56.378 -50.254  1.00  0.00     0.275 HD
HETATM   17  H   UNL     1     -40.735  57.245 -50.808  1.00  0.00     0.275 HD
ENDBRANCH   1  14
BRANCH   1  18
HETATM   18  C   UNL     1     -41.424  55.315 -52.548  1.00  0.00     0.136 A 
HETATM   19  N   UNL     1     -40.918  54.546 -51.605  1.00  0.00    -0.231 NA
HETATM   20  C   UNL     1     -40.492  53.408 -52.253  1.00  0.00     0.085 A 
HETATM   21  C   UNL     1     -40.787  53.475 -53.610  1.00  0.00     0.062 A 
HETATM   22  C   UNL     1     -39.851  52.269 -51.745  1.00  0.00     0.034 A 
HETATM   23  N   UNL     1     -41.379  54.701 -53.776  1.00  0.00    -0.341 N 
HETATM   24  C   UNL     1     -40.491  52.451 -54.512  1.00  0.00     0.032 A 
HETATM   25  H   UNL     1     -41.718  55.064 -54.657  1.00  0.00     0.167 HD
HETATM   26  C   UNL     1     -39.854  51.321 -53.988  1.00  0.00     0.002 A 
HETATM   27  C   UNL     1     -39.536  51.230 -52.630  1.00  0.00     0.002 A 
ENDBRANCH   1  18
TORSDOF 5
ENDMDL
MODEL 10
REMARK VINA RESULT:      -7.0      2.505      3.750
REMARK  5 active torsions:
REMARK  status: ('A' for Active; 'I' for Inactive)
REMARK    1  A    between atoms: C_6  and  C_7 
REMARK    2  A    between atoms: C_7  and  C_8 
REMARK    3  A    between atoms: C_8  and  C_9 
REMARK    4  A    between atoms: C_9  and  N_10 
REMARK    5  A    between atoms: C_9  and  C_14 
ROOT
HETATM    1  C   UNL     1     -42.962  56.016 -55.049  1.00  0.00     0.253 C 
ENDROOT
BRANCH   1   2
HETATM    2  C   UNL     1     -41.631  55.925 -54.272  1.00  0.00     0.048 C 
BRANCH   2   3
HETATM    3  C   UNL     1     -41.665  55.210 -52.914  1.00  0.00     0.081 C 
BRANCH   3   4
HETATM    4  C   UNL     1     -41.043  53.861 -52.985  1.00  0.00     0.105 A 
HETATM    5  N   UNL     1     -41.032  53.096 -54.061  1.00  0.00    -0.233 NA
HETATM    6  C   UNL     1     -40.447  51.915 -53.655  1.00  0.00     0.085 A 
HETATM    7  C   UNL     1     -40.085  51.980 -52.314  1.00  0.00     0.062 A 
HETATM    8  C   UNL     1     -40.212  50.734 -54.374  1.00  0.00     0.034 A 
HETATM    9  C   UNL     1     -39.492  50.918 -51.628  1.00  0.00     0.032 A 
HETATM   10  N   UNL     1     -40.441  53.243 -51.919  1.00  0.00    -0.343 N 
HETATM   11  C   UNL     1     -39.272  49.745 -52.359  1.00  0.00     0.002 A 
HETATM   12  C   UNL     1     -39.624  49.651 -53.707  1.00  0.00     0.002 A 
HETATM   13  H   UNL     1     -40.305  53.628 -50.993  1.00  0.00     0.167 HD
ENDBRANCH   3   4
ENDBRANCH   2   3
ENDBRANCH   1   2
BRANCH   1  14
HETATM   14  N   UNL     1     -43.530  54.666 -55.285  1.00  0.00    -0.068 N 
HETATM   15  H   UNL     1     -43.106  53.990 -54.642  1.00  0.00     0.275 HD
HETATM   16  H   UNL     1     -44.538  54.650 -55.098  1.00  0.00     0.275 HD
HETATM   17  H   UNL     1     -43.316  54.367 -56.254  1.00  0.00     0.275 HD
ENDBRANCH   1  14
BRANCH   1  18
HETATM   18  C   UNL     1     -42.759  56.687 -56.369  1.00  0.00     0.136 A 
HETATM   19  N   UNL     1     -42.919  56.106 -57.541  1.00  0.00    -0.231 NA
HETATM   20  C   UNL     1     -42.644  57.084 -58.471  1.00  0.00     0.085 A 
HETATM   21  C   UNL     1     -42.352  58.291 -57.844  1.00  0.00     0.062 A 
HETATM   22  C   UNL     1     -42.631  57.017 -59.871  1.00  0.00     0.034 A 
HETATM   23  N   UNL     1     -42.429  58.012 -56.504  1.00  0.00    -0.341 N 
HETATM   24  C   UNL     1     -42.056  59.465 -58.540  1.00  0.00     0.032 A 
HETATM   25  H   UNL     1     -42.271  58.685 -55.765  1.00  0.00     0.167 HD
HETATM   26  C   UNL     1     -42.050  59.380 -59.936  1.00  0.00     0.002 A 
HETATM   27  C   UNL     1     -42.328  58.179 -60.592  1.00  0.00     0.002 A 
ENDBRANCH   1  18
TORSDOF 5
ENDMDL
