MODEL 1
REMARK VINA RESULT:      -9.3      0.000      0.000
REMARK  6 active torsions:
REMARK  status: ('A' for Active; 'I' for Inactive)
REMARK    1  A    between atoms: O_2  and  C_3 
REMARK    2  A    between atoms: C_6  and  C_7 
REMARK    3  A    between atoms: C_7  and  N_8 
REMARK       I    between atoms: N_8  and  C_9 
REMARK    4  A    between atoms: C_9  and  C_10 
REMARK    5  A    between atoms: C_13  and  C_14 
REMARK    6  A    between atoms: C_19  and  C_20 
ROOT
HETATM    1  C   UNL     1     -42.839  55.956 -54.778  1.00  0.00     0.096 A 
HETATM    2  C   UNL     1     -42.158  55.239 -53.809  1.00  0.00     0.138 A 
HETATM    3  N   UNL     1     -42.593  55.745 -52.606  1.00  0.00    -0.240 N 
HETATM    4  C   UNL     1     -42.181  55.246 -51.307  1.00  0.00     0.221 C 
HETATM    5  C   UNL     1     -41.677  53.802 -51.445  1.00  0.00     0.066 C 
HETATM    6  C   UNL     1     -40.683  53.675 -52.610  1.00  0.00     0.118 C 
HETATM    7  N   UNL     1     -41.271  54.208 -53.842  1.00  0.00    -0.365 N 
HETATM    8  N   UNL     1     -43.564  56.662 -52.712  1.00  0.00    -0.181 NA
HETATM    9  C   UNL     1     -43.699  56.804 -54.033  1.00  0.00     0.160 A 
HETATM   10  H   UNL     1     -41.194  53.596 -54.653  1.00  0.00     0.161 HD
ENDROOT
BRANCH   1  11
HETATM   11  C   UNL     1     -42.771  55.906 -56.227  1.00  0.00     0.257 C 
HETATM   12  N   UNL     1     -42.802  57.124 -56.863  1.00  0.00    -0.352 N 
HETATM   13  H   UNL     1     -42.955  57.951 -56.305  1.00  0.00     0.163 HD
HETATM   14  O   UNL     1     -42.723  54.839 -56.829  1.00  0.00    -0.267 OA
BRANCH  12  15
HETATM   15  C   UNL     1     -42.734  57.244 -58.299  1.00  0.00     0.161 C 
BRANCH  15  16
HETATM   16  C   UNL     1     -44.059  56.939 -58.950  1.00  0.00    -0.040 A 
HETATM   17  C   UNL     1     -44.163  55.906 -59.895  1.00  0.00     0.011 A 
HETATM   18  C   UNL     1     -45.390  55.597 -60.491  1.00  0.00     0.037 A 
HETATM   19  C   UNL     1     -46.535  56.314 -60.150  1.00  0.00     0.068 A 
HETATM   20  C   UNL     1     -46.435  57.354 -59.223  1.00  0.00     0.037 A 
HETATM   21  C   UNL     1     -45.208  57.668 -58.628  1.00  0.00     0.011 A 
BRANCH  19  22
HETATM   22  O   UNL     1     -47.792  56.103 -60.646  1.00  0.00    -0.356 OA
HETATM   23  C   UNL     1     -48.128  56.790 -61.846  1.00  0.00     0.210 C 
ENDBRANCH  19  22
ENDBRANCH  15  16
ENDBRANCH  12  15
ENDBRANCH   1  11
BRANCH   4  24
HETATM   24  C   UNL     1     -41.149  56.174 -50.705  1.00  0.00     0.409 C 
HETATM   25  F   UNL     1     -40.618  57.026 -51.607  1.00  0.00    -0.169 F 
HETATM   26  F   UNL     1     -41.728  56.941 -49.744  1.00  0.00    -0.169 F 
HETATM   27  F   UNL     1     -40.130  55.518 -50.107  1.00  0.00    -0.169 F 
ENDBRANCH   4  24
BRANCH   6  28
HETATM   28  C   UNL     1     -40.241  52.236 -52.795  1.00  0.00    -0.035 A 
HETATM   29  C   UNL     1     -40.276  51.605 -54.050  1.00  0.00     0.009 A 
HETATM   30  C   UNL     1     -39.883  50.272 -54.187  1.00  0.00     0.001 A 
HETATM   31  C   UNL     1     -39.463  49.549 -53.072  1.00  0.00     0.000 A 
HETATM   32  C   UNL     1     -39.434  50.156 -51.821  1.00  0.00     0.001 A 
HETATM   33  C   UNL     1     -39.820  51.490 -51.681  1.00  0.00     0.009 A 
ENDBRANCH   6  28
TORSDOF 6
ENDMDL
MODEL 2
REMARK VINA RESULT:      -8.9      2.108      3.128
REMARK  6 active torsions:
REMARK  status: ('A' for Active; 'I' for Inactive)
REMARK    1  A    between atoms: O_2  and  C_3 
REMARK    2  A    between atoms: C_6  and  C_7 
REMARK    3  A    between atoms: C_7  and  N_8 
REMARK       I    between atoms: N_8  and  C_9 
REMARK    4  A    between atoms: C_9  and  C_10 
REMARK    5  A    between atoms: C_13  and  C_14 
REMARK    6  A    between atoms: C_19  and  C_20 
ROOT
HETATM    1  C   UNL     1     -43.165  56.067 -54.821  1.00  0.00     0.096 A 
HETATM    2  C   UNL     1     -42.408  55.395 -53.877  1.00  0.00     0.138 A 
HETATM    3  N   UNL     1     -42.774  55.932 -52.664  1.00  0.00    -0.240 N 
HETATM    4  C   UNL     1     -42.268  55.484 -51.380  1.00  0.00     0.221 C 
HETATM    5  C   UNL     1     -41.744  54.046 -51.505  1.00  0.00     0.066 C 
HETATM    6  C   UNL     1     -40.825  53.900 -52.728  1.00  0.00     0.118 C 
HETATM    7  N   UNL     1     -41.503  54.381 -53.936  1.00  0.00    -0.365 N 
HETATM    8  N   UNL     1     -43.769  56.826 -52.735  1.00  0.00    -0.181 NA
HETATM    9  C   UNL     1     -43.993  56.922 -54.048  1.00  0.00     0.160 A 
HETATM   10  H   UNL     1     -41.466  53.744 -54.730  1.00  0.00     0.161 HD
ENDROOT
BRANCH   1  11
HETATM   11  C   UNL     1     -43.191  55.970 -56.269  1.00  0.00     0.257 C 
HETATM   12  N   UNL     1     -43.954  56.916 -56.911  1.00  0.00    -0.352 N 
HETATM   13  H   UNL     1     -44.507  57.547 -56.350  1.00  0.00     0.163 HD
HETATM   14  O   UNL     1     -42.592  55.080 -56.862  1.00  0.00    -0.267 OA
BRANCH  12  15
HETATM   15  C   UNL     1     -44.075  56.961 -58.348  1.00  0.00     0.161 C 
BRANCH  15  16
HETATM   16  C   UNL     1     -43.318  58.123 -58.939  1.00  0.00    -0.040 A 
HETATM   17  C   UNL     1     -42.627  57.976 -60.151  1.00  0.00     0.011 A 
HETATM   18  C   UNL     1     -41.938  59.051 -60.723  1.00  0.00     0.037 A 
HETATM   19  C   UNL     1     -41.933  60.293 -60.092  1.00  0.00     0.068 A 
HETATM   20  C   UNL     1     -42.605  60.442 -58.876  1.00  0.00     0.037 A 
HETATM   21  C   UNL     1     -43.290  59.367 -58.300  1.00  0.00     0.011 A 
BRANCH  19  22
HETATM   22  O   UNL     1     -41.314  61.424 -60.551  1.00  0.00    -0.356 OA
HETATM   23  C   UNL     1     -40.650  62.226 -59.581  1.00  0.00     0.210 C 
ENDBRANCH  19  22
ENDBRANCH  15  16
ENDBRANCH  12  15
ENDBRANCH   1  11
BRANCH   4  24
HETATM   24  C   UNL     1     -41.219  56.451 -50.877  1.00  0.00     0.409 C 
HETATM   25  F   UNL     1     -41.711  57.356 -50.006  1.00  0.00    -0.169 F 
HETATM   26  F   UNL     1     -40.247  55.767 -50.215  1.00  0.00    -0.169 F 
HETATM   27  F   UNL     1     -40.601  57.127 -51.869  1.00  0.00    -0.169 F 
ENDBRANCH   4  24
BRANCH   6  28
HETATM   28  C   UNL     1     -40.365  52.465 -52.896  1.00  0.00    -0.035 A 
HETATM   29  C   UNL     1     -39.819  51.731 -51.830  1.00  0.00     0.009 A 
HETATM   30  C   UNL     1     -39.384  50.417 -52.019  1.00  0.00     0.001 A 
HETATM   31  C   UNL     1     -39.477  49.824 -53.276  1.00  0.00     0.000 A 
HETATM   32  C   UNL     1     -40.004  50.542 -54.346  1.00  0.00     0.001 A 
HETATM   33  C   UNL     1     -40.446  51.853 -54.159  1.00  0.00     0.009 A 
ENDBRANCH   6  28
TORSDOF 6
ENDMDL
MODEL 3
REMARK VINA RESULT:      -8.6      1.670      2.165
REMARK  6 active torsions:
REMARK  status: ('A' for Active; 'I' for Inactive)
REMARK    1  A    between atoms: O_2  and  C_3 
REMARK    2  A    between atoms: C_6  and  C_7 
REMARK    3  A    between atoms: C_7  and  N_8 
REMARK       I    between atoms: N_8  and  C_9 
REMARK    4  A    between atoms: C_9  and  C_10 
REMARK    5  A    between atoms: C_13  and  C_14 
REMARK    6  A    between atoms: C_19  and  C_20 
ROOT
HETATM    1  C   UNL     1     -41.878  56.421 -53.014  1.00  0.00     0.096 A 
HETATM    2  C   UNL     1     -41.404  55.280 -52.388  1.00  0.00     0.138 A 
HETATM    3  N   UNL     1     -41.917  55.323 -51.112  1.00  0.00    -0.240 N 
HETATM    4  C   UNL     1     -41.722  54.290 -50.112  1.00  0.00     0.221 C 
HETATM    5  C   UNL     1     -41.375  52.963 -50.803  1.00  0.00     0.066 C 
HETATM    6  C   UNL     1     -40.271  53.161 -51.853  1.00  0.00     0.118 C 
HETATM    7  N   UNL     1     -40.644  54.226 -52.790  1.00  0.00    -0.365 N 
HETATM    8  N   UNL     1     -42.755  56.344 -50.888  1.00  0.00    -0.181 NA
HETATM    9  C   UNL     1     -42.716  57.022 -52.039  1.00  0.00     0.160 A 
HETATM   10  H   UNL     1     -40.543  53.986 -53.775  1.00  0.00     0.161 HD
ENDROOT
BRANCH   1  11
HETATM   11  C   UNL     1     -41.646  56.945 -54.347  1.00  0.00     0.257 C 
HETATM   12  N   UNL     1     -42.519  57.923 -54.758  1.00  0.00    -0.352 N 
HETATM   13  H   UNL     1     -43.301  58.148 -54.161  1.00  0.00     0.163 HD
HETATM   14  O   UNL     1     -40.746  56.511 -55.058  1.00  0.00    -0.267 OA
BRANCH  12  15
HETATM   15  C   UNL     1     -42.417  58.551 -56.053  1.00  0.00     0.161 C 
BRANCH  15  16
HETATM   16  C   UNL     1     -43.304  57.882 -57.073  1.00  0.00    -0.040 A 
HETATM   17  C   UNL     1     -44.591  58.380 -57.327  1.00  0.00     0.011 A 
HETATM   18  C   UNL     1     -45.417  57.783 -58.286  1.00  0.00     0.037 A 
HETATM   19  C   UNL     1     -44.968  56.680 -59.009  1.00  0.00     0.068 A 
HETATM   20  C   UNL     1     -43.693  56.170 -58.748  1.00  0.00     0.037 A 
HETATM   21  C   UNL     1     -42.867  56.762 -57.787  1.00  0.00     0.011 A 
BRANCH  19  22
HETATM   22  O   UNL     1     -45.667  56.017 -59.980  1.00  0.00    -0.356 OA
HETATM   23  C   UNL     1     -44.953  55.035 -60.721  1.00  0.00     0.210 C 
ENDBRANCH  19  22
ENDBRANCH  15  16
ENDBRANCH  12  15
ENDBRANCH   1  11
BRANCH   4  24
HETATM   24  C   UNL     1     -40.667  54.728 -49.120  1.00  0.00     0.409 C 
HETATM   25  F   UNL     1     -39.666  55.429 -49.692  1.00  0.00    -0.169 F 
HETATM   26  F   UNL     1     -41.227  55.546 -48.189  1.00  0.00    -0.169 F 
HETATM   27  F   UNL     1     -40.116  53.699 -48.441  1.00  0.00    -0.169 F 
ENDBRANCH   4  24
BRANCH   6  28
HETATM   28  C   UNL     1     -39.980  51.867 -52.589  1.00  0.00    -0.035 A 
HETATM   29  C   UNL     1     -40.048  51.778 -53.989  1.00  0.00     0.009 A 
HETATM   30  C   UNL     1     -39.796  50.567 -54.639  1.00  0.00     0.001 A 
HETATM   31  C   UNL     1     -39.485  49.429 -53.898  1.00  0.00     0.000 A 
HETATM   32  C   UNL     1     -39.426  49.498 -52.509  1.00  0.00     0.001 A 
HETATM   33  C   UNL     1     -39.671  50.707 -51.858  1.00  0.00     0.009 A 
ENDBRANCH   6  28
TORSDOF 6
ENDMDL
MODEL 4
REMARK VINA RESULT:      -8.4      1.428      1.941
REMARK  6 active torsions:
REMARK  status: ('A' for Active; 'I' for Inactive)
REMARK    1  A    between atoms: O_2  and  C_3 
REMARK    2  A    between atoms: C_6  and  C_7 
REMARK    3  A    between atoms: C_7  and  N_8 
REMARK       I    between atoms: N_8  and  C_9 
REMARK    4  A    between atoms: C_9  and  C_10 
REMARK    5  A    between atoms: C_13  and  C_14 
REMARK    6  A    between atoms: C_19  and  C_20 
ROOT
HETATM    1  C   UNL     1     -43.157  56.116 -54.854  1.00  0.00     0.096 A 
HETATM    2  C   UNL     1     -42.411  55.429 -53.912  1.00  0.00     0.138 A 
HETATM    3  N   UNL     1     -42.778  55.960 -52.697  1.00  0.00    -0.240 N 
HETATM    4  C   UNL     1     -42.283  55.497 -51.413  1.00  0.00     0.221 C 
HETATM    5  C   UNL     1     -41.771  54.055 -51.548  1.00  0.00     0.066 C 
HETATM    6  C   UNL     1     -40.848  53.911 -52.768  1.00  0.00     0.118 C 
HETATM    7  N   UNL     1     -41.516  54.407 -53.975  1.00  0.00    -0.365 N 
HETATM    8  N   UNL     1     -43.764  56.864 -52.765  1.00  0.00    -0.181 NA
HETATM    9  C   UNL     1     -43.981  56.973 -54.079  1.00  0.00     0.160 A 
HETATM   10  H   UNL     1     -41.481  53.777 -54.774  1.00  0.00     0.161 HD
ENDROOT
BRANCH   1  11
HETATM   11  C   UNL     1     -43.177  56.032 -56.303  1.00  0.00     0.257 C 
HETATM   12  N   UNL     1     -44.030  56.905 -56.934  1.00  0.00    -0.352 N 
HETATM   13  H   UNL     1     -44.640  57.474 -56.366  1.00  0.00     0.163 HD
HETATM   14  O   UNL     1     -42.496  55.210 -56.906  1.00  0.00    -0.267 OA
BRANCH  12  15
HETATM   15  C   UNL     1     -44.159  56.952 -58.371  1.00  0.00     0.161 C 
BRANCH  15  16
HETATM   16  C   UNL     1     -45.287  57.853 -58.804  1.00  0.00    -0.040 A 
HETATM   17  C   UNL     1     -45.278  58.437 -60.080  1.00  0.00     0.011 A 
HETATM   18  C   UNL     1     -46.329  59.257 -60.504  1.00  0.00     0.037 A 
HETATM   19  C   UNL     1     -47.408  59.505 -59.659  1.00  0.00     0.068 A 
HETATM   20  C   UNL     1     -47.415  58.941 -58.381  1.00  0.00     0.037 A 
HETATM   21  C   UNL     1     -46.364  58.124 -57.953  1.00  0.00     0.011 A 
BRANCH  19  22
HETATM   22  O   UNL     1     -48.501  60.273 -59.956  1.00  0.00    -0.356 OA
HETATM   23  C   UNL     1     -49.120  60.950 -58.868  1.00  0.00     0.210 C 
ENDBRANCH  19  22
ENDBRANCH  15  16
ENDBRANCH  12  15
ENDBRANCH   1  11
BRANCH   4  24
HETATM   24  C   UNL     1     -41.227  56.449 -50.898  1.00  0.00     0.409 C 
HETATM   25  F   UNL     1     -40.634  57.160 -51.880  1.00  0.00    -0.169 F 
HETATM   26  F   UNL     1     -41.797  57.353 -50.058  1.00  0.00    -0.169 F 
HETATM   27  F   UNL     1     -40.255  55.832 -50.191  1.00  0.00    -0.169 F 
ENDBRANCH   4  24
BRANCH   6  28
HETATM   28  C   UNL     1     -40.401  52.472 -52.946  1.00  0.00    -0.035 A 
HETATM   29  C   UNL     1     -39.852  51.730 -51.887  1.00  0.00     0.009 A 
HETATM   30  C   UNL     1     -39.428  50.413 -52.085  1.00  0.00     0.001 A 
HETATM   31  C   UNL     1     -39.537  49.826 -53.344  1.00  0.00     0.000 A 
HETATM   32  C   UNL     1     -40.068  50.553 -54.406  1.00  0.00     0.001 A 
HETATM   33  C   UNL     1     -40.498  51.866 -54.210  1.00  0.00     0.009 A 
ENDBRANCH   6  28
TORSDOF 6
ENDMDL
MODEL 5
REMARK VINA RESULT:      -8.3      1.715      2.268
REMARK  6 active torsions:
REMARK  status: ('A' for Active; 'I' for Inactive)
REMARK    1  A    between atoms: O_2  and  C_3 
REMARK    2  A    between atoms: C_6  and  C_7 
REMARK    3  A    between atoms: C_7  and  N_8 
REMARK       I    between atoms: N_8  and  C_9 
REMARK    4  A    between atoms: C_9  and  C_10 
REMARK    5  A    between atoms: C_13  and  C_14 
REMARK    6  A    between atoms: C_19  and  C_20 
ROOT
HETATM    1  C   UNL     1     -42.744  58.302 -55.427  1.00  0.00     0.096 A 
HETATM    2  C   UNL     1     -42.238  57.551 -54.380  1.00  0.00     0.138 A 
HETATM    3  N   UNL     1     -42.791  58.089 -53.241  1.00  0.00    -0.240 N 
HETATM    4  C   UNL     1     -42.579  57.574 -51.901  1.00  0.00     0.221 C 
HETATM    5  C   UNL     1     -42.150  56.102 -51.977  1.00  0.00     0.066 C 
HETATM    6  C   UNL     1     -41.025  55.908 -53.005  1.00  0.00     0.118 C 
HETATM    7  N   UNL     1     -41.418  56.468 -54.302  1.00  0.00    -0.365 N 
HETATM    8  N   UNL     1     -43.682  59.063 -53.468  1.00  0.00    -0.181 NA
HETATM    9  C   UNL     1     -43.639  59.205 -54.796  1.00  0.00     0.160 A 
HETATM   10  H   UNL     1     -41.276  55.848 -55.097  1.00  0.00     0.161 HD
ENDROOT
BRANCH   1  11
HETATM   11  C   UNL     1     -42.496  58.239 -56.855  1.00  0.00     0.257 C 
HETATM   12  N   UNL     1     -42.824  57.050 -57.460  1.00  0.00    -0.352 N 
HETATM   13  H   UNL     1     -43.124  56.283 -56.877  1.00  0.00     0.163 HD
HETATM   14  O   UNL     1     -41.998  59.182 -57.461  1.00  0.00    -0.267 OA
BRANCH  12  15
HETATM   15  C   UNL     1     -42.646  56.832 -58.875  1.00  0.00     0.161 C 
BRANCH  15  16
HETATM   16  C   UNL     1     -43.963  56.635 -59.583  1.00  0.00    -0.040 A 
HETATM   17  C   UNL     1     -44.961  57.618 -59.509  1.00  0.00     0.011 A 
HETATM   18  C   UNL     1     -46.179  57.459 -60.178  1.00  0.00     0.037 A 
HETATM   19  C   UNL     1     -46.417  56.314 -60.936  1.00  0.00     0.068 A 
HETATM   20  C   UNL     1     -45.434  55.324 -61.000  1.00  0.00     0.037 A 
HETATM   21  C   UNL     1     -44.217  55.478 -60.328  1.00  0.00     0.011 A 
BRANCH  19  22
HETATM   22  O   UNL     1     -47.554  56.044 -61.647  1.00  0.00    -0.356 OA
HETATM   23  C   UNL     1     -48.329  57.164 -62.060  1.00  0.00     0.210 C 
ENDBRANCH  19  22
ENDBRANCH  15  16
ENDBRANCH  12  15
ENDBRANCH   1  11
BRANCH   4  24
HETATM   24  C   UNL     1     -41.577  58.441 -51.171  1.00  0.00     0.409 C 
HETATM   25  F   UNL     1     -40.717  59.066 -52.003  1.00  0.00    -0.169 F 
HETATM   26  F   UNL     1     -42.229  59.418 -50.487  1.00  0.00    -0.169 F 
HETATM   27  F   UNL     1     -40.848  57.760 -50.260  1.00  0.00    -0.169 F 
ENDBRANCH   4  24
BRANCH   6  28
HETATM   28  C   UNL     1     -40.652  54.444 -53.135  1.00  0.00    -0.035 A 
HETATM   29  C   UNL     1     -40.577  53.805 -54.384  1.00  0.00     0.009 A 
HETATM   30  C   UNL     1     -40.252  52.449 -54.473  1.00  0.00     0.001 A 
HETATM   31  C   UNL     1     -40.009  51.712 -53.315  1.00  0.00     0.000 A 
HETATM   32  C   UNL     1     -40.091  52.328 -52.070  1.00  0.00     0.001 A 
HETATM   33  C   UNL     1     -40.410  53.683 -51.978  1.00  0.00     0.009 A 
ENDBRANCH   6  28
TORSDOF 6
ENDMDL
MODEL 6
REMARK VINA RESULT:      -8.2      3.598      8.198
REMARK  6 active torsions:
REMARK  status: ('A' for Active; 'I' for Inactive)
REMARK    1  A    between atoms: O_2  and  C_3 
REMARK    2  A    between atoms: C_6  and  C_7 
REMARK    3  A    between atoms: C_7  and  N_8 
REMARK       I    between atoms: N_8  and  C_9 
REMARK    4  A    between atoms: C_9  and  C_10 
REMARK    5  A    between atoms: C_13  and  C_14 
REMARK    6  A    between atoms: C_19  and  C_20 
ROOT
HETATM    1  C   UNL     1     -42.770  56.126 -56.356  1.00  0.00     0.096 A 
HETATM    2  C   UNL     1     -42.511  57.388 -55.849  1.00  0.00     0.138 A 
HETATM    3  N   UNL     1     -43.132  58.263 -56.711  1.00  0.00    -0.240 N 
HETATM    4  C   UNL     1     -43.169  59.703 -56.535  1.00  0.00     0.221 C 
HETATM    5  C   UNL     1     -42.936  60.048 -55.057  1.00  0.00     0.066 C 
HETATM    6  C   UNL     1     -41.722  59.289 -54.499  1.00  0.00     0.118 C 
HETATM    7  N   UNL     1     -41.862  57.850 -54.747  1.00  0.00    -0.365 N 
HETATM    8  N   UNL     1     -43.846  57.671 -57.677  1.00  0.00    -0.181 NA
HETATM    9  C   UNL     1     -43.610  56.373 -57.473  1.00  0.00     0.160 A 
HETATM   10  H   UNL     1     -41.701  57.258 -53.934  1.00  0.00     0.161 HD
ENDROOT
BRANCH   1  11
HETATM   11  C   UNL     1     -42.347  54.811 -55.909  1.00  0.00     0.257 C 
HETATM   12  N   UNL     1     -41.019  54.700 -55.574  1.00  0.00    -0.352 N 
HETATM   13  H   UNL     1     -40.415  55.492 -55.740  1.00  0.00     0.163 HD
HETATM   14  O   UNL     1     -43.127  53.867 -55.867  1.00  0.00    -0.267 OA
BRANCH  12  15
HETATM   15  C   UNL     1     -40.445  53.463 -55.103  1.00  0.00     0.161 C 
BRANCH  15  16
HETATM   16  C   UNL     1     -40.443  53.383 -53.597  1.00  0.00    -0.040 A 
HETATM   17  C   UNL     1     -40.906  54.462 -52.829  1.00  0.00     0.011 A 
HETATM   18  C   UNL     1     -40.931  54.394 -51.432  1.00  0.00     0.037 A 
HETATM   19  C   UNL     1     -40.495  53.242 -50.780  1.00  0.00     0.068 A 
HETATM   20  C   UNL     1     -40.017  52.171 -51.539  1.00  0.00     0.037 A 
HETATM   21  C   UNL     1     -39.987  52.238 -52.935  1.00  0.00     0.011 A 
BRANCH  19  22
HETATM   22  O   UNL     1     -40.481  53.042 -49.427  1.00  0.00    -0.356 OA
HETATM   23  C   UNL     1     -40.252  54.188 -48.615  1.00  0.00     0.210 C 
ENDBRANCH  19  22
ENDBRANCH  15  16
ENDBRANCH  12  15
ENDBRANCH   1  11
BRANCH   4  24
HETATM   24  C   UNL     1     -42.164  60.358 -57.456  1.00  0.00     0.409 C 
HETATM   25  F   UNL     1     -42.715  60.803 -58.605  1.00  0.00    -0.169 F 
HETATM   26  F   UNL     1     -41.621  61.443 -56.843  1.00  0.00    -0.169 F 
HETATM   27  F   UNL     1     -41.133  59.548 -57.780  1.00  0.00    -0.169 F 
ENDBRANCH   4  24
BRANCH   6  28
HETATM   28  C   UNL     1     -41.535  59.571 -53.020  1.00  0.00    -0.035 A 
HETATM   29  C   UNL     1     -40.469  59.021 -52.290  1.00  0.00     0.009 A 
HETATM   30  C   UNL     1     -40.333  59.280 -50.924  1.00  0.00     0.001 A 
HETATM   31  C   UNL     1     -41.267  60.081 -50.269  1.00  0.00     0.000 A 
HETATM   32  C   UNL     1     -42.337  60.622 -50.976  1.00  0.00     0.001 A 
HETATM   33  C   UNL     1     -42.471  60.370 -52.342  1.00  0.00     0.009 A 
ENDBRANCH   6  28
TORSDOF 6
ENDMDL
MODEL 7
REMARK VINA RESULT:      -8.1      2.849      3.715
REMARK  6 active torsions:
REMARK  status: ('A' for Active; 'I' for Inactive)
REMARK    1  A    between atoms: O_2  and  C_3 
REMARK    2  A    between atoms: C_6  and  C_7 
REMARK    3  A    between atoms: C_7  and  N_8 
REMARK       I    between atoms: N_8  and  C_9 
REMARK    4  A    between atoms: C_9  and  C_10 
REMARK    5  A    between atoms: C_13  and  C_14 
REMARK    6  A    between atoms: C_19  and  C_20 
ROOT
HETATM    1  C   UNL     1     -42.268  60.200 -54.671  1.00  0.00     0.096 A 
HETATM    2  C   UNL     1     -41.784  59.145 -53.916  1.00  0.00     0.138 A 
HETATM    3  N   UNL     1     -41.894  59.551 -52.606  1.00  0.00    -0.240 N 
HETATM    4  C   UNL     1     -41.553  58.731 -51.459  1.00  0.00     0.221 C 
HETATM    5  C   UNL     1     -41.595  57.248 -51.855  1.00  0.00     0.066 C 
HETATM    6  C   UNL     1     -40.828  57.005 -53.164  1.00  0.00     0.118 C 
HETATM    7  N   UNL     1     -41.316  57.903 -54.215  1.00  0.00    -0.365 N 
HETATM    8  N   UNL     1     -42.494  60.739 -52.446  1.00  0.00    -0.181 NA
HETATM    9  C   UNL     1     -42.703  61.141 -53.702  1.00  0.00     0.160 A 
HETATM   10  H   UNL     1     -41.537  57.448 -55.099  1.00  0.00     0.161 HD
ENDROOT
BRANCH   1  11
HETATM   11  C   UNL     1     -42.367  60.379 -56.108  1.00  0.00     0.257 C 
HETATM   12  N   UNL     1     -43.645  60.414 -56.612  1.00  0.00    -0.352 N 
HETATM   13  H   UNL     1     -44.413  60.227 -55.984  1.00  0.00     0.163 HD
HETATM   14  O   UNL     1     -41.368  60.461 -56.814  1.00  0.00    -0.267 OA
BRANCH  12  15
HETATM   15  C   UNL     1     -43.913  60.594 -58.018  1.00  0.00     0.161 C 
BRANCH  15  16
HETATM   16  C   UNL     1     -43.913  59.283 -58.763  1.00  0.00    -0.040 A 
HETATM   17  C   UNL     1     -44.839  58.281 -58.433  1.00  0.00     0.011 A 
HETATM   18  C   UNL     1     -44.866  57.068 -59.129  1.00  0.00     0.037 A 
HETATM   19  C   UNL     1     -43.968  56.838 -60.170  1.00  0.00     0.068 A 
HETATM   20  C   UNL     1     -43.033  57.825 -60.492  1.00  0.00     0.037 A 
HETATM   21  C   UNL     1     -43.001  59.037 -59.795  1.00  0.00     0.011 A 
BRANCH  19  22
HETATM   22  O   UNL     1     -43.900  55.707 -60.937  1.00  0.00    -0.356 OA
HETATM   23  C   UNL     1     -45.131  55.052 -61.217  1.00  0.00     0.210 C 
ENDBRANCH  19  22
ENDBRANCH  15  16
ENDBRANCH  12  15
ENDBRANCH   1  11
BRANCH   4  24
HETATM   24  C   UNL     1     -40.208  59.154 -50.909  1.00  0.00     0.409 C 
HETATM   25  F   UNL     1     -39.340  59.529 -51.871  1.00  0.00    -0.169 F 
HETATM   26  F   UNL     1     -40.366  60.229 -50.091  1.00  0.00    -0.169 F 
HETATM   27  F   UNL     1     -39.613  58.195 -50.167  1.00  0.00    -0.169 F 
ENDBRANCH   4  24
BRANCH   6  28
HETATM   28  C   UNL     1     -40.931  55.555 -53.595  1.00  0.00    -0.035 A 
HETATM   29  C   UNL     1     -41.609  54.597 -52.822  1.00  0.00     0.009 A 
HETATM   30  C   UNL     1     -41.670  53.264 -53.233  1.00  0.00     0.001 A 
HETATM   31  C   UNL     1     -41.045  52.867 -54.414  1.00  0.00     0.000 A 
HETATM   32  C   UNL     1     -40.359  53.801 -55.184  1.00  0.00     0.001 A 
HETATM   33  C   UNL     1     -40.302  55.136 -54.780  1.00  0.00     0.009 A 
ENDBRANCH   6  28
TORSDOF 6
ENDMDL
MODEL 8
REMARK VINA RESULT:      -8.1      6.575     10.155
REMARK  6 active torsions:
REMARK  status: ('A' for Active; 'I' for Inactive)
REMARK    1  A    between atoms: O_2  and  C_3 
REMARK    2  A    between atoms: C_6  and  C_7 
REMARK    3  A    between atoms: C_7  and  N_8 
REMARK       I    between atoms: N_8  and  C_9 
REMARK    4  A    between atoms: C_9  and  C_10 
REMARK    5  A    between atoms: C_13  and  C_14 
REMARK    6  A    between atoms: C_19  and  C_20 
ROOT
HETATM    1  C   UNL     1     -44.132  60.239 -50.626  1.00  0.00     0.096 A 
HETATM    2  C   UNL     1     -43.299  59.334 -51.262  1.00  0.00     0.138 A 
HETATM    3  N   UNL     1     -42.610  60.068 -52.201  1.00  0.00    -0.240 N 
HETATM    4  C   UNL     1     -41.577  59.532 -53.068  1.00  0.00     0.221 C 
HETATM    5  C   UNL     1     -40.990  58.258 -52.443  1.00  0.00     0.066 C 
HETATM    6  C   UNL     1     -42.105  57.306 -51.982  1.00  0.00     0.118 C 
HETATM    7  N   UNL     1     -43.043  58.008 -51.101  1.00  0.00    -0.365 N 
HETATM    8  N   UNL     1     -42.859  61.384 -52.164  1.00  0.00    -0.181 NA
HETATM    9  C   UNL     1     -43.799  61.485 -51.220  1.00  0.00     0.160 A 
HETATM   10  H   UNL     1     -43.256  57.525 -50.229  1.00  0.00     0.161 HD
ENDROOT
BRANCH   1  11
HETATM   11  C   UNL     1     -45.122  60.054 -49.581  1.00  0.00     0.257 C 
HETATM   12  N   UNL     1     -44.869  60.716 -48.403  1.00  0.00    -0.352 N 
HETATM   13  H   UNL     1     -43.990  61.203 -48.308  1.00  0.00     0.163 HD
HETATM   14  O   UNL     1     -46.097  59.329 -49.743  1.00  0.00    -0.267 OA
BRANCH  12  15
HETATM   15  C   UNL     1     -45.760  60.641 -47.272  1.00  0.00     0.161 C 
BRANCH  15  16
HETATM   16  C   UNL     1     -45.315  61.540 -46.146  1.00  0.00    -0.040 A 
HETATM   17  C   UNL     1     -45.639  62.905 -46.159  1.00  0.00     0.011 A 
HETATM   18  C   UNL     1     -45.252  63.747 -45.111  1.00  0.00     0.037 A 
HETATM   19  C   UNL     1     -44.536  63.236 -44.030  1.00  0.00     0.068 A 
HETATM   20  C   UNL     1     -44.196  61.881 -44.020  1.00  0.00     0.037 A 
HETATM   21  C   UNL     1     -44.578  61.038 -45.068  1.00  0.00     0.011 A 
BRANCH  19  22
HETATM   22  O   UNL     1     -44.113  63.945 -42.940  1.00  0.00    -0.356 OA
HETATM   23  C   UNL     1     -42.861  63.566 -42.379  1.00  0.00     0.210 C 
ENDBRANCH  19  22
ENDBRANCH  15  16
ENDBRANCH  12  15
ENDBRANCH   1  11
BRANCH   4  24
HETATM   24  C   UNL     1     -42.140  59.301 -54.453  1.00  0.00     0.409 C 
HETATM   25  F   UNL     1     -43.484  59.182 -54.462  1.00  0.00    -0.169 F 
HETATM   26  F   UNL     1     -41.841  60.360 -55.251  1.00  0.00    -0.169 F 
HETATM   27  F   UNL     1     -41.625  58.209 -55.060  1.00  0.00    -0.169 F 
ENDBRANCH   4  24
BRANCH   6  28
HETATM   28  C   UNL     1     -41.527  56.082 -51.298  1.00  0.00    -0.035 A 
HETATM   29  C   UNL     1     -41.142  54.940 -52.021  1.00  0.00     0.009 A 
HETATM   30  C   UNL     1     -40.634  53.818 -51.362  1.00  0.00     0.001 A 
HETATM   31  C   UNL     1     -40.515  53.818 -49.973  1.00  0.00     0.000 A 
HETATM   32  C   UNL     1     -40.904  54.936 -49.242  1.00  0.00     0.001 A 
HETATM   33  C   UNL     1     -41.406  56.061 -49.898  1.00  0.00     0.009 A 
ENDBRANCH   6  28
TORSDOF 6
ENDMDL
MODEL 9
REMARK VINA RESULT:      -8.0      2.246      3.367
REMARK  6 active torsions:
REMARK  status: ('A' for Active; 'I' for Inactive)
REMARK    1  A    between atoms: O_2  and  C_3 
REMARK    2  A    between atoms: C_6  and  C_7 
REMARK    3  A    between atoms: C_7  and  N_8 
REMARK       I    between atoms: N_8  and  C_9 
REMARK    4  A    between atoms: C_9  and  C_10 
REMARK    5  A    between atoms: C_13  and  C_14 
REMARK    6  A    between atoms: C_19  and  C_20 
ROOT
HETATM    1  C   UNL     1     -44.411  58.663 -53.554  1.00  0.00     0.096 A 
HETATM    2  C   UNL     1     -43.265  58.004 -53.143  1.00  0.00     0.138 A 
HETATM    3  N   UNL     1     -43.000  58.484 -51.881  1.00  0.00    -0.240 N 
HETATM    4  C   UNL     1     -41.910  58.025 -51.039  1.00  0.00     0.221 C 
HETATM    5  C   UNL     1     -41.472  56.622 -51.483  1.00  0.00     0.066 C 
HETATM    6  C   UNL     1     -41.274  56.563 -53.006  1.00  0.00     0.118 C 
HETATM    7  N   UNL     1     -42.477  57.043 -53.694  1.00  0.00    -0.365 N 
HETATM    8  N   UNL     1     -43.927  59.325 -51.404  1.00  0.00    -0.181 NA
HETATM    9  C   UNL     1     -44.774  59.449 -52.429  1.00  0.00     0.160 A 
HETATM   10  H   UNL     1     -42.818  56.433 -54.436  1.00  0.00     0.161 HD
ENDROOT
BRANCH   1  11
HETATM   11  C   UNL     1     -45.148  58.610 -54.803  1.00  0.00     0.257 C 
HETATM   12  N   UNL     1     -45.044  59.725 -55.599  1.00  0.00    -0.352 N 
HETATM   13  H   UNL     1     -44.549  60.527 -55.237  1.00  0.00     0.163 HD
HETATM   14  O   UNL     1     -45.837  57.640 -55.100  1.00  0.00    -0.267 OA
BRANCH  12  15
HETATM   15  C   UNL     1     -45.708  59.824 -56.876  1.00  0.00     0.161 C 
BRANCH  15  16
HETATM   16  C   UNL     1     -45.182  58.813 -57.862  1.00  0.00    -0.040 A 
HETATM   17  C   UNL     1     -43.800  58.664 -58.056  1.00  0.00     0.011 A 
HETATM   18  C   UNL     1     -43.296  57.715 -58.951  1.00  0.00     0.037 A 
HETATM   19  C   UNL     1     -44.167  56.896 -59.667  1.00  0.00     0.068 A 
HETATM   20  C   UNL     1     -45.545  57.051 -59.491  1.00  0.00     0.037 A 
HETATM   21  C   UNL     1     -46.051  58.002 -58.599  1.00  0.00     0.011 A 
BRANCH  19  22
HETATM   22  O   UNL     1     -43.805  55.923 -60.557  1.00  0.00    -0.356 OA
HETATM   23  C   UNL     1     -44.710  54.836 -60.717  1.00  0.00     0.210 C 
ENDBRANCH  19  22
ENDBRANCH  15  16
ENDBRANCH  12  15
ENDBRANCH   1  11
BRANCH   4  24
HETATM   24  C   UNL     1     -40.781  59.031 -51.069  1.00  0.00     0.409 C 
HETATM   25  F   UNL     1     -40.923  60.009 -50.151  1.00  0.00    -0.169 F 
HETATM   26  F   UNL     1     -39.605  58.407 -50.788  1.00  0.00    -0.169 F 
HETATM   27  F   UNL     1     -40.623  59.616 -52.276  1.00  0.00    -0.169 F 
ENDBRANCH   4  24
BRANCH   6  28
HETATM   28  C   UNL     1     -40.914  55.160 -53.454  1.00  0.00    -0.035 A 
HETATM   29  C   UNL     1     -40.874  54.081 -52.556  1.00  0.00     0.009 A 
HETATM   30  C   UNL     1     -40.517  52.803 -52.993  1.00  0.00     0.001 A 
HETATM   31  C   UNL     1     -40.184  52.589 -54.329  1.00  0.00     0.000 A 
HETATM   32  C   UNL     1     -40.206  53.650 -55.229  1.00  0.00     0.001 A 
HETATM   33  C   UNL     1     -40.569  54.927 -54.797  1.00  0.00     0.009 A 
ENDBRANCH   6  28
TORSDOF 6
ENDMDL
MODEL 10
REMARK VINA RESULT:      -7.9      4.962      7.218
REMARK  6 active torsions:
REMARK  status: ('A' for Active; 'I' for Inactive)
REMARK    1  A    between atoms: O_2  and  C_3 
REMARK    2  A    between atoms: C_6  and  C_7 
REMARK    3  A    between atoms: C_7  and  N_8 
REMARK       I    between atoms: N_8  and  C_9 
REMARK    4  A    between atoms: C_9  and  C_10 
REMARK    5  A    between atoms: C_13  and  C_14 
REMARK    6  A    between atoms: C_19  and  C_20 
ROOT
HETATM    1  C   UNL     1     -41.857  58.288 -52.938  1.00  0.00     0.096 A 
HETATM    2  C   UNL     1     -41.773  57.001 -53.440  1.00  0.00     0.138 A 
HETATM    3  N   UNL     1     -41.846  57.136 -54.808  1.00  0.00    -0.240 N 
HETATM    4  C   UNL     1     -41.741  56.037 -55.750  1.00  0.00     0.221 C 
HETATM    5  C   UNL     1     -41.010  54.859 -55.088  1.00  0.00     0.066 C 
HETATM    6  C   UNL     1     -41.594  54.559 -53.698  1.00  0.00     0.118 C 
HETATM    7  N   UNL     1     -41.605  55.774 -52.877  1.00  0.00    -0.365 N 
HETATM    8  N   UNL     1     -41.876  58.405 -55.236  1.00  0.00    -0.181 NA
HETATM    9  C   UNL     1     -41.902  59.105 -54.098  1.00  0.00     0.160 A 
HETATM   10  H   UNL     1     -41.210  55.665 -51.945  1.00  0.00     0.161 HD
ENDROOT
BRANCH   1  11
HETATM   11  C   UNL     1     -41.878  58.782 -51.573  1.00  0.00     0.257 C 
HETATM   12  N   UNL     1     -42.401  60.041 -51.408  1.00  0.00    -0.352 N 
HETATM   13  H   UNL     1     -42.650  60.568 -52.232  1.00  0.00     0.163 HD
HETATM   14  O   UNL     1     -41.425  58.119 -50.646  1.00  0.00    -0.267 OA
BRANCH  12  15
HETATM   15  C   UNL     1     -42.500  60.669 -50.113  1.00  0.00     0.161 C 
BRANCH  15  16
HETATM   16  C   UNL     1     -43.833  61.348 -49.919  1.00  0.00    -0.040 A 
HETATM   17  C   UNL     1     -44.489  61.946 -51.005  1.00  0.00     0.011 A 
HETATM   18  C   UNL     1     -45.736  62.560 -50.845  1.00  0.00     0.037 A 
HETATM   19  C   UNL     1     -46.349  62.582 -49.594  1.00  0.00     0.068 A 
HETATM   20  C   UNL     1     -45.693  62.003 -48.504  1.00  0.00     0.037 A 
HETATM   21  C   UNL     1     -44.445  61.393 -48.661  1.00  0.00     0.011 A 
BRANCH  19  22
HETATM   22  O   UNL     1     -47.568  63.134 -49.306  1.00  0.00    -0.356 OA
HETATM   23  C   UNL     1     -47.900  64.336 -49.991  1.00  0.00     0.210 C 
ENDBRANCH  19  22
ENDBRANCH  15  16
ENDBRANCH  12  15
ENDBRANCH   1  11
BRANCH   4  24
HETATM   24  C   UNL     1     -43.117  55.664 -56.257  1.00  0.00     0.409 C 
HETATM   25  F   UNL     1     -44.105  56.024 -55.412  1.00  0.00    -0.169 F 
HETATM   26  F   UNL     1     -43.360  56.304 -57.431  1.00  0.00    -0.169 F 
HETATM   27  F   UNL     1     -43.250  54.343 -56.509  1.00  0.00    -0.169 F 
ENDBRANCH   4  24
BRANCH   6  28
HETATM   28  C   UNL     1     -40.825  53.446 -53.013  1.00  0.00    -0.035 A 
HETATM   29  C   UNL     1     -40.209  52.414 -53.740  1.00  0.00     0.009 A 
HETATM   30  C   UNL     1     -39.526  51.388 -53.081  1.00  0.00     0.001 A 
HETATM   31  C   UNL     1     -39.460  51.375 -51.689  1.00  0.00     0.000 A 
HETATM   32  C   UNL     1     -40.076  52.384 -50.955  1.00  0.00     0.001 A 
HETATM   33  C   UNL     1     -40.754  53.413 -51.610  1.00  0.00     0.009 A 
ENDBRANCH   6  28
TORSDOF 6
ENDMDL
