MODEL 1
REMARK VINA RESULT:      -9.0      0.000      0.000
REMARK  6 active torsions:
REMARK  status: ('A' for Active; 'I' for Inactive)
REMARK    1  A    between atoms: C_7  and  C_8 
REMARK    2  A    between atoms: C_8  and  O_9 
REMARK    3  A    between atoms: N_12  and  C_13 
REMARK    4  A    between atoms: C_13  and  C_14 
REMARK    5  A    between atoms: C_14  and  C_15 
REMARK    6  A    between atoms: C_15  and  C_16 
ROOT
HETATM    1  C   UNL     1     -42.025  57.379 -54.711  1.00  0.00     0.199 A 
HETATM    2  C   UNL     1     -41.147  56.510 -53.748  1.00  0.00     0.269 A 
HETATM    3  O   UNL     1     -40.083  55.958 -54.004  1.00  0.00    -0.269 OA
HETATM    4  N   UNL     1     -41.787  56.508 -52.494  1.00  0.00    -0.314 N 
HETATM    5  C   UNL     1     -42.997  57.218 -52.541  1.00  0.00     0.047 A 
HETATM    6  C   UNL     1     -43.198  57.735 -53.825  1.00  0.00     0.017 A 
HETATM    7  C   UNL     1     -43.921  57.426 -51.532  1.00  0.00     0.030 A 
HETATM    8  C   UNL     1     -45.067  58.169 -51.830  1.00  0.00     0.002 A 
HETATM    9  C   UNL     1     -45.271  58.694 -53.117  1.00  0.00     0.001 A 
HETATM   10  C   UNL     1     -44.329  58.484 -54.124  1.00  0.00     0.013 A 
ENDROOT
BRANCH   1  11
HETATM   11  C   UNL     1     -42.566  56.595 -55.888  1.00  0.00     0.025 A 
HETATM   12  C   UNL     1     -43.155  55.331 -55.851  1.00  0.00     0.016 A 
HETATM   13  C   UNL     1     -43.417  54.405 -54.714  1.00  0.00     0.069 C 
HETATM   14  N   UNL     1     -43.535  54.995 -57.124  1.00  0.00    -0.359 N 
HETATM   15  H   UNL     1     -44.002  54.138 -57.382  1.00  0.00     0.166 HD
HETATM   16  C   UNL     1     -43.205  55.988 -58.010  1.00  0.00     0.043 A 
HETATM   17  C   UNL     1     -42.594  57.006 -57.277  1.00  0.00     0.003 A 
HETATM   18  C   UNL     1     -43.409  56.053 -59.394  1.00  0.00     0.030 A 
HETATM   19  C   UNL     1     -42.160  58.149 -57.987  1.00  0.00     0.014 A 
HETATM   20  C   UNL     1     -42.354  58.233 -59.373  1.00  0.00     0.001 A 
HETATM   21  C   UNL     1     -42.972  57.198 -60.063  1.00  0.00     0.002 A 
ENDBRANCH   1  11
BRANCH   1  22
HETATM   22  O   UNL     1     -41.348  58.580 -55.079  1.00  0.00    -0.371 OA
HETATM   23  H   UNL     1     -40.799  58.363 -55.849  1.00  0.00     0.212 HD
ENDBRANCH   1  22
BRANCH   4  24
HETATM   24  C   UNL     1     -41.312  55.730 -51.371  1.00  0.00     0.133 C 
BRANCH  24  25
HETATM   25  C   UNL     1     -41.444  54.220 -51.561  1.00  0.00     0.025 C 
BRANCH  25  26
HETATM   26  C   UNL     1     -40.131  53.470 -51.324  1.00  0.00     0.040 C 
BRANCH  26  27
HETATM   27  C   UNL     1     -40.022  52.265 -52.227  1.00  0.00    -0.058 A 
HETATM   28  C   UNL     1     -40.379  52.355 -53.579  1.00  0.00     0.007 A 
HETATM   29  C   UNL     1     -40.312  51.233 -54.406  1.00  0.00     0.001 A 
HETATM   30  C   UNL     1     -39.887  50.010 -53.890  1.00  0.00     0.000 A 
HETATM   31  C   UNL     1     -39.528  49.909 -52.548  1.00  0.00     0.001 A 
HETATM   32  C   UNL     1     -39.596  51.030 -51.719  1.00  0.00     0.007 A 
ENDBRANCH  26  27
ENDBRANCH  25  26
ENDBRANCH  24  25
ENDBRANCH   4  24
TORSDOF 6
ENDMDL
MODEL 2
REMARK VINA RESULT:      -9.0      2.140      6.682
REMARK  6 active torsions:
REMARK  status: ('A' for Active; 'I' for Inactive)
REMARK    1  A    between atoms: C_7  and  C_8 
REMARK    2  A    between atoms: C_8  and  O_9 
REMARK    3  A    between atoms: N_12  and  C_13 
REMARK    4  A    between atoms: C_13  and  C_14 
REMARK    5  A    between atoms: C_14  and  C_15 
REMARK    6  A    between atoms: C_15  and  C_16 
ROOT
HETATM    1  C   UNL     1     -42.501  55.585 -51.723  1.00  0.00     0.199 A 
HETATM    2  C   UNL     1     -43.346  55.311 -53.013  1.00  0.00     0.269 A 
HETATM    3  O   UNL     1     -44.125  54.388 -53.211  1.00  0.00    -0.269 OA
HETATM    4  N   UNL     1     -43.079  56.363 -53.912  1.00  0.00    -0.314 N 
HETATM    5  C   UNL     1     -42.125  57.249 -53.387  1.00  0.00     0.047 A 
HETATM    6  C   UNL     1     -41.734  56.830 -52.111  1.00  0.00     0.017 A 
HETATM    7  C   UNL     1     -41.583  58.383 -53.965  1.00  0.00     0.030 A 
HETATM    8  C   UNL     1     -40.631  59.104 -53.238  1.00  0.00     0.002 A 
HETATM    9  C   UNL     1     -40.240  58.690 -51.955  1.00  0.00     0.001 A 
HETATM   10  C   UNL     1     -40.797  57.548 -51.378  1.00  0.00     0.013 A 
ENDROOT
BRANCH   1  11
HETATM   11  C   UNL     1     -41.487  54.498 -51.438  1.00  0.00     0.025 A 
HETATM   12  C   UNL     1     -40.918  54.187 -50.202  1.00  0.00     0.016 A 
HETATM   13  C   UNL     1     -41.112  54.792 -48.855  1.00  0.00     0.069 C 
HETATM   14  N   UNL     1     -40.075  53.121 -50.372  1.00  0.00    -0.359 N 
HETATM   15  H   UNL     1     -39.544  52.678 -49.635  1.00  0.00     0.166 HD
HETATM   16  C   UNL     1     -40.051  52.720 -51.683  1.00  0.00     0.043 A 
HETATM   17  C   UNL     1     -40.919  53.558 -52.384  1.00  0.00     0.003 A 
HETATM   18  C   UNL     1     -39.331  51.681 -52.286  1.00  0.00     0.030 A 
HETATM   19  C   UNL     1     -41.058  53.335 -53.773  1.00  0.00     0.014 A 
HETATM   20  C   UNL     1     -40.346  52.301 -54.395  1.00  0.00     0.001 A 
HETATM   21  C   UNL     1     -39.496  51.485 -53.658  1.00  0.00     0.002 A 
ENDBRANCH   1  11
BRANCH   1  22
HETATM   22  O   UNL     1     -43.343  55.893 -50.614  1.00  0.00    -0.371 OA
HETATM   23  H   UNL     1     -43.598  56.826 -50.709  1.00  0.00     0.212 HD
ENDBRANCH   1  22
BRANCH   4  24
HETATM   24  C   UNL     1     -43.615  56.403 -55.254  1.00  0.00     0.133 C 
BRANCH  24  25
HETATM   25  C   UNL     1     -42.734  55.713 -56.296  1.00  0.00     0.025 C 
BRANCH  25  26
HETATM   26  C   UNL     1     -42.590  56.521 -57.587  1.00  0.00     0.040 C 
BRANCH  26  27
HETATM   27  C   UNL     1     -43.720  56.225 -58.544  1.00  0.00    -0.058 A 
HETATM   28  C   UNL     1     -44.731  57.170 -58.763  1.00  0.00     0.007 A 
HETATM   29  C   UNL     1     -45.795  56.884 -59.620  1.00  0.00     0.001 A 
HETATM   30  C   UNL     1     -45.858  55.651 -60.267  1.00  0.00     0.000 A 
HETATM   31  C   UNL     1     -44.857  54.705 -60.059  1.00  0.00     0.001 A 
HETATM   32  C   UNL     1     -43.793  54.989 -59.200  1.00  0.00     0.007 A 
ENDBRANCH  26  27
ENDBRANCH  25  26
ENDBRANCH  24  25
ENDBRANCH   4  24
TORSDOF 6
ENDMDL
MODEL 3
REMARK VINA RESULT:      -8.8      1.780      2.740
REMARK  6 active torsions:
REMARK  status: ('A' for Active; 'I' for Inactive)
REMARK    1  A    between atoms: C_7  and  C_8 
REMARK    2  A    between atoms: C_8  and  O_9 
REMARK    3  A    between atoms: N_12  and  C_13 
REMARK    4  A    between atoms: C_13  and  C_14 
REMARK    5  A    between atoms: C_14  and  C_15 
REMARK    6  A    between atoms: C_15  and  C_16 
ROOT
HETATM    1  C   UNL     1     -42.005  56.156 -53.892  1.00  0.00     0.199 A 
HETATM    2  C   UNL     1     -42.402  54.965 -52.955  1.00  0.00     0.269 A 
HETATM    3  O   UNL     1     -42.974  53.928 -53.270  1.00  0.00    -0.269 OA
HETATM    4  N   UNL     1     -41.937  55.283 -51.664  1.00  0.00    -0.314 N 
HETATM    5  C   UNL     1     -41.342  56.553 -51.638  1.00  0.00     0.047 A 
HETATM    6  C   UNL     1     -41.372  57.122 -52.916  1.00  0.00     0.017 A 
HETATM    7  C   UNL     1     -40.790  57.231 -50.565  1.00  0.00     0.030 A 
HETATM    8  C   UNL     1     -40.260  58.505 -50.792  1.00  0.00     0.002 A 
HETATM    9  C   UNL     1     -40.283  59.077 -52.074  1.00  0.00     0.001 A 
HETATM   10  C   UNL     1     -40.836  58.382 -53.150  1.00  0.00     0.013 A 
ENDROOT
BRANCH   1  11
HETATM   11  C   UNL     1     -43.202  56.850 -54.506  1.00  0.00     0.025 A 
HETATM   12  C   UNL     1     -44.265  57.445 -53.825  1.00  0.00     0.016 A 
HETATM   13  C   UNL     1     -44.544  57.574 -52.368  1.00  0.00     0.069 C 
HETATM   14  N   UNL     1     -45.120  57.985 -54.748  1.00  0.00    -0.359 N 
HETATM   15  H   UNL     1     -45.966  58.492 -54.528  1.00  0.00     0.166 HD
HETATM   16  C   UNL     1     -44.670  57.757 -56.023  1.00  0.00     0.043 A 
HETATM   17  C   UNL     1     -43.474  57.046 -55.916  1.00  0.00     0.003 A 
HETATM   18  C   UNL     1     -45.234  58.132 -57.249  1.00  0.00     0.030 A 
HETATM   19  C   UNL     1     -42.818  56.691 -57.117  1.00  0.00     0.014 A 
HETATM   20  C   UNL     1     -43.367  57.057 -58.353  1.00  0.00     0.001 A 
HETATM   21  C   UNL     1     -44.558  57.770 -58.415  1.00  0.00     0.002 A 
ENDBRANCH   1  11
BRANCH   1  22
HETATM   22  O   UNL     1     -41.020  55.754 -54.843  1.00  0.00    -0.371 OA
HETATM   23  H   UNL     1     -41.429  55.065 -55.391  1.00  0.00     0.212 HD
ENDBRANCH   1  22
BRANCH   4  24
HETATM   24  C   UNL     1     -42.201  54.453 -50.509  1.00  0.00     0.133 C 
BRANCH  24  25
HETATM   25  C   UNL     1     -41.132  53.394 -50.247  1.00  0.00     0.025 C 
BRANCH  25  26
HETATM   26  C   UNL     1     -39.989  53.433 -51.263  1.00  0.00     0.040 C 
BRANCH  26  27
HETATM   27  C   UNL     1     -39.911  52.144 -52.046  1.00  0.00    -0.058 A 
HETATM   28  C   UNL     1     -39.686  50.927 -51.390  1.00  0.00     0.007 A 
HETATM   29  C   UNL     1     -39.578  49.740 -52.115  1.00  0.00     0.001 A 
HETATM   30  C   UNL     1     -39.695  49.758 -53.505  1.00  0.00     0.000 A 
HETATM   31  C   UNL     1     -39.921  50.962 -54.167  1.00  0.00     0.001 A 
HETATM   32  C   UNL     1     -40.028  52.151 -53.443  1.00  0.00     0.007 A 
ENDBRANCH  26  27
ENDBRANCH  25  26
ENDBRANCH  24  25
ENDBRANCH   4  24
TORSDOF 6
ENDMDL
MODEL 4
REMARK VINA RESULT:      -8.6      2.535      5.252
REMARK  6 active torsions:
REMARK  status: ('A' for Active; 'I' for Inactive)
REMARK    1  A    between atoms: C_7  and  C_8 
REMARK    2  A    between atoms: C_8  and  O_9 
REMARK    3  A    between atoms: N_12  and  C_13 
REMARK    4  A    between atoms: C_13  and  C_14 
REMARK    5  A    between atoms: C_14  and  C_15 
REMARK    6  A    between atoms: C_15  and  C_16 
ROOT
HETATM    1  C   UNL     1     -44.406  57.557 -51.752  1.00  0.00     0.199 A 
HETATM    2  C   UNL     1     -43.730  56.145 -51.695  1.00  0.00     0.269 A 
HETATM    3  O   UNL     1     -43.429  55.502 -50.696  1.00  0.00    -0.269 OA
HETATM    4  N   UNL     1     -43.563  55.714 -53.025  1.00  0.00    -0.314 N 
HETATM    5  C   UNL     1     -43.993  56.693 -53.934  1.00  0.00     0.047 A 
HETATM    6  C   UNL     1     -44.479  57.807 -53.241  1.00  0.00     0.017 A 
HETATM    7  C   UNL     1     -43.973  56.662 -55.317  1.00  0.00     0.030 A 
HETATM    8  C   UNL     1     -44.454  57.779 -56.009  1.00  0.00     0.002 A 
HETATM    9  C   UNL     1     -44.948  58.897 -55.317  1.00  0.00     0.001 A 
HETATM   10  C   UNL     1     -44.969  58.915 -53.923  1.00  0.00     0.013 A 
ENDROOT
BRANCH   1  11
HETATM   11  C   UNL     1     -43.547  58.648 -51.149  1.00  0.00     0.025 A 
HETATM   12  C   UNL     1     -43.992  59.793 -50.487  1.00  0.00     0.016 A 
HETATM   13  C   UNL     1     -45.367  60.278 -50.185  1.00  0.00     0.069 C 
HETATM   14  N   UNL     1     -42.896  60.503 -50.071  1.00  0.00    -0.359 N 
HETATM   15  H   UNL     1     -42.930  61.368 -49.550  1.00  0.00     0.166 HD
HETATM   16  C   UNL     1     -41.737  59.877 -50.448  1.00  0.00     0.043 A 
HETATM   17  C   UNL     1     -42.099  58.714 -51.128  1.00  0.00     0.003 A 
HETATM   18  C   UNL     1     -40.406  60.257 -50.230  1.00  0.00     0.030 A 
HETATM   19  C   UNL     1     -41.057  57.896 -51.620  1.00  0.00     0.014 A 
HETATM   20  C   UNL     1     -39.720  58.258 -51.412  1.00  0.00     0.001 A 
HETATM   21  C   UNL     1     -39.402  59.423 -50.724  1.00  0.00     0.002 A 
ENDBRANCH   1  11
BRANCH   1  22
HETATM   22  O   UNL     1     -45.733  57.512 -51.229  1.00  0.00    -0.371 OA
HETATM   23  H   UNL     1     -46.224  56.877 -51.774  1.00  0.00     0.212 HD
ENDBRANCH   1  22
BRANCH   4  24
HETATM   24  C   UNL     1     -42.886  54.484 -53.373  1.00  0.00     0.133 C 
BRANCH  24  25
HETATM   25  C   UNL     1     -41.379  54.641 -53.579  1.00  0.00     0.025 C 
BRANCH  25  26
HETATM   26  C   UNL     1     -40.553  54.008 -52.458  1.00  0.00     0.040 C 
BRANCH  26  27
HETATM   27  C   UNL     1     -40.259  52.556 -52.751  1.00  0.00    -0.058 A 
HETATM   28  C   UNL     1     -39.802  51.705 -51.735  1.00  0.00     0.007 A 
HETATM   29  C   UNL     1     -39.495  50.373 -52.013  1.00  0.00     0.001 A 
HETATM   30  C   UNL     1     -39.643  49.876 -53.307  1.00  0.00     0.000 A 
HETATM   31  C   UNL     1     -40.099  50.713 -54.324  1.00  0.00     0.001 A 
HETATM   32  C   UNL     1     -40.405  52.047 -54.048  1.00  0.00     0.007 A 
ENDBRANCH  26  27
ENDBRANCH  25  26
ENDBRANCH  24  25
ENDBRANCH   4  24
TORSDOF 6
ENDMDL
MODEL 5
REMARK VINA RESULT:      -8.5      2.335      6.978
REMARK  6 active torsions:
REMARK  status: ('A' for Active; 'I' for Inactive)
REMARK    1  A    between atoms: C_7  and  C_8 
REMARK    2  A    between atoms: C_8  and  O_9 
REMARK    3  A    between atoms: N_12  and  C_13 
REMARK    4  A    between atoms: C_13  and  C_14 
REMARK    5  A    between atoms: C_14  and  C_15 
REMARK    6  A    between atoms: C_15  and  C_16 
ROOT
HETATM    1  C   UNL     1     -42.345  55.550 -51.695  1.00  0.00     0.199 A 
HETATM    2  C   UNL     1     -43.008  55.417 -53.108  1.00  0.00     0.269 A 
HETATM    3  O   UNL     1     -43.767  54.538 -53.496  1.00  0.00    -0.269 OA
HETATM    4  N   UNL     1     -42.602  56.537 -53.861  1.00  0.00    -0.314 N 
HETATM    5  C   UNL     1     -41.716  57.345 -53.131  1.00  0.00     0.047 A 
HETATM    6  C   UNL     1     -41.513  56.802 -51.858  1.00  0.00     0.017 A 
HETATM    7  C   UNL     1     -41.082  58.510 -53.523  1.00  0.00     0.030 A 
HETATM    8  C   UNL     1     -40.228  59.135 -52.609  1.00  0.00     0.002 A 
HETATM    9  C   UNL     1     -40.025  58.597 -51.328  1.00  0.00     0.001 A 
HETATM   10  C   UNL     1     -40.674  57.425 -50.941  1.00  0.00     0.013 A 
ENDROOT
BRANCH   1  11
HETATM   11  C   UNL     1     -41.398  54.413 -51.376  1.00  0.00     0.025 A 
HETATM   12  C   UNL     1     -40.915  54.054 -50.117  1.00  0.00     0.016 A 
HETATM   13  C   UNL     1     -41.158  54.643 -48.771  1.00  0.00     0.069 C 
HETATM   14  N   UNL     1     -40.111  52.954 -50.262  1.00  0.00    -0.359 N 
HETATM   15  H   UNL     1     -39.643  52.475 -49.506  1.00  0.00     0.166 HD
HETATM   16  C   UNL     1     -40.031  52.577 -51.578  1.00  0.00     0.043 A 
HETATM   17  C   UNL     1     -40.819  53.466 -52.309  1.00  0.00     0.003 A 
HETATM   18  C   UNL     1     -39.324  51.517 -52.161  1.00  0.00     0.030 A 
HETATM   19  C   UNL     1     -40.889  53.275 -53.708  1.00  0.00     0.014 A 
HETATM   20  C   UNL     1     -40.190  52.221 -54.310  1.00  0.00     0.001 A 
HETATM   21  C   UNL     1     -39.420  51.354 -53.544  1.00  0.00     0.002 A 
ENDBRANCH   1  11
BRANCH   1  22
HETATM   22  O   UNL     1     -43.328  55.782 -50.687  1.00  0.00    -0.371 OA
HETATM   23  H   UNL     1     -43.422  56.745 -50.608  1.00  0.00     0.212 HD
ENDBRANCH   1  22
BRANCH   4  24
HETATM   24  C   UNL     1     -42.946  56.712 -55.254  1.00  0.00     0.133 C 
BRANCH  24  25
HETATM   25  C   UNL     1     -43.864  57.905 -55.523  1.00  0.00     0.025 C 
BRANCH  25  26
HETATM   26  C   UNL     1     -45.053  57.973 -54.563  1.00  0.00     0.040 C 
BRANCH  26  27
HETATM   27  C   UNL     1     -44.765  58.897 -53.404  1.00  0.00    -0.058 A 
HETATM   28  C   UNL     1     -45.005  58.482 -52.087  1.00  0.00     0.007 A 
HETATM   29  C   UNL     1     -44.774  59.347 -51.017  1.00  0.00     0.001 A 
HETATM   30  C   UNL     1     -44.298  60.637 -51.253  1.00  0.00     0.000 A 
HETATM   31  C   UNL     1     -44.053  61.059 -52.557  1.00  0.00     0.001 A 
HETATM   32  C   UNL     1     -44.286  60.195 -53.629  1.00  0.00     0.007 A 
ENDBRANCH  26  27
ENDBRANCH  25  26
ENDBRANCH  24  25
ENDBRANCH   4  24
TORSDOF 6
ENDMDL
MODEL 6
REMARK VINA RESULT:      -8.5      2.171      5.290
REMARK  6 active torsions:
REMARK  status: ('A' for Active; 'I' for Inactive)
REMARK    1  A    between atoms: C_7  and  C_8 
REMARK    2  A    between atoms: C_8  and  O_9 
REMARK    3  A    between atoms: N_12  and  C_13 
REMARK    4  A    between atoms: C_13  and  C_14 
REMARK    5  A    between atoms: C_14  and  C_15 
REMARK    6  A    between atoms: C_15  and  C_16 
ROOT
HETATM    1  C   UNL     1     -43.408  57.149 -52.641  1.00  0.00     0.199 A 
HETATM    2  C   UNL     1     -42.234  56.112 -52.667  1.00  0.00     0.269 A 
HETATM    3  O   UNL     1     -41.639  55.635 -51.709  1.00  0.00    -0.269 OA
HETATM    4  N   UNL     1     -42.004  55.784 -54.018  1.00  0.00    -0.314 N 
HETATM    5  C   UNL     1     -42.842  56.520 -54.869  1.00  0.00     0.047 A 
HETATM    6  C   UNL     1     -43.675  57.354 -54.115  1.00  0.00     0.017 A 
HETATM    7  C   UNL     1     -42.907  56.503 -56.251  1.00  0.00     0.030 A 
HETATM    8  C   UNL     1     -43.831  57.345 -56.878  1.00  0.00     0.002 A 
HETATM    9  C   UNL     1     -44.672  58.180 -56.126  1.00  0.00     0.001 A 
HETATM   10  C   UNL     1     -44.603  58.184 -54.732  1.00  0.00     0.013 A 
ENDROOT
BRANCH   1  11
HETATM   11  C   UNL     1     -43.002  58.487 -52.062  1.00  0.00     0.025 A 
HETATM   12  C   UNL     1     -41.789  59.149 -52.254  1.00  0.00     0.016 A 
HETATM   13  C   UNL     1     -40.581  58.770 -53.037  1.00  0.00     0.069 C 
HETATM   14  N   UNL     1     -41.838  60.342 -51.583  1.00  0.00    -0.359 N 
HETATM   15  H   UNL     1     -41.097  61.029 -51.567  1.00  0.00     0.166 HD
HETATM   16  C   UNL     1     -43.038  60.491 -50.937  1.00  0.00     0.043 A 
HETATM   17  C   UNL     1     -43.795  59.350 -51.209  1.00  0.00     0.003 A 
HETATM   18  C   UNL     1     -43.500  61.549 -50.145  1.00  0.00     0.030 A 
HETATM   19  C   UNL     1     -45.086  59.275 -50.639  1.00  0.00     0.014 A 
HETATM   20  C   UNL     1     -45.567  60.324 -49.843  1.00  0.00     0.001 A 
HETATM   21  C   UNL     1     -44.782  61.445 -49.602  1.00  0.00     0.002 A 
ENDBRANCH   1  11
BRANCH   1  22
HETATM   22  O   UNL     1     -44.573  56.588 -52.038  1.00  0.00    -0.371 OA
HETATM   23  H   UNL     1     -45.321  56.816 -52.615  1.00  0.00     0.212 HD
ENDBRANCH   1  22
BRANCH   4  24
HETATM   24  C   UNL     1     -40.927  54.917 -54.442  1.00  0.00     0.133 C 
BRANCH  24  25
HETATM   25  C   UNL     1     -41.277  53.430 -54.412  1.00  0.00     0.025 C 
BRANCH  25  26
HETATM   26  C   UNL     1     -40.055  52.525 -54.583  1.00  0.00     0.040 C 
BRANCH  26  27
HETATM   27  C   UNL     1     -39.881  51.614 -53.390  1.00  0.00    -0.058 A 
HETATM   28  C   UNL     1     -39.701  50.236 -53.569  1.00  0.00     0.007 A 
HETATM   29  C   UNL     1     -39.576  49.389 -52.468  1.00  0.00     0.001 A 
HETATM   30  C   UNL     1     -39.628  49.911 -51.176  1.00  0.00     0.000 A 
HETATM   31  C   UNL     1     -39.805  51.280 -50.986  1.00  0.00     0.001 A 
HETATM   32  C   UNL     1     -39.932  52.128 -52.088  1.00  0.00     0.007 A 
ENDBRANCH  26  27
ENDBRANCH  25  26
ENDBRANCH  24  25
ENDBRANCH   4  24
TORSDOF 6
ENDMDL
MODEL 7
REMARK VINA RESULT:      -8.5      1.568      2.532
REMARK  6 active torsions:
REMARK  status: ('A' for Active; 'I' for Inactive)
REMARK    1  A    between atoms: C_7  and  C_8 
REMARK    2  A    between atoms: C_8  and  O_9 
REMARK    3  A    between atoms: N_12  and  C_13 
REMARK    4  A    between atoms: C_13  and  C_14 
REMARK    5  A    between atoms: C_14  and  C_15 
REMARK    6  A    between atoms: C_15  and  C_16 
ROOT
HETATM    1  C   UNL     1     -42.165  59.311 -53.845  1.00  0.00     0.199 A 
HETATM    2  C   UNL     1     -41.223  58.347 -53.046  1.00  0.00     0.269 A 
HETATM    3  O   UNL     1     -40.054  58.076 -53.290  1.00  0.00    -0.269 OA
HETATM    4  N   UNL     1     -41.961  57.867 -51.947  1.00  0.00    -0.314 N 
HETATM    5  C   UNL     1     -43.277  58.355 -51.967  1.00  0.00     0.047 A 
HETATM    6  C   UNL     1     -43.459  59.192 -53.073  1.00  0.00     0.017 A 
HETATM    7  C   UNL     1     -44.311  58.100 -51.084  1.00  0.00     0.030 A 
HETATM    8  C   UNL     1     -45.549  58.703 -51.325  1.00  0.00     0.002 A 
HETATM    9  C   UNL     1     -45.735  59.549 -52.430  1.00  0.00     0.001 A 
HETATM   10  C   UNL     1     -44.684  59.805 -53.311  1.00  0.00     0.013 A 
ENDROOT
BRANCH   1  11
HETATM   11  C   UNL     1     -42.434  58.839 -55.258  1.00  0.00     0.025 A 
HETATM   12  C   UNL     1     -42.520  59.632 -56.403  1.00  0.00     0.016 A 
HETATM   13  C   UNL     1     -42.388  61.104 -56.587  1.00  0.00     0.069 C 
HETATM   14  N   UNL     1     -42.744  58.813 -57.478  1.00  0.00    -0.359 N 
HETATM   15  H   UNL     1     -42.831  59.124 -58.435  1.00  0.00     0.166 HD
HETATM   16  C   UNL     1     -42.825  57.502 -57.085  1.00  0.00     0.043 A 
HETATM   17  C   UNL     1     -42.640  57.475 -55.703  1.00  0.00     0.003 A 
HETATM   18  C   UNL     1     -43.043  56.352 -57.855  1.00  0.00     0.030 A 
HETATM   19  C   UNL     1     -42.685  56.215 -55.065  1.00  0.00     0.014 A 
HETATM   20  C   UNL     1     -42.902  55.052 -55.816  1.00  0.00     0.001 A 
HETATM   21  C   UNL     1     -43.077  55.123 -57.193  1.00  0.00     0.002 A 
ENDBRANCH   1  11
BRANCH   1  22
HETATM   22  O   UNL     1     -41.705  60.659 -53.765  1.00  0.00    -0.371 OA
HETATM   23  H   UNL     1     -42.318  61.126 -53.174  1.00  0.00     0.212 HD
ENDBRANCH   1  22
BRANCH   4  24
HETATM   24  C   UNL     1     -41.446  56.876 -51.028  1.00  0.00     0.133 C 
BRANCH  24  25
HETATM   25  C   UNL     1     -41.713  55.433 -51.455  1.00  0.00     0.025 C 
BRANCH  25  26
HETATM   26  C   UNL     1     -40.650  54.455 -50.953  1.00  0.00     0.040 C 
BRANCH  26  27
HETATM   27  C   UNL     1     -40.347  53.400 -51.990  1.00  0.00    -0.058 A 
HETATM   28  C   UNL     1     -40.645  53.626 -53.341  1.00  0.00     0.007 A 
HETATM   29  C   UNL     1     -40.399  52.638 -54.295  1.00  0.00     0.001 A 
HETATM   30  C   UNL     1     -39.852  51.415 -53.910  1.00  0.00     0.000 A 
HETATM   31  C   UNL     1     -39.551  51.180 -52.570  1.00  0.00     0.001 A 
HETATM   32  C   UNL     1     -39.798  52.167 -51.613  1.00  0.00     0.007 A 
ENDBRANCH  26  27
ENDBRANCH  25  26
ENDBRANCH  24  25
ENDBRANCH   4  24
TORSDOF 6
ENDMDL
MODEL 8
REMARK VINA RESULT:      -8.3      2.385      4.641
REMARK  6 active torsions:
REMARK  status: ('A' for Active; 'I' for Inactive)
REMARK    1  A    between atoms: C_7  and  C_8 
REMARK    2  A    between atoms: C_8  and  O_9 
REMARK    3  A    between atoms: N_12  and  C_13 
REMARK    4  A    between atoms: C_13  and  C_14 
REMARK    5  A    between atoms: C_14  and  C_15 
REMARK    6  A    between atoms: C_15  and  C_16 
ROOT
HETATM    1  C   UNL     1     -42.518  57.516 -52.833  1.00  0.00     0.199 A 
HETATM    2  C   UNL     1     -42.096  56.861 -54.193  1.00  0.00     0.269 A 
HETATM    3  O   UNL     1     -41.613  57.419 -55.170  1.00  0.00    -0.269 OA
HETATM    4  N   UNL     1     -42.337  55.478 -54.076  1.00  0.00    -0.314 N 
HETATM    5  C   UNL     1     -42.914  55.167 -52.835  1.00  0.00     0.047 A 
HETATM    6  C   UNL     1     -43.062  56.329 -52.071  1.00  0.00     0.017 A 
HETATM    7  C   UNL     1     -43.317  53.935 -52.350  1.00  0.00     0.030 A 
HETATM    8  C   UNL     1     -43.879  53.881 -51.071  1.00  0.00     0.002 A 
HETATM    9  C   UNL     1     -44.025  55.045 -50.299  1.00  0.00     0.001 A 
HETATM   10  C   UNL     1     -43.609  56.281 -50.795  1.00  0.00     0.013 A 
ENDROOT
BRANCH   1  11
HETATM   11  C   UNL     1     -43.645  58.516 -52.983  1.00  0.00     0.025 A 
HETATM   12  C   UNL     1     -44.738  58.422 -53.845  1.00  0.00     0.016 A 
HETATM   13  C   UNL     1     -45.116  57.376 -54.835  1.00  0.00     0.069 C 
HETATM   14  N   UNL     1     -45.538  59.516 -53.648  1.00  0.00    -0.359 N 
HETATM   15  H   UNL     1     -46.407  59.693 -54.131  1.00  0.00     0.166 HD
HETATM   16  C   UNL     1     -45.006  60.344 -52.692  1.00  0.00     0.043 A 
HETATM   17  C   UNL     1     -43.820  59.756 -52.253  1.00  0.00     0.003 A 
HETATM   18  C   UNL     1     -45.495  61.557 -52.191  1.00  0.00     0.030 A 
HETATM   19  C   UNL     1     -43.085  60.439 -51.257  1.00  0.00     0.014 A 
HETATM   20  C   UNL     1     -43.557  61.654 -50.743  1.00  0.00     0.001 A 
HETATM   21  C   UNL     1     -44.747  62.202 -51.205  1.00  0.00     0.002 A 
ENDBRANCH   1  11
BRANCH   1  22
HETATM   22  O   UNL     1     -41.382  58.027 -52.136  1.00  0.00    -0.371 OA
HETATM   23  H   UNL     1     -41.496  57.782 -51.203  1.00  0.00     0.212 HD
ENDBRANCH   1  22
BRANCH   4  24
HETATM   24  C   UNL     1     -42.151  54.554 -55.173  1.00  0.00     0.133 C 
BRANCH  24  25
HETATM   25  C   UNL     1     -40.766  53.910 -55.215  1.00  0.00     0.025 C 
BRANCH  25  26
HETATM   26  C   UNL     1     -40.131  53.766 -53.831  1.00  0.00     0.040 C 
BRANCH  26  27
HETATM   27  C   UNL     1     -39.965  52.312 -53.456  1.00  0.00    -0.058 A 
HETATM   28  C   UNL     1     -40.113  51.308 -54.423  1.00  0.00     0.007 A 
HETATM   29  C   UNL     1     -39.996  49.963 -54.071  1.00  0.00     0.001 A 
HETATM   30  C   UNL     1     -39.728  49.608 -52.749  1.00  0.00     0.000 A 
HETATM   31  C   UNL     1     -39.577  50.598 -51.781  1.00  0.00     0.001 A 
HETATM   32  C   UNL     1     -39.696  51.944 -52.131  1.00  0.00     0.007 A 
ENDBRANCH  26  27
ENDBRANCH  25  26
ENDBRANCH  24  25
ENDBRANCH   4  24
TORSDOF 6
ENDMDL
MODEL 9
REMARK VINA RESULT:      -8.2      2.255      4.370
REMARK  6 active torsions:
REMARK  status: ('A' for Active; 'I' for Inactive)
REMARK    1  A    between atoms: C_7  and  C_8 
REMARK    2  A    between atoms: C_8  and  O_9 
REMARK    3  A    between atoms: N_12  and  C_13 
REMARK    4  A    between atoms: C_13  and  C_14 
REMARK    5  A    between atoms: C_14  and  C_15 
REMARK    6  A    between atoms: C_15  and  C_16 
ROOT
HETATM    1  C   UNL     1     -43.867  57.146 -52.878  1.00  0.00     0.199 A 
HETATM    2  C   UNL     1     -43.319  56.213 -51.745  1.00  0.00     0.269 A 
HETATM    3  O   UNL     1     -43.389  56.389 -50.535  1.00  0.00    -0.269 OA
HETATM    4  N   UNL     1     -42.756  55.086 -52.376  1.00  0.00    -0.314 N 
HETATM    5  C   UNL     1     -42.820  55.201 -53.773  1.00  0.00     0.047 A 
HETATM    6  C   UNL     1     -43.445  56.402 -54.125  1.00  0.00     0.017 A 
HETATM    7  C   UNL     1     -42.359  54.324 -54.739  1.00  0.00     0.030 A 
HETATM    8  C   UNL     1     -42.534  54.670 -56.082  1.00  0.00     0.002 A 
HETATM    9  C   UNL     1     -43.165  55.872 -56.440  1.00  0.00     0.001 A 
HETATM   10  C   UNL     1     -43.633  56.746 -55.459  1.00  0.00     0.013 A 
ENDROOT
BRANCH   1  11
HETATM   11  C   UNL     1     -43.192  58.501 -52.906  1.00  0.00     0.025 A 
HETATM   12  C   UNL     1     -41.850  58.772 -52.640  1.00  0.00     0.016 A 
HETATM   13  C   UNL     1     -40.726  57.872 -52.260  1.00  0.00     0.069 C 
HETATM   14  N   UNL     1     -41.641  60.116 -52.804  1.00  0.00    -0.359 N 
HETATM   15  H   UNL     1     -40.753  60.583 -52.690  1.00  0.00     0.166 HD
HETATM   16  C   UNL     1     -42.804  60.751 -53.157  1.00  0.00     0.043 A 
HETATM   17  C   UNL     1     -43.800  59.776 -53.229  1.00  0.00     0.003 A 
HETATM   18  C   UNL     1     -43.035  62.107 -53.420  1.00  0.00     0.030 A 
HETATM   19  C   UNL     1     -45.102  60.201 -53.578  1.00  0.00     0.014 A 
HETATM   20  C   UNL     1     -45.354  61.553 -53.844  1.00  0.00     0.001 A 
HETATM   21  C   UNL     1     -44.332  62.491 -53.767  1.00  0.00     0.002 A 
ENDBRANCH   1  11
BRANCH   1  22
HETATM   22  O   UNL     1     -45.292  57.211 -52.844  1.00  0.00    -0.371 OA
HETATM   23  H   UNL     1     -45.590  57.249 -53.767  1.00  0.00     0.212 HD
ENDBRANCH   1  22
BRANCH   4  24
HETATM   24  C   UNL     1     -42.067  54.042 -51.649  1.00  0.00     0.133 C 
BRANCH  24  25
HETATM   25  C   UNL     1     -40.545  54.179 -51.659  1.00  0.00     0.025 C 
BRANCH  25  26
HETATM   26  C   UNL     1     -39.832  52.957 -51.077  1.00  0.00     0.040 C 
BRANCH  26  27
HETATM   27  C   UNL     1     -39.774  51.830 -52.081  1.00  0.00    -0.058 A 
HETATM   28  C   UNL     1     -39.917  52.091 -53.451  1.00  0.00     0.007 A 
HETATM   29  C   UNL     1     -39.900  51.047 -54.377  1.00  0.00     0.001 A 
HETATM   30  C   UNL     1     -39.738  49.732 -53.943  1.00  0.00     0.000 A 
HETATM   31  C   UNL     1     -39.593  49.461 -52.584  1.00  0.00     0.001 A 
HETATM   32  C   UNL     1     -39.612  50.505 -51.657  1.00  0.00     0.007 A 
ENDBRANCH  26  27
ENDBRANCH  25  26
ENDBRANCH  24  25
ENDBRANCH   4  24
TORSDOF 6
ENDMDL
MODEL 10
REMARK VINA RESULT:      -8.2      2.375      5.857
REMARK  6 active torsions:
REMARK  status: ('A' for Active; 'I' for Inactive)
REMARK    1  A    between atoms: C_7  and  C_8 
REMARK    2  A    between atoms: C_8  and  O_9 
REMARK    3  A    between atoms: N_12  and  C_13 
REMARK    4  A    between atoms: C_13  and  C_14 
REMARK    5  A    between atoms: C_14  and  C_15 
REMARK    6  A    between atoms: C_15  and  C_16 
ROOT
HETATM    1  C   UNL     1     -43.643  56.851 -51.836  1.00  0.00     0.199 A 
HETATM    2  C   UNL     1     -44.202  57.567 -53.112  1.00  0.00     0.269 A 
HETATM    3  O   UNL     1     -45.120  57.195 -53.833  1.00  0.00    -0.269 OA
HETATM    4  N   UNL     1     -43.476  58.764 -53.265  1.00  0.00    -0.314 N 
HETATM    5  C   UNL     1     -42.480  58.882 -52.283  1.00  0.00     0.047 A 
HETATM    6  C   UNL     1     -42.519  57.776 -51.427  1.00  0.00     0.017 A 
HETATM    7  C   UNL     1     -41.550  59.892 -52.106  1.00  0.00     0.030 A 
HETATM    8  C   UNL     1     -40.646  59.777 -51.046  1.00  0.00     0.002 A 
HETATM    9  C   UNL     1     -40.684  58.671 -50.183  1.00  0.00     0.001 A 
HETATM   10  C   UNL     1     -41.630  57.662 -50.365  1.00  0.00     0.013 A 
ENDROOT
BRANCH   1  11
HETATM   11  C   UNL     1     -43.032  55.498 -52.136  1.00  0.00     0.025 A 
HETATM   12  C   UNL     1     -43.315  54.292 -51.495  1.00  0.00     0.016 A 
HETATM   13  C   UNL     1     -44.246  53.971 -50.378  1.00  0.00     0.069 C 
HETATM   14  N   UNL     1     -42.572  53.305 -52.088  1.00  0.00    -0.359 N 
HETATM   15  H   UNL     1     -42.596  52.328 -51.830  1.00  0.00     0.166 HD
HETATM   16  C   UNL     1     -41.793  53.817 -53.093  1.00  0.00     0.043 A 
HETATM   17  C   UNL     1     -42.048  55.187 -53.154  1.00  0.00     0.003 A 
HETATM   18  C   UNL     1     -40.893  53.164 -53.945  1.00  0.00     0.030 A 
HETATM   19  C   UNL     1     -41.348  55.937 -54.126  1.00  0.00     0.014 A 
HETATM   20  C   UNL     1     -40.443  55.302 -54.988  1.00  0.00     0.001 A 
HETATM   21  C   UNL     1     -40.222  53.933 -54.897  1.00  0.00     0.002 A 
ENDBRANCH   1  11
BRANCH   1  22
HETATM   22  O   UNL     1     -44.617  56.825 -50.794  1.00  0.00    -0.371 OA
HETATM   23  H   UNL     1     -45.225  56.097 -51.001  1.00  0.00     0.212 HD
ENDBRANCH   1  22
BRANCH   4  24
HETATM   24  C   UNL     1     -43.653  59.651 -54.393  1.00  0.00     0.133 C 
BRANCH  24  25
HETATM   25  C   UNL     1     -43.722  58.936 -55.742  1.00  0.00     0.025 C 
BRANCH  25  26
HETATM   26  C   UNL     1     -42.347  58.725 -56.378  1.00  0.00     0.040 C 
BRANCH  26  27
HETATM   27  C   UNL     1     -42.430  57.782 -57.555  1.00  0.00    -0.058 A 
HETATM   28  C   UNL     1     -41.933  58.165 -58.809  1.00  0.00     0.007 A 
HETATM   29  C   UNL     1     -42.042  57.310 -59.906  1.00  0.00     0.001 A 
HETATM   30  C   UNL     1     -42.647  56.062 -59.761  1.00  0.00     0.000 A 
HETATM   31  C   UNL     1     -43.142  55.670 -58.519  1.00  0.00     0.001 A 
HETATM   32  C   UNL     1     -43.036  56.526 -57.421  1.00  0.00     0.007 A 
ENDBRANCH  26  27
ENDBRANCH  25  26
ENDBRANCH  24  25
ENDBRANCH   4  24
TORSDOF 6
ENDMDL
