MODEL 1
REMARK VINA RESULT:      -8.2      0.000      0.000
REMARK  3 active torsions:
REMARK  status: ('A' for Active; 'I' for Inactive)
REMARK    1  A    between atoms: C_5  and  N_6 
REMARK       I    between atoms: N_6  and  C_7 
REMARK    2  A    between atoms: C_7  and  C_8 
REMARK    3  A    between atoms: C_8  and  C_9 
ROOT
HETATM    1  C   UNL     1     -42.596  56.460 -52.263  1.00  0.00     0.286 C 
HETATM    2  N   UNL     1     -42.234  56.099 -53.705  1.00  0.00    -0.056 N 
HETATM    3  H   UNL     1     -41.868  56.946 -54.155  1.00  0.00     0.278 HD
HETATM    4  H   UNL     1     -41.418  55.454 -53.663  1.00  0.00     0.278 HD
HETATM    5  C   UNL     1     -43.373  55.517 -54.499  1.00  0.00     0.209 C 
HETATM    6  C   UNL     1     -44.528  56.549 -54.512  1.00  0.00     0.115 C 
HETATM    7  N   UNL     1     -44.860  57.003 -53.162  1.00  0.00    -0.353 N 
HETATM    8  C   UNL     1     -43.959  57.163 -52.139  1.00  0.00     0.249 C 
HETATM    9  O   UNL     1     -44.282  57.776 -51.128  1.00  0.00    -0.271 OA
HETATM   10  C   UNL     1     -42.886  55.155 -55.900  1.00  0.00     0.035 C 
HETATM   11  C   UNL     1     -42.598  56.373 -56.774  1.00  0.00     0.002 C 
HETATM   12  C   UNL     1     -43.784  57.332 -56.809  1.00  0.00     0.002 C 
HETATM   13  C   UNL     1     -44.212  57.757 -55.407  1.00  0.00     0.027 C 
HETATM   14  H   UNL     1     -45.740  57.496 -53.016  1.00  0.00     0.163 HD
ENDROOT
BRANCH   1  15
HETATM   15  C   UNL     1     -42.579  55.226 -51.345  1.00  0.00     0.146 C 
BRANCH  15  16
HETATM   16  C   UNL     1     -41.267  55.125 -50.615  1.00  0.00     0.224 C 
HETATM   17  N   UNL     1     -40.355  54.155 -50.870  1.00  0.00    -0.327 N 
HETATM   18  H   UNL     1     -39.587  54.180 -50.203  1.00  0.00     0.169 HD
HETATM   19  O   UNL     1     -41.000  55.983 -49.761  1.00  0.00    -0.273 OA
BRANCH  17  20
HETATM   20  C   UNL     1     -40.238  53.158 -51.857  1.00  0.00     0.034 A 
HETATM   21  C   UNL     1     -40.467  53.333 -53.221  1.00  0.00     0.030 A 
HETATM   22  C   UNL     1     -40.276  52.271 -54.117  1.00  0.00     0.009 A 
HETATM   23  C   UNL     1     -39.862  51.016 -53.667  1.00  0.00    -0.062 A 
HETATM   24  C   UNL     1     -39.612  49.897 -54.634  1.00  0.00     0.048 C 
HETATM   25  C   UNL     1     -39.615  50.842 -52.304  1.00  0.00     0.009 A 
HETATM   26  C   UNL     1     -39.801  51.902 -51.412  1.00  0.00     0.030 A 
ENDBRANCH  17  20
ENDBRANCH  15  16
ENDBRANCH   1  15
TORSDOF 3
ENDMDL
MODEL 2
REMARK VINA RESULT:      -8.1      2.640      3.554
REMARK  3 active torsions:
REMARK  status: ('A' for Active; 'I' for Inactive)
REMARK    1  A    between atoms: C_5  and  N_6 
REMARK       I    between atoms: N_6  and  C_7 
REMARK    2  A    between atoms: C_7  and  C_8 
REMARK    3  A    between atoms: C_8  and  C_9 
ROOT
HETATM    1  C   UNL     1     -41.658  55.883 -50.056  1.00  0.00     0.286 C 
HETATM    2  N   UNL     1     -41.432  57.376 -49.815  1.00  0.00    -0.056 N 
HETATM    3  H   UNL     1     -42.289  57.758 -49.398  1.00  0.00     0.278 HD
HETATM    4  H   UNL     1     -40.718  57.460 -49.062  1.00  0.00     0.278 HD
HETATM    5  C   UNL     1     -41.043  58.147 -51.048  1.00  0.00     0.209 C 
HETATM    6  C   UNL     1     -42.165  57.971 -52.100  1.00  0.00     0.115 C 
HETATM    7  N   UNL     1     -42.492  56.561 -52.309  1.00  0.00    -0.353 N 
HETATM    8  C   UNL     1     -42.457  55.591 -51.338  1.00  0.00     0.249 C 
HETATM    9  O   UNL     1     -42.978  54.500 -51.542  1.00  0.00    -0.271 OA
HETATM   10  C   UNL     1     -40.801  59.609 -50.680  1.00  0.00     0.035 C 
HETATM   11  C   UNL     1     -42.080  60.366 -50.332  1.00  0.00     0.002 C 
HETATM   12  C   UNL     1     -43.135  60.217 -51.422  1.00  0.00     0.002 C 
HETATM   13  C   UNL     1     -43.435  58.752 -51.726  1.00  0.00     0.027 C 
HETATM   14  H   UNL     1     -43.039  56.303 -53.129  1.00  0.00     0.163 HD
ENDROOT
BRANCH   1  15
HETATM   15  C   UNL     1     -40.331  55.105 -50.100  1.00  0.00     0.146 C 
BRANCH  15  16
HETATM   16  C   UNL     1     -40.373  53.930 -49.162  1.00  0.00     0.224 C 
HETATM   17  N   UNL     1     -40.364  52.645 -49.592  1.00  0.00    -0.327 N 
HETATM   18  H   UNL     1     -40.512  51.993 -48.825  1.00  0.00     0.169 HD
HETATM   19  O   UNL     1     -40.389  54.149 -47.942  1.00  0.00    -0.273 OA
BRANCH  17  20
HETATM   20  C   UNL     1     -40.173  52.034 -50.846  1.00  0.00     0.034 A 
HETATM   21  C   UNL     1     -40.199  52.683 -52.080  1.00  0.00     0.030 A 
HETATM   22  C   UNL     1     -39.953  51.974 -53.264  1.00  0.00     0.009 A 
HETATM   23  C   UNL     1     -39.683  50.603 -53.238  1.00  0.00    -0.062 A 
HETATM   24  C   UNL     1     -39.372  49.858 -54.502  1.00  0.00     0.048 C 
HETATM   25  C   UNL     1     -39.639  49.954 -52.004  1.00  0.00     0.009 A 
HETATM   26  C   UNL     1     -39.880  50.663 -50.824  1.00  0.00     0.030 A 
ENDBRANCH  17  20
ENDBRANCH  15  16
ENDBRANCH   1  15
TORSDOF 3
ENDMDL
MODEL 3
REMARK VINA RESULT:      -8.0      1.084      5.673
REMARK  3 active torsions:
REMARK  status: ('A' for Active; 'I' for Inactive)
REMARK    1  A    between atoms: C_5  and  N_6 
REMARK       I    between atoms: N_6  and  C_7 
REMARK    2  A    between atoms: C_7  and  C_8 
REMARK    3  A    between atoms: C_8  and  C_9 
ROOT
HETATM    1  C   UNL     1     -42.284  54.350 -51.132  1.00  0.00     0.286 C 
HETATM    2  N   UNL     1     -41.949  53.640 -52.444  1.00  0.00    -0.056 N 
HETATM    3  H   UNL     1     -42.272  52.669 -52.363  1.00  0.00     0.278 HD
HETATM    4  H   UNL     1     -42.557  54.054 -53.181  1.00  0.00     0.278 HD
HETATM    5  C   UNL     1     -40.492  53.693 -52.819  1.00  0.00     0.209 C 
HETATM    6  C   UNL     1     -39.675  53.047 -51.673  1.00  0.00     0.115 C 
HETATM    7  N   UNL     1     -40.020  53.625 -50.374  1.00  0.00    -0.353 N 
HETATM    8  C   UNL     1     -41.268  54.065 -50.013  1.00  0.00     0.249 C 
HETATM    9  O   UNL     1     -41.518  54.303 -48.836  1.00  0.00    -0.271 OA
HETATM   10  C   UNL     1     -40.284  52.994 -54.161  1.00  0.00     0.035 C 
HETATM   11  C   UNL     1     -40.445  51.478 -54.085  1.00  0.00     0.002 C 
HETATM   12  C   UNL     1     -39.577  50.876 -52.985  1.00  0.00     0.002 C 
HETATM   13  C   UNL     1     -39.850  51.521 -51.629  1.00  0.00     0.027 C 
HETATM   14  H   UNL     1     -39.399  53.454 -49.584  1.00  0.00     0.163 HD
ENDROOT
BRANCH   1  15
HETATM   15  C   UNL     1     -42.410  55.872 -51.324  1.00  0.00     0.146 C 
BRANCH  15  16
HETATM   16  C   UNL     1     -43.849  56.266 -51.520  1.00  0.00     0.224 C 
HETATM   17  N   UNL     1     -44.391  56.487 -52.742  1.00  0.00    -0.327 N 
HETATM   18  H   UNL     1     -45.337  56.854 -52.670  1.00  0.00     0.169 HD
HETATM   19  O   UNL     1     -44.574  56.366 -50.520  1.00  0.00    -0.273 OA
BRANCH  17  20
HETATM   20  C   UNL     1     -43.938  56.298 -54.062  1.00  0.00     0.034 A 
HETATM   21  C   UNL     1     -43.547  55.083 -54.623  1.00  0.00     0.030 A 
HETATM   22  C   UNL     1     -43.153  55.012 -55.966  1.00  0.00     0.009 A 
HETATM   23  C   UNL     1     -43.135  56.153 -56.772  1.00  0.00    -0.062 A 
HETATM   24  C   UNL     1     -42.760  56.063 -58.221  1.00  0.00     0.048 C 
HETATM   25  C   UNL     1     -43.543  57.368 -56.219  1.00  0.00     0.009 A 
HETATM   26  C   UNL     1     -43.940  57.437 -54.881  1.00  0.00     0.030 A 
ENDBRANCH  17  20
ENDBRANCH  15  16
ENDBRANCH   1  15
TORSDOF 3
ENDMDL
MODEL 4
REMARK VINA RESULT:      -7.7      2.576      4.049
REMARK  3 active torsions:
REMARK  status: ('A' for Active; 'I' for Inactive)
REMARK    1  A    between atoms: C_5  and  N_6 
REMARK       I    between atoms: N_6  and  C_7 
REMARK    2  A    between atoms: C_7  and  C_8 
REMARK    3  A    between atoms: C_8  and  C_9 
ROOT
HETATM    1  C   UNL     1     -41.257  57.840 -53.618  1.00  0.00     0.286 C 
HETATM    2  N   UNL     1     -42.719  57.727 -53.181  1.00  0.00    -0.056 N 
HETATM    3  H   UNL     1     -43.210  58.562 -53.522  1.00  0.00     0.278 HD
HETATM    4  H   UNL     1     -43.139  56.941 -53.720  1.00  0.00     0.278 HD
HETATM    5  C   UNL     1     -42.907  57.558 -51.698  1.00  0.00     0.209 C 
HETATM    6  C   UNL     1     -42.261  58.775 -50.988  1.00  0.00     0.115 C 
HETATM    7  N   UNL     1     -40.886  58.990 -51.435  1.00  0.00    -0.353 N 
HETATM    8  C   UNL     1     -40.422  58.752 -52.704  1.00  0.00     0.249 C 
HETATM    9  O   UNL     1     -39.329  59.189 -53.049  1.00  0.00    -0.271 OA
HETATM   10  C   UNL     1     -44.394  57.412 -51.385  1.00  0.00     0.035 C 
HETATM   11  C   UNL     1     -45.182  58.707 -51.569  1.00  0.00     0.002 C 
HETATM   12  C   UNL     1     -44.547  59.864 -50.805  1.00  0.00     0.002 C 
HETATM   13  C   UNL     1     -43.082  60.059 -51.184  1.00  0.00     0.027 C 
HETATM   14  H   UNL     1     -40.285  59.603 -50.885  1.00  0.00     0.163 HD
ENDROOT
BRANCH   1  15
HETATM   15  C   UNL     1     -40.582  56.461 -53.709  1.00  0.00     0.146 C 
BRANCH  15  16
HETATM   16  C   UNL     1     -41.274  55.596 -54.727  1.00  0.00     0.224 C 
HETATM   17  N   UNL     1     -41.222  54.242 -54.699  1.00  0.00    -0.327 N 
HETATM   18  H   UNL     1     -41.651  53.834 -55.527  1.00  0.00     0.169 HD
HETATM   19  O   UNL     1     -41.942  56.147 -55.613  1.00  0.00    -0.273 OA
BRANCH  17  20
HETATM   20  C   UNL     1     -40.731  53.300 -53.774  1.00  0.00     0.034 A 
HETATM   21  C   UNL     1     -40.729  53.447 -52.388  1.00  0.00     0.030 A 
HETATM   22  C   UNL     1     -40.250  52.419 -51.563  1.00  0.00     0.009 A 
HETATM   23  C   UNL     1     -39.759  51.230 -52.108  1.00  0.00    -0.062 A 
HETATM   24  C   UNL     1     -39.294  50.114 -51.221  1.00  0.00     0.048 C 
HETATM   25  C   UNL     1     -39.778  51.072 -53.495  1.00  0.00     0.009 A 
HETATM   26  C   UNL     1     -40.259  52.096 -54.315  1.00  0.00     0.030 A 
ENDBRANCH  17  20
ENDBRANCH  15  16
ENDBRANCH   1  15
TORSDOF 3
ENDMDL
MODEL 5
REMARK VINA RESULT:      -7.5      2.670      4.113
REMARK  3 active torsions:
REMARK  status: ('A' for Active; 'I' for Inactive)
REMARK    1  A    between atoms: C_5  and  N_6 
REMARK       I    between atoms: N_6  and  C_7 
REMARK    2  A    between atoms: C_7  and  C_8 
REMARK    3  A    between atoms: C_8  and  C_9 
ROOT
HETATM    1  C   UNL     1     -42.097  56.592 -55.471  1.00  0.00     0.286 C 
HETATM    2  N   UNL     1     -42.140  56.055 -56.902  1.00  0.00    -0.056 N 
HETATM    3  H   UNL     1     -41.237  56.266 -57.341  1.00  0.00     0.278 HD
HETATM    4  H   UNL     1     -42.161  55.016 -56.839  1.00  0.00     0.278 HD
HETATM    5  C   UNL     1     -43.278  56.592 -57.729  1.00  0.00     0.209 C 
HETATM    6  C   UNL     1     -43.155  58.135 -57.773  1.00  0.00     0.115 C 
HETATM    7  N   UNL     1     -43.018  58.703 -56.432  1.00  0.00    -0.353 N 
HETATM    8  C   UNL     1     -42.364  58.104 -55.385  1.00  0.00     0.249 C 
HETATM    9  O   UNL     1     -42.090  58.754 -54.381  1.00  0.00    -0.271 OA
HETATM   10  C   UNL     1     -43.247  55.956 -59.116  1.00  0.00     0.035 C 
HETATM   11  C   UNL     1     -42.087  56.445 -59.980  1.00  0.00     0.002 C 
HETATM   12  C   UNL     1     -42.040  57.967 -60.047  1.00  0.00     0.002 C 
HETATM   13  C   UNL     1     -41.986  58.596 -58.657  1.00  0.00     0.027 C 
HETATM   14  H   UNL     1     -43.161  59.705 -56.310  1.00  0.00     0.163 HD
ENDROOT
BRANCH   1  15
HETATM   15  C   UNL     1     -43.086  55.851 -54.555  1.00  0.00     0.146 C 
BRANCH  15  16
HETATM   16  C   UNL     1     -42.922  54.362 -54.689  1.00  0.00     0.224 C 
HETATM   17  N   UNL     1     -42.357  53.594 -53.725  1.00  0.00    -0.327 N 
HETATM   18  H   UNL     1     -42.228  52.635 -54.040  1.00  0.00     0.169 HD
HETATM   19  O   UNL     1     -43.346  53.811 -55.716  1.00  0.00    -0.273 OA
BRANCH  17  20
HETATM   20  C   UNL     1     -41.942  53.834 -52.401  1.00  0.00     0.034 A 
HETATM   21  C   UNL     1     -42.730  54.378 -51.388  1.00  0.00     0.030 A 
HETATM   22  C   UNL     1     -42.218  54.532 -50.092  1.00  0.00     0.009 A 
HETATM   23  C   UNL     1     -40.908  54.153 -49.787  1.00  0.00    -0.062 A 
HETATM   24  C   UNL     1     -40.381  54.273 -48.388  1.00  0.00     0.048 C 
HETATM   25  C   UNL     1     -40.123  53.591 -50.794  1.00  0.00     0.009 A 
HETATM   26  C   UNL     1     -40.636  53.434 -52.085  1.00  0.00     0.030 A 
ENDBRANCH  17  20
ENDBRANCH  15  16
ENDBRANCH   1  15
TORSDOF 3
ENDMDL
MODEL 6
REMARK VINA RESULT:      -7.5      2.844      5.777
REMARK  3 active torsions:
REMARK  status: ('A' for Active; 'I' for Inactive)
REMARK    1  A    between atoms: C_5  and  N_6 
REMARK       I    between atoms: N_6  and  C_7 
REMARK    2  A    between atoms: C_7  and  C_8 
REMARK    3  A    between atoms: C_8  and  C_9 
ROOT
HETATM    1  C   UNL     1     -43.597  55.340 -52.412  1.00  0.00     0.286 C 
HETATM    2  N   UNL     1     -42.650  55.329 -53.613  1.00  0.00    -0.056 N 
HETATM    3  H   UNL     1     -42.894  54.519 -54.195  1.00  0.00     0.278 HD
HETATM    4  H   UNL     1     -42.892  56.152 -54.202  1.00  0.00     0.278 HD
HETATM    5  C   UNL     1     -41.190  55.308 -53.247  1.00  0.00     0.209 C 
HETATM    6  C   UNL     1     -40.927  54.047 -52.385  1.00  0.00     0.115 C 
HETATM    7  N   UNL     1     -41.866  53.954 -51.267  1.00  0.00    -0.353 N 
HETATM    8  C   UNL     1     -43.175  54.365 -51.300  1.00  0.00     0.249 C 
HETATM    9  O   UNL     1     -43.946  54.026 -50.408  1.00  0.00    -0.271 OA
HETATM   10  C   UNL     1     -40.344  55.343 -54.517  1.00  0.00     0.035 C 
HETATM   11  C   UNL     1     -40.397  54.044 -55.316  1.00  0.00     0.002 C 
HETATM   12  C   UNL     1     -40.071  52.835 -54.445  1.00  0.00     0.002 C 
HETATM   13  C   UNL     1     -40.978  52.758 -53.219  1.00  0.00     0.027 C 
HETATM   14  H   UNL     1     -41.656  53.308 -50.507  1.00  0.00     0.163 HD
ENDROOT
BRANCH   1  15
HETATM   15  C   UNL     1     -43.746  56.751 -51.818  1.00  0.00     0.146 C 
BRANCH  15  16
HETATM   16  C   UNL     1     -43.689  57.793 -52.902  1.00  0.00     0.224 C 
HETATM   17  N   UNL     1     -42.721  58.740 -52.961  1.00  0.00    -0.327 N 
HETATM   18  H   UNL     1     -42.911  59.423 -53.692  1.00  0.00     0.169 HD
HETATM   19  O   UNL     1     -44.550  57.766 -53.792  1.00  0.00    -0.273 OA
BRANCH  17  20
HETATM   20  C   UNL     1     -41.523  58.960 -52.256  1.00  0.00     0.034 A 
HETATM   21  C   UNL     1     -40.236  58.835 -52.778  1.00  0.00     0.030 A 
HETATM   22  C   UNL     1     -39.115  59.122 -51.986  1.00  0.00     0.009 A 
HETATM   23  C   UNL     1     -39.258  59.533 -50.659  1.00  0.00    -0.062 A 
HETATM   24  C   UNL     1     -38.058  59.886 -49.831  1.00  0.00     0.048 C 
HETATM   25  C   UNL     1     -40.545  59.677 -50.139  1.00  0.00     0.009 A 
HETATM   26  C   UNL     1     -41.662  59.394 -50.929  1.00  0.00     0.030 A 
ENDBRANCH  17  20
ENDBRANCH  15  16
ENDBRANCH   1  15
TORSDOF 3
ENDMDL
MODEL 7
REMARK VINA RESULT:      -7.5      2.505      6.490
REMARK  3 active torsions:
REMARK  status: ('A' for Active; 'I' for Inactive)
REMARK    1  A    between atoms: C_5  and  N_6 
REMARK       I    between atoms: N_6  and  C_7 
REMARK    2  A    between atoms: C_7  and  C_8 
REMARK    3  A    between atoms: C_8  and  C_9 
ROOT
HETATM    1  C   UNL     1     -41.815  53.608 -52.933  1.00  0.00     0.286 C 
HETATM    2  N   UNL     1     -41.248  52.332 -53.556  1.00  0.00    -0.056 N 
HETATM    3  H   UNL     1     -41.780  51.539 -53.180  1.00  0.00     0.278 HD
HETATM    4  H   UNL     1     -41.492  52.351 -54.568  1.00  0.00     0.278 HD
HETATM    5  C   UNL     1     -39.771  52.142 -53.335  1.00  0.00     0.209 C 
HETATM    6  C   UNL     1     -39.511  52.116 -51.809  1.00  0.00     0.115 C 
HETATM    7  N   UNL     1     -40.111  53.271 -51.141  1.00  0.00    -0.353 N 
HETATM    8  C   UNL     1     -41.285  53.876 -51.514  1.00  0.00     0.249 C 
HETATM    9  O   UNL     1     -41.831  54.672 -50.758  1.00  0.00    -0.271 OA
HETATM   10  C   UNL     1     -39.310  50.865 -54.035  1.00  0.00     0.035 C 
HETATM   11  C   UNL     1     -39.808  49.590 -53.359  1.00  0.00     0.002 C 
HETATM   12  C   UNL     1     -39.477  49.579 -51.871  1.00  0.00     0.002 C 
HETATM   13  C   UNL     1     -40.014  50.818 -51.159  1.00  0.00     0.027 C 
HETATM   14  H   UNL     1     -39.819  53.490 -50.189  1.00  0.00     0.163 HD
ENDROOT
BRANCH   1  15
HETATM   15  C   UNL     1     -41.544  54.841 -53.814  1.00  0.00     0.146 C 
BRANCH  15  16
HETATM   16  C   UNL     1     -42.698  55.804 -53.748  1.00  0.00     0.224 C 
HETATM   17  N   UNL     1     -42.637  56.981 -53.079  1.00  0.00    -0.327 N 
HETATM   18  H   UNL     1     -43.544  57.442 -53.049  1.00  0.00     0.169 HD
HETATM   19  O   UNL     1     -43.740  55.519 -54.355  1.00  0.00    -0.273 OA
BRANCH  17  20
HETATM   20  C   UNL     1     -41.599  57.696 -52.450  1.00  0.00     0.034 A 
HETATM   21  C   UNL     1     -40.510  58.283 -53.092  1.00  0.00     0.030 A 
HETATM   22  C   UNL     1     -39.558  59.008 -52.361  1.00  0.00     0.009 A 
HETATM   23  C   UNL     1     -39.673  59.154 -50.977  1.00  0.00    -0.062 A 
HETATM   24  C   UNL     1     -38.680  59.972 -50.206  1.00  0.00     0.048 C 
HETATM   25  C   UNL     1     -40.772  58.583 -50.333  1.00  0.00     0.009 A 
HETATM   26  C   UNL     1     -41.722  57.863 -51.063  1.00  0.00     0.030 A 
ENDBRANCH  17  20
ENDBRANCH  15  16
ENDBRANCH   1  15
TORSDOF 3
ENDMDL
MODEL 8
REMARK VINA RESULT:      -7.5      2.278      3.298
REMARK  3 active torsions:
REMARK  status: ('A' for Active; 'I' for Inactive)
REMARK    1  A    between atoms: C_5  and  N_6 
REMARK       I    between atoms: N_6  and  C_7 
REMARK    2  A    between atoms: C_7  and  C_8 
REMARK    3  A    between atoms: C_8  and  C_9 
ROOT
HETATM    1  C   UNL     1     -42.391  55.294 -52.730  1.00  0.00     0.286 C 
HETATM    2  N   UNL     1     -41.873  56.602 -53.329  1.00  0.00    -0.056 N 
HETATM    3  H   UNL     1     -41.246  57.033 -52.640  1.00  0.00     0.278 HD
HETATM    4  H   UNL     1     -41.250  56.349 -54.124  1.00  0.00     0.278 HD
HETATM    5  C   UNL     1     -42.956  57.561 -53.745  1.00  0.00     0.209 C 
HETATM    6  C   UNL     1     -43.819  57.883 -52.500  1.00  0.00     0.115 C 
HETATM    7  N   UNL     1     -44.271  56.665 -51.827  1.00  0.00    -0.353 N 
HETATM    8  C   UNL     1     -43.553  55.499 -51.743  1.00  0.00     0.249 C 
HETATM    9  O   UNL     1     -43.899  54.621 -50.959  1.00  0.00    -0.271 OA
HETATM   10  C   UNL     1     -42.326  58.805 -54.367  1.00  0.00     0.035 C 
HETATM   11  C   UNL     1     -41.613  59.694 -53.352  1.00  0.00     0.002 C 
HETATM   12  C   UNL     1     -42.517  60.038 -52.173  1.00  0.00     0.002 C 
HETATM   13  C   UNL     1     -43.077  58.787 -51.502  1.00  0.00     0.027 C 
HETATM   14  H   UNL     1     -45.024  56.736 -51.144  1.00  0.00     0.163 HD
ENDROOT
BRANCH   1  15
HETATM   15  C   UNL     1     -42.825  54.300 -53.821  1.00  0.00     0.146 C 
BRANCH  15  16
HETATM   16  C   UNL     1     -41.744  54.142 -54.856  1.00  0.00     0.224 C 
HETATM   17  N   UNL     1     -40.645  53.373 -54.662  1.00  0.00    -0.327 N 
HETATM   18  H   UNL     1     -39.975  53.479 -55.420  1.00  0.00     0.169 HD
HETATM   19  O   UNL     1     -41.879  54.722 -55.943  1.00  0.00    -0.273 OA
BRANCH  17  20
HETATM   20  C   UNL     1     -40.256  52.458 -53.664  1.00  0.00     0.034 A 
HETATM   21  C   UNL     1     -40.073  52.754 -52.315  1.00  0.00     0.030 A 
HETATM   22  C   UNL     1     -39.723  51.747 -51.405  1.00  0.00     0.009 A 
HETATM   23  C   UNL     1     -39.543  50.427 -51.827  1.00  0.00    -0.062 A 
HETATM   24  C   UNL     1     -39.217  49.344 -50.843  1.00  0.00     0.048 C 
HETATM   25  C   UNL     1     -39.743  50.124 -53.174  1.00  0.00     0.009 A 
HETATM   26  C   UNL     1     -40.096  51.128 -54.080  1.00  0.00     0.030 A 
ENDBRANCH  17  20
ENDBRANCH  15  16
ENDBRANCH   1  15
TORSDOF 3
ENDMDL
MODEL 9
REMARK VINA RESULT:      -7.4      1.489      6.222
REMARK  3 active torsions:
REMARK  status: ('A' for Active; 'I' for Inactive)
REMARK    1  A    between atoms: C_5  and  N_6 
REMARK       I    between atoms: N_6  and  C_7 
REMARK    2  A    between atoms: C_7  and  C_8 
REMARK    3  A    between atoms: C_8  and  C_9 
ROOT
HETATM    1  C   UNL     1     -42.416  54.364 -51.112  1.00  0.00     0.286 C 
HETATM    2  N   UNL     1     -42.068  53.727 -52.458  1.00  0.00    -0.056 N 
HETATM    3  H   UNL     1     -42.336  52.737 -52.413  1.00  0.00     0.278 HD
HETATM    4  H   UNL     1     -42.711  54.138 -53.166  1.00  0.00     0.278 HD
HETATM    5  C   UNL     1     -40.624  53.876 -52.855  1.00  0.00     0.209 C 
HETATM    6  C   UNL     1     -39.751  53.229 -51.751  1.00  0.00     0.115 C 
HETATM    7  N   UNL     1     -40.102  53.733 -50.423  1.00  0.00    -0.353 N 
HETATM    8  C   UNL     1     -41.365  54.089 -50.023  1.00  0.00     0.249 C 
HETATM    9  O   UNL     1     -41.605  54.264 -48.833  1.00  0.00    -0.271 OA
HETATM   10  C   UNL     1     -40.404  53.245 -54.228  1.00  0.00     0.035 C 
HETATM   11  C   UNL     1     -40.480  51.721 -54.213  1.00  0.00     0.002 C 
HETATM   12  C   UNL     1     -39.560  51.123 -53.155  1.00  0.00     0.002 C 
HETATM   13  C   UNL     1     -39.842  51.695 -51.768  1.00  0.00     0.027 C 
HETATM   14  H   UNL     1     -39.458  53.564 -49.652  1.00  0.00     0.163 HD
ENDROOT
BRANCH   1  15
HETATM   15  C   UNL     1     -42.628  55.882 -51.238  1.00  0.00     0.146 C 
BRANCH  15  16
HETATM   16  C   UNL     1     -44.083  56.231 -51.080  1.00  0.00     0.224 C 
HETATM   17  N   UNL     1     -44.734  57.069 -51.924  1.00  0.00    -0.327 N 
HETATM   18  H   UNL     1     -45.675  57.274 -51.594  1.00  0.00     0.169 HD
HETATM   19  O   UNL     1     -44.718  55.708 -50.154  1.00  0.00    -0.273 OA
BRANCH  17  20
HETATM   20  C   UNL     1     -44.398  57.683 -53.146  1.00  0.00     0.034 A 
HETATM   21  C   UNL     1     -43.773  58.920 -53.290  1.00  0.00     0.030 A 
HETATM   22  C   UNL     1     -43.449  59.411 -54.563  1.00  0.00     0.009 A 
HETATM   23  C   UNL     1     -43.750  58.679 -55.714  1.00  0.00    -0.062 A 
HETATM   24  C   UNL     1     -43.359  59.185 -57.070  1.00  0.00     0.048 C 
HETATM   25  C   UNL     1     -44.359  57.431 -55.572  1.00  0.00     0.009 A 
HETATM   26  C   UNL     1     -44.678  56.941 -54.303  1.00  0.00     0.030 A 
ENDBRANCH  17  20
ENDBRANCH  15  16
ENDBRANCH   1  15
TORSDOF 3
ENDMDL
MODEL 10
REMARK VINA RESULT:      -7.4     14.435     17.169
REMARK  3 active torsions:
REMARK  status: ('A' for Active; 'I' for Inactive)
REMARK    1  A    between atoms: C_5  and  N_6 
REMARK       I    between atoms: N_6  and  C_7 
REMARK    2  A    between atoms: C_7  and  C_8 
REMARK    3  A    between atoms: C_8  and  C_9 
ROOT
HETATM    1  C   UNL     1     -33.928  41.203 -54.045  1.00  0.00     0.286 C 
HETATM    2  N   UNL     1     -34.215  41.058 -52.550  1.00  0.00    -0.056 N 
HETATM    3  H   UNL     1     -33.561  41.670 -52.047  1.00  0.00     0.278 HD
HETATM    4  H   UNL     1     -35.151  41.481 -52.375  1.00  0.00     0.278 HD
HETATM    5  C   UNL     1     -34.132  39.645 -52.039  1.00  0.00     0.209 C 
HETATM    6  C   UNL     1     -32.708  39.110 -52.334  1.00  0.00     0.115 C 
HETATM    7  N   UNL     1     -32.339  39.304 -53.735  1.00  0.00    -0.353 N 
HETATM    8  C   UNL     1     -32.726  40.366 -54.513  1.00  0.00     0.249 C 
HETATM    9  O   UNL     1     -32.174  40.571 -55.589  1.00  0.00    -0.271 OA
HETATM   10  C   UNL     1     -34.479  39.617 -50.553  1.00  0.00     0.035 C 
HETATM   11  C   UNL     1     -33.404  40.242 -49.668  1.00  0.00     0.002 C 
HETATM   12  C   UNL     1     -32.029  39.644 -49.946  1.00  0.00     0.002 C 
HETATM   13  C   UNL     1     -31.651  39.751 -51.421  1.00  0.00     0.027 C 
HETATM   14  H   UNL     1     -31.536  38.795 -54.103  1.00  0.00     0.163 HD
ENDROOT
BRANCH   1  15
HETATM   15  C   UNL     1     -35.157  40.843 -54.898  1.00  0.00     0.146 C 
BRANCH  15  16
HETATM   16  C   UNL     1     -36.191  41.933 -54.826  1.00  0.00     0.224 C 
HETATM   17  N   UNL     1     -37.015  42.234 -55.859  1.00  0.00    -0.327 N 
HETATM   18  H   UNL     1     -37.565  43.069 -55.668  1.00  0.00     0.169 HD
HETATM   19  O   UNL     1     -36.311  42.565 -53.766  1.00  0.00    -0.273 OA
BRANCH  17  20
HETATM   20  C   UNL     1     -37.282  41.634 -57.105  1.00  0.00     0.034 A 
HETATM   21  C   UNL     1     -36.915  42.144 -58.349  1.00  0.00     0.030 A 
HETATM   22  C   UNL     1     -37.201  41.432 -59.523  1.00  0.00     0.009 A 
HETATM   23  C   UNL     1     -37.865  40.204 -59.476  1.00  0.00    -0.062 A 
HETATM   24  C   UNL     1     -38.125  39.423 -60.730  1.00  0.00     0.048 C 
HETATM   25  C   UNL     1     -38.217  39.682 -58.231  1.00  0.00     0.009 A 
HETATM   26  C   UNL     1     -37.928  40.390 -57.061  1.00  0.00     0.030 A 
ENDBRANCH  17  20
ENDBRANCH  15  16
ENDBRANCH   1  15
TORSDOF 3
ENDMDL
