MODEL 1
REMARK VINA RESULT:     -10.8      0.000      0.000
REMARK  4 active torsions:
REMARK  status: ('A' for Active; 'I' for Inactive)
REMARK    1  A    between atoms: C_2  and  N_3 
REMARK    2  A    between atoms: C_7  and  N_8 
REMARK       I    between atoms: N_8  and  C_9 
REMARK    3  A    between atoms: C_9  and  C_10 
REMARK    4  A    between atoms: C_10  and  N_11 
ROOT
HETATM    1  N   UNL     1     -42.038  56.120 -56.245  1.00  0.00    -0.326 N 
HETATM    2  C   UNL     1     -43.264  56.725 -56.441  1.00  0.00     0.242 C 
HETATM    3  O   UNL     1     -44.173  56.794 -55.616  1.00  0.00    -0.271 OA
HETATM    4  H   UNL     1     -41.422  56.146 -57.057  1.00  0.00     0.169 HD
ENDROOT
BRANCH   2   5
HETATM    5  C   UNL     1     -43.508  57.210 -57.872  1.00  0.00     0.257 C 
BRANCH   5   6
HETATM    6  N   UNL     1     -43.019  58.541 -58.233  1.00  0.00    -0.224 N 
HETATM    7  N   UNL     1     -42.347  59.269 -57.223  1.00  0.00    -0.180 NA
HETATM    8  C   UNL     1     -41.660  60.331 -57.542  1.00  0.00     0.153 A 
HETATM    9  C   UNL     1     -41.561  60.768 -58.904  1.00  0.00     0.028 A 
HETATM   10  C   UNL     1     -42.246  60.075 -59.868  1.00  0.00     0.116 A 
HETATM   11  C   UNL     1     -40.827  61.801 -59.544  1.00  0.00     0.005 A 
HETATM   12  N   UNL     1     -41.990  60.654 -61.078  1.00  0.00    -0.350 N 
HETATM   13  C   UNL     1     -43.031  58.908 -59.597  1.00  0.00     0.291 A 
HETATM   14  H   UNL     1     -42.357  60.327 -61.964  1.00  0.00     0.166 HD
HETATM   15  C   UNL     1     -41.102  61.696 -60.912  1.00  0.00     0.044 A 
HETATM   16  C   UNL     1     -40.513  62.535 -61.865  1.00  0.00     0.031 A 
HETATM   17  C   UNL     1     -39.616  63.506 -61.409  1.00  0.00     0.009 A 
HETATM   18  C   UNL     1     -39.328  63.654 -60.048  1.00  0.00    -0.061 A 
HETATM   19  C   UNL     1     -38.328  64.679 -59.593  1.00  0.00     0.048 C 
HETATM   20  C   UNL     1     -39.927  62.796 -59.111  1.00  0.00     0.021 A 
HETATM   21  O   UNL     1     -43.603  58.284 -60.484  1.00  0.00    -0.264 OA
ENDBRANCH   5   6
ENDBRANCH   2   5
BRANCH   1  22
HETATM   22  C   UNL     1     -41.580  55.440 -55.098  1.00  0.00     0.035 A 
HETATM   23  C   UNL     1     -41.267  54.077 -55.083  1.00  0.00     0.044 A 
HETATM   24  C   UNL     1     -40.780  53.465 -53.903  1.00  0.00     0.005 A 
HETATM   25  C   UNL     1     -40.633  54.237 -52.752  1.00  0.00     0.046 A 
HETATM   26  C   UNL     1     -40.363  52.134 -53.591  1.00  0.00     0.003 A 
HETATM   27  N   UNL     1     -40.156  53.396 -51.764  1.00  0.00    -0.346 N 
HETATM   28  C   UNL     1     -40.952  55.605 -52.741  1.00  0.00     0.033 A 
HETATM   29  C   UNL     1     -39.979  52.113 -52.250  1.00  0.00     0.046 A 
HETATM   30  C   UNL     1     -39.519  50.939 -51.630  1.00  0.00     0.030 A 
HETATM   31  C   UNL     1     -39.444  49.772 -52.396  1.00  0.00     0.002 A 
HETATM   32  C   UNL     1     -39.816  49.771 -53.735  1.00  0.00     0.001 A 
HETATM   33  C   UNL     1     -40.278  50.942 -54.343  1.00  0.00     0.014 A 
HETATM   34  C   UNL     1     -41.416  56.186 -53.929  1.00  0.00     0.032 A 
BRANCH  27  35
HETATM   35  C   UNL     1     -39.867  53.802 -50.396  1.00  0.00     0.125 C 
HETATM   36  C   UNL     1     -41.116  53.839 -49.534  1.00  0.00     0.027 C 
ENDBRANCH  27  35
ENDBRANCH   1  22
TORSDOF 4
ENDMDL
MODEL 2
REMARK VINA RESULT:     -10.4      3.567      5.158
REMARK  4 active torsions:
REMARK  status: ('A' for Active; 'I' for Inactive)
REMARK    1  A    between atoms: C_2  and  N_3 
REMARK    2  A    between atoms: C_7  and  N_8 
REMARK       I    between atoms: N_8  and  C_9 
REMARK    3  A    between atoms: C_9  and  C_10 
REMARK    4  A    between atoms: C_10  and  N_11 
ROOT
HETATM    1  N   UNL     1     -41.688  56.203 -56.281  1.00  0.00    -0.326 N 
HETATM    2  C   UNL     1     -42.919  56.738 -56.605  1.00  0.00     0.242 C 
HETATM    3  O   UNL     1     -43.925  56.713 -55.898  1.00  0.00    -0.271 OA
HETATM    4  H   UNL     1     -40.981  56.305 -57.008  1.00  0.00     0.169 HD
ENDROOT
BRANCH   2   5
HETATM    5  C   UNL     1     -43.018  57.271 -58.036  1.00  0.00     0.257 C 
BRANCH   5   6
HETATM    6  N   UNL     1     -44.355  57.497 -58.588  1.00  0.00    -0.224 N 
HETATM    7  N   UNL     1     -44.880  58.805 -58.470  1.00  0.00    -0.180 NA
HETATM    8  C   UNL     1     -45.931  59.144 -59.164  1.00  0.00     0.153 A 
HETATM    9  C   UNL     1     -46.559  58.214 -60.058  1.00  0.00     0.028 A 
HETATM   10  C   UNL     1     -46.063  56.939 -60.136  1.00  0.00     0.116 A 
HETATM   11  C   UNL     1     -47.627  58.327 -60.986  1.00  0.00     0.005 A 
HETATM   12  N   UNL     1     -46.797  56.246 -61.054  1.00  0.00    -0.350 N 
HETATM   13  C   UNL     1     -44.920  56.487 -59.399  1.00  0.00     0.291 A 
HETATM   14  H   UNL     1     -46.631  55.283 -61.320  1.00  0.00     0.166 HD
HETATM   15  C   UNL     1     -47.745  57.080 -61.612  1.00  0.00     0.044 A 
HETATM   16  C   UNL     1     -48.677  56.831 -62.624  1.00  0.00     0.031 A 
HETATM   17  C   UNL     1     -49.510  57.884 -63.014  1.00  0.00     0.009 A 
HETATM   18  C   UNL     1     -49.435  59.140 -62.402  1.00  0.00    -0.061 A 
HETATM   19  C   UNL     1     -50.315  60.264 -62.871  1.00  0.00     0.048 C 
HETATM   20  C   UNL     1     -48.487  59.369 -61.391  1.00  0.00     0.021 A 
HETATM   21  O   UNL     1     -44.474  55.353 -59.515  1.00  0.00    -0.264 OA
ENDBRANCH   5   6
ENDBRANCH   2   5
BRANCH   1  22
HETATM   22  C   UNL     1     -41.329  55.502 -55.111  1.00  0.00     0.035 A 
HETATM   23  C   UNL     1     -41.038  54.134 -55.090  1.00  0.00     0.044 A 
HETATM   24  C   UNL     1     -40.651  53.500 -53.885  1.00  0.00     0.005 A 
HETATM   25  C   UNL     1     -40.580  54.256 -52.716  1.00  0.00     0.046 A 
HETATM   26  C   UNL     1     -40.278  52.159 -53.561  1.00  0.00     0.003 A 
HETATM   27  N   UNL     1     -40.192  53.396 -51.706  1.00  0.00    -0.346 N 
HETATM   28  C   UNL     1     -40.879  55.628 -52.711  1.00  0.00     0.033 A 
HETATM   29  C   UNL     1     -39.997  52.116 -52.195  1.00  0.00     0.046 A 
HETATM   30  C   UNL     1     -39.604  50.927 -51.557  1.00  0.00     0.030 A 
HETATM   31  C   UNL     1     -39.487  49.768 -52.331  1.00  0.00     0.002 A 
HETATM   32  C   UNL     1     -39.757  49.790 -53.694  1.00  0.00     0.001 A 
HETATM   33  C   UNL     1     -40.154  50.975 -54.320  1.00  0.00     0.014 A 
HETATM   34  C   UNL     1     -41.243  56.231 -53.923  1.00  0.00     0.032 A 
BRANCH  27  35
HETATM   35  C   UNL     1     -40.002  53.780 -50.315  1.00  0.00     0.125 C 
HETATM   36  C   UNL     1     -41.320  54.035 -49.606  1.00  0.00     0.027 C 
ENDBRANCH  27  35
ENDBRANCH   1  22
TORSDOF 4
ENDMDL
MODEL 3
REMARK VINA RESULT:     -10.1      3.463      4.873
REMARK  4 active torsions:
REMARK  status: ('A' for Active; 'I' for Inactive)
REMARK    1  A    between atoms: C_2  and  N_3 
REMARK    2  A    between atoms: C_7  and  N_8 
REMARK       I    between atoms: N_8  and  C_9 
REMARK    3  A    between atoms: C_9  and  C_10 
REMARK    4  A    between atoms: C_10  and  N_11 
ROOT
HETATM    1  N   UNL     1     -41.987  57.919 -53.539  1.00  0.00    -0.326 N 
HETATM    2  C   UNL     1     -41.440  59.185 -53.478  1.00  0.00     0.242 C 
HETATM    3  O   UNL     1     -40.579  59.561 -52.684  1.00  0.00    -0.271 OA
HETATM    4  H   UNL     1     -42.705  57.805 -54.253  1.00  0.00     0.169 HD
ENDROOT
BRANCH   2   5
HETATM    5  C   UNL     1     -42.101  60.203 -54.410  1.00  0.00     0.257 C 
BRANCH   5   6
HETATM    6  N   UNL     1     -42.663  59.711 -55.668  1.00  0.00    -0.224 N 
HETATM    7  N   UNL     1     -41.793  58.987 -56.515  1.00  0.00    -0.180 NA
HETATM    8  C   UNL     1     -42.283  58.298 -57.508  1.00  0.00     0.153 A 
HETATM    9  C   UNL     1     -43.696  58.251 -57.750  1.00  0.00     0.028 A 
HETATM   10  C   UNL     1     -44.526  58.986 -56.944  1.00  0.00     0.116 A 
HETATM   11  C   UNL     1     -44.503  57.530 -58.669  1.00  0.00     0.005 A 
HETATM   12  N   UNL     1     -45.814  58.774 -57.343  1.00  0.00    -0.350 N 
HETATM   13  C   UNL     1     -44.064  59.776 -55.841  1.00  0.00     0.291 A 
HETATM   14  H   UNL     1     -46.630  59.182 -56.905  1.00  0.00     0.166 HD
HETATM   15  C   UNL     1     -45.831  57.863 -58.381  1.00  0.00     0.044 A 
HETATM   16  C   UNL     1     -46.914  57.304 -59.067  1.00  0.00     0.031 A 
HETATM   17  C   UNL     1     -46.634  56.374 -60.074  1.00  0.00     0.009 A 
HETATM   18  C   UNL     1     -45.320  56.027 -60.403  1.00  0.00    -0.061 A 
HETATM   19  C   UNL     1     -45.053  54.994 -61.461  1.00  0.00     0.048 C 
HETATM   20  C   UNL     1     -44.249  56.598 -59.696  1.00  0.00     0.021 A 
HETATM   21  O   UNL     1     -44.831  60.394 -55.113  1.00  0.00    -0.264 OA
ENDBRANCH   5   6
ENDBRANCH   2   5
BRANCH   1  22
HETATM   22  C   UNL     1     -41.710  56.814 -52.707  1.00  0.00     0.035 A 
HETATM   23  C   UNL     1     -41.237  55.587 -53.186  1.00  0.00     0.044 A 
HETATM   24  C   UNL     1     -40.947  54.530 -52.291  1.00  0.00     0.005 A 
HETATM   25  C   UNL     1     -41.155  54.724 -50.926  1.00  0.00     0.046 A 
HETATM   26  C   UNL     1     -40.443  53.205 -52.472  1.00  0.00     0.003 A 
HETATM   27  N   UNL     1     -40.804  53.545 -50.296  1.00  0.00    -0.346 N 
HETATM   28  C   UNL     1     -41.640  55.943 -50.424  1.00  0.00     0.033 A 
HETATM   29  C   UNL     1     -40.363  52.607 -51.214  1.00  0.00     0.046 A 
HETATM   30  C   UNL     1     -39.906  51.289 -51.049  1.00  0.00     0.030 A 
HETATM   31  C   UNL     1     -39.516  50.576 -52.187  1.00  0.00     0.002 A 
HETATM   32  C   UNL     1     -39.583  51.154 -53.449  1.00  0.00     0.001 A 
HETATM   33  C   UNL     1     -40.045  52.464 -53.605  1.00  0.00     0.014 A 
HETATM   34  C   UNL     1     -41.902  56.977 -51.334  1.00  0.00     0.032 A 
BRANCH  27  35
HETATM   35  C   UNL     1     -40.875  53.316 -48.861  1.00  0.00     0.125 C 
HETATM   36  C   UNL     1     -39.775  54.044 -48.109  1.00  0.00     0.027 C 
ENDBRANCH  27  35
ENDBRANCH   1  22
TORSDOF 4
ENDMDL
MODEL 4
REMARK VINA RESULT:      -9.8      1.683     10.683
REMARK  4 active torsions:
REMARK  status: ('A' for Active; 'I' for Inactive)
REMARK    1  A    between atoms: C_2  and  N_3 
REMARK    2  A    between atoms: C_7  and  N_8 
REMARK       I    between atoms: N_8  and  C_9 
REMARK    3  A    between atoms: C_9  and  C_10 
REMARK    4  A    between atoms: C_10  and  N_11 
ROOT
HETATM    1  N   UNL     1     -43.035  58.614 -56.001  1.00  0.00    -0.326 N 
HETATM    2  C   UNL     1     -44.217  58.571 -55.289  1.00  0.00     0.242 C 
HETATM    3  O   UNL     1     -45.300  59.020 -55.662  1.00  0.00    -0.271 OA
HETATM    4  H   UNL     1     -42.236  58.208 -55.515  1.00  0.00     0.169 HD
ENDROOT
BRANCH   2   5
HETATM    5  C   UNL     1     -44.076  58.033 -53.863  1.00  0.00     0.257 C 
BRANCH   5   6
HETATM    6  N   UNL     1     -43.587  56.663 -53.697  1.00  0.00    -0.224 N 
HETATM    7  N   UNL     1     -43.652  55.821 -54.832  1.00  0.00    -0.180 NA
HETATM    8  C   UNL     1     -42.999  54.692 -54.837  1.00  0.00     0.153 A 
HETATM    9  C   UNL     1     -42.202  54.293 -53.713  1.00  0.00     0.028 A 
HETATM   10  C   UNL     1     -42.176  55.101 -52.606  1.00  0.00     0.116 A 
HETATM   11  C   UNL     1     -41.329  53.199 -53.478  1.00  0.00     0.005 A 
HETATM   12  N   UNL     1     -41.345  54.537 -51.681  1.00  0.00    -0.350 N 
HETATM   13  C   UNL     1     -42.874  56.349 -52.519  1.00  0.00     0.291 A 
HETATM   14  H   UNL     1     -41.131  54.938 -50.776  1.00  0.00     0.166 HD
HETATM   15  C   UNL     1     -40.791  53.385 -52.200  1.00  0.00     0.044 A 
HETATM   16  C   UNL     1     -39.850  52.512 -51.645  1.00  0.00     0.031 A 
HETATM   17  C   UNL     1     -39.443  51.419 -52.417  1.00  0.00     0.009 A 
HETATM   18  C   UNL     1     -39.969  51.189 -53.692  1.00  0.00    -0.061 A 
HETATM   19  C   UNL     1     -39.481  50.030 -54.515  1.00  0.00     0.048 C 
HETATM   20  C   UNL     1     -40.910  52.083 -54.231  1.00  0.00     0.021 A 
HETATM   21  O   UNL     1     -42.804  57.070 -51.531  1.00  0.00    -0.264 OA
ENDBRANCH   5   6
ENDBRANCH   2   5
BRANCH   1  22
HETATM   22  C   UNL     1     -42.805  59.194 -57.266  1.00  0.00     0.035 A 
HETATM   23  C   UNL     1     -41.908  60.245 -57.482  1.00  0.00     0.044 A 
HETATM   24  C   UNL     1     -41.702  60.757 -58.785  1.00  0.00     0.005 A 
HETATM   25  C   UNL     1     -42.418  60.209 -59.848  1.00  0.00     0.046 A 
HETATM   26  C   UNL     1     -40.857  61.782 -59.312  1.00  0.00     0.003 A 
HETATM   27  N   UNL     1     -42.033  60.893 -60.986  1.00  0.00    -0.346 N 
HETATM   28  C   UNL     1     -43.333  59.160 -59.653  1.00  0.00     0.033 A 
HETATM   29  C   UNL     1     -41.081  61.851 -60.687  1.00  0.00     0.046 A 
HETATM   30  C   UNL     1     -40.402  62.773 -61.502  1.00  0.00     0.030 A 
HETATM   31  C   UNL     1     -39.474  63.630 -60.902  1.00  0.00     0.002 A 
HETATM   32  C   UNL     1     -39.231  63.575 -59.534  1.00  0.00     0.001 A 
HETATM   33  C   UNL     1     -39.916  62.659 -58.729  1.00  0.00     0.014 A 
HETATM   34  C   UNL     1     -43.503  58.663 -58.353  1.00  0.00     0.032 A 
BRANCH  27  35
HETATM   35  C   UNL     1     -42.547  60.637 -62.323  1.00  0.00     0.125 C 
HETATM   36  C   UNL     1     -43.814  61.425 -62.610  1.00  0.00     0.027 C 
ENDBRANCH  27  35
ENDBRANCH   1  22
TORSDOF 4
ENDMDL
MODEL 5
REMARK VINA RESULT:      -9.6      3.128     10.739
REMARK  4 active torsions:
REMARK  status: ('A' for Active; 'I' for Inactive)
REMARK    1  A    between atoms: C_2  and  N_3 
REMARK    2  A    between atoms: C_7  and  N_8 
REMARK       I    between atoms: N_8  and  C_9 
REMARK    3  A    between atoms: C_9  and  C_10 
REMARK    4  A    between atoms: C_10  and  N_11 
ROOT
HETATM    1  N   UNL     1     -42.266  59.089 -52.256  1.00  0.00    -0.326 N 
HETATM    2  C   UNL     1     -41.115  58.957 -51.505  1.00  0.00     0.242 C 
HETATM    3  O   UNL     1     -40.065  59.573 -51.680  1.00  0.00    -0.271 OA
HETATM    4  H   UNL     1     -43.027  58.475 -51.970  1.00  0.00     0.169 HD
ENDROOT
BRANCH   2   5
HETATM    5  C   UNL     1     -41.163  57.832 -50.469  1.00  0.00     0.257 C 
BRANCH   5   6
HETATM    6  N   UNL     1     -41.217  56.454 -50.961  1.00  0.00    -0.224 N 
HETATM    7  N   UNL     1     -41.233  56.279 -52.364  1.00  0.00    -0.180 NA
HETATM    8  C   UNL     1     -41.011  55.097 -52.869  1.00  0.00     0.153 A 
HETATM    9  C   UNL     1     -40.737  53.970 -52.025  1.00  0.00     0.028 A 
HETATM   10  C   UNL     1     -40.759  54.146 -50.666  1.00  0.00     0.116 A 
HETATM   11  C   UNL     1     -40.373  52.623 -52.288  1.00  0.00     0.005 A 
HETATM   12  N   UNL     1     -40.453  52.955 -50.072  1.00  0.00    -0.350 N 
HETATM   13  C   UNL     1     -41.006  55.408 -50.034  1.00  0.00     0.291 A 
HETATM   14  H   UNL     1     -40.382  52.809 -49.073  1.00  0.00     0.166 HD
HETATM   15  C   UNL     1     -40.184  52.012 -51.043  1.00  0.00     0.044 A 
HETATM   16  C   UNL     1     -39.776  50.680 -50.912  1.00  0.00     0.031 A 
HETATM   17  C   UNL     1     -39.550  49.953 -52.085  1.00  0.00     0.009 A 
HETATM   18  C   UNL     1     -39.743  50.522 -53.348  1.00  0.00    -0.061 A 
HETATM   19  C   UNL     1     -39.451  49.728 -54.590  1.00  0.00     0.048 C 
HETATM   20  C   UNL     1     -40.148  51.864 -53.454  1.00  0.00     0.021 A 
HETATM   21  O   UNL     1     -40.984  55.546 -48.817  1.00  0.00    -0.264 OA
ENDBRANCH   5   6
ENDBRANCH   2   5
BRANCH   1  22
HETATM   22  C   UNL     1     -42.478  59.916 -53.379  1.00  0.00     0.035 A 
HETATM   23  C   UNL     1     -42.245  59.504 -54.695  1.00  0.00     0.044 A 
HETATM   24  C   UNL     1     -42.511  60.375 -55.778  1.00  0.00     0.005 A 
HETATM   25  C   UNL     1     -42.993  61.656 -55.513  1.00  0.00     0.046 A 
HETATM   26  C   UNL     1     -42.400  60.236 -57.196  1.00  0.00     0.003 A 
HETATM   27  N   UNL     1     -43.155  62.284 -56.734  1.00  0.00    -0.346 N 
HETATM   28  C   UNL     1     -43.224  62.095 -54.199  1.00  0.00     0.033 A 
HETATM   29  C   UNL     1     -42.805  61.440 -57.773  1.00  0.00     0.046 A 
HETATM   30  C   UNL     1     -42.806  61.631 -59.165  1.00  0.00     0.030 A 
HETATM   31  C   UNL     1     -42.395  60.570 -59.979  1.00  0.00     0.002 A 
HETATM   32  C   UNL     1     -41.992  59.360 -59.426  1.00  0.00     0.001 A 
HETATM   33  C   UNL     1     -41.988  59.181 -58.039  1.00  0.00     0.014 A 
HETATM   34  C   UNL     1     -42.966  61.203 -53.148  1.00  0.00     0.032 A 
BRANCH  27  35
HETATM   35  C   UNL     1     -43.636  63.646 -56.910  1.00  0.00     0.125 C 
HETATM   36  C   UNL     1     -42.503  64.656 -56.933  1.00  0.00     0.027 C 
ENDBRANCH  27  35
ENDBRANCH   1  22
TORSDOF 4
ENDMDL
MODEL 6
REMARK VINA RESULT:      -9.6      1.791      2.481
REMARK  4 active torsions:
REMARK  status: ('A' for Active; 'I' for Inactive)
REMARK    1  A    between atoms: C_2  and  N_3 
REMARK    2  A    between atoms: C_7  and  N_8 
REMARK       I    between atoms: N_8  and  C_9 
REMARK    3  A    between atoms: C_9  and  C_10 
REMARK    4  A    between atoms: C_10  and  N_11 
ROOT
HETATM    1  N   UNL     1     -43.005  58.054 -53.831  1.00  0.00    -0.326 N 
HETATM    2  C   UNL     1     -44.182  57.923 -54.540  1.00  0.00     0.242 C 
HETATM    3  O   UNL     1     -44.863  56.902 -54.624  1.00  0.00    -0.271 OA
HETATM    4  H   UNL     1     -42.574  58.975 -53.900  1.00  0.00     0.169 HD
ENDROOT
BRANCH   2   5
HETATM    5  C   UNL     1     -44.548  59.143 -55.388  1.00  0.00     0.257 C 
BRANCH   5   6
HETATM    6  N   UNL     1     -43.673  59.478 -56.513  1.00  0.00    -0.224 N 
HETATM    7  N   UNL     1     -44.144  59.153 -57.806  1.00  0.00    -0.180 NA
HETATM    8  C   UNL     1     -43.553  59.655 -58.855  1.00  0.00     0.153 A 
HETATM    9  C   UNL     1     -42.437  60.546 -58.719  1.00  0.00     0.028 A 
HETATM   10  C   UNL     1     -41.967  60.825 -57.462  1.00  0.00     0.116 A 
HETATM   11  C   UNL     1     -41.676  61.301 -59.649  1.00  0.00     0.005 A 
HETATM   12  N   UNL     1     -40.926  61.700 -57.575  1.00  0.00    -0.350 N 
HETATM   13  C   UNL     1     -42.554  60.304 -56.263  1.00  0.00     0.291 A 
HETATM   14  H   UNL     1     -40.407  62.086 -56.796  1.00  0.00     0.166 HD
HETATM   15  C   UNL     1     -40.744  62.031 -58.902  1.00  0.00     0.044 A 
HETATM   16  C   UNL     1     -39.843  62.926 -59.490  1.00  0.00     0.031 A 
HETATM   17  C   UNL     1     -39.897  63.084 -60.878  1.00  0.00     0.009 A 
HETATM   18  C   UNL     1     -40.803  62.361 -61.662  1.00  0.00    -0.061 A 
HETATM   19  C   UNL     1     -40.865  62.583 -63.146  1.00  0.00     0.048 C 
HETATM   20  C   UNL     1     -41.701  61.472 -61.049  1.00  0.00     0.021 A 
HETATM   21  O   UNL     1     -42.138  60.599 -55.149  1.00  0.00    -0.264 OA
ENDBRANCH   5   6
ENDBRANCH   2   5
BRANCH   1  22
HETATM   22  C   UNL     1     -42.324  57.066 -53.090  1.00  0.00     0.035 A 
HETATM   23  C   UNL     1     -41.986  55.811 -53.606  1.00  0.00     0.044 A 
HETATM   24  C   UNL     1     -41.272  54.878 -52.816  1.00  0.00     0.005 A 
HETATM   25  C   UNL     1     -40.926  55.223 -51.511  1.00  0.00     0.046 A 
HETATM   26  C   UNL     1     -40.776  53.561 -53.066  1.00  0.00     0.003 A 
HETATM   27  N   UNL     1     -40.253  54.140 -50.976  1.00  0.00    -0.346 N 
HETATM   28  C   UNL     1     -41.265  56.473 -50.967  1.00  0.00     0.033 A 
HETATM   29  C   UNL     1     -40.145  53.119 -51.903  1.00  0.00     0.046 A 
HETATM   30  C   UNL     1     -39.552  51.847 -51.820  1.00  0.00     0.030 A 
HETATM   31  C   UNL     1     -39.599  51.020 -52.947  1.00  0.00     0.002 A 
HETATM   32  C   UNL     1     -40.218  51.443 -54.118  1.00  0.00     0.001 A 
HETATM   33  C   UNL     1     -40.811  52.707 -54.190  1.00  0.00     0.014 A 
HETATM   34  C   UNL     1     -41.957  57.382 -51.780  1.00  0.00     0.032 A 
BRANCH  27  35
HETATM   35  C   UNL     1     -39.719  54.079 -49.623  1.00  0.00     0.125 C 
HETATM   36  C   UNL     1     -40.731  53.534 -48.632  1.00  0.00     0.027 C 
ENDBRANCH  27  35
ENDBRANCH   1  22
TORSDOF 4
ENDMDL
MODEL 7
REMARK VINA RESULT:      -9.5      3.971     10.452
REMARK  4 active torsions:
REMARK  status: ('A' for Active; 'I' for Inactive)
REMARK    1  A    between atoms: C_2  and  N_3 
REMARK    2  A    between atoms: C_7  and  N_8 
REMARK       I    between atoms: N_8  and  C_9 
REMARK    3  A    between atoms: C_9  and  C_10 
REMARK    4  A    between atoms: C_10  and  N_11 
ROOT
HETATM    1  N   UNL     1     -43.795  58.974 -54.952  1.00  0.00    -0.326 N 
HETATM    2  C   UNL     1     -42.471  59.322 -54.773  1.00  0.00     0.242 C 
HETATM    3  O   UNL     1     -41.785  59.976 -55.557  1.00  0.00    -0.271 OA
HETATM    4  H   UNL     1     -44.187  58.409 -54.200  1.00  0.00     0.169 HD
ENDROOT
BRANCH   2   5
HETATM    5  C   UNL     1     -41.814  58.691 -53.543  1.00  0.00     0.257 C 
BRANCH   5   6
HETATM    6  N   UNL     1     -41.754  57.230 -53.477  1.00  0.00    -0.224 N 
HETATM    7  N   UNL     1     -41.801  56.534 -54.707  1.00  0.00    -0.180 NA
HETATM    8  C   UNL     1     -41.486  55.268 -54.745  1.00  0.00     0.153 A 
HETATM    9  C   UNL     1     -41.077  54.571 -53.560  1.00  0.00     0.028 A 
HETATM   10  C   UNL     1     -41.070  55.248 -52.368  1.00  0.00     0.116 A 
HETATM   11  C   UNL     1     -40.597  53.257 -53.321  1.00  0.00     0.005 A 
HETATM   12  N   UNL     1     -40.632  54.399 -51.393  1.00  0.00    -0.350 N 
HETATM   13  C   UNL     1     -41.413  56.633 -52.242  1.00  0.00     0.291 A 
HETATM   14  H   UNL     1     -40.513  54.649 -50.419  1.00  0.00     0.166 HD
HETATM   15  C   UNL     1     -40.308  53.181 -51.954  1.00  0.00     0.044 A 
HETATM   16  C   UNL     1     -39.771  52.033 -51.360  1.00  0.00     0.031 A 
HETATM   17  C   UNL     1     -39.517  50.933 -52.186  1.00  0.00     0.009 A 
HETATM   18  C   UNL     1     -39.807  50.964 -53.554  1.00  0.00    -0.061 A 
HETATM   19  C   UNL     1     -39.484  49.782 -54.424  1.00  0.00     0.048 C 
HETATM   20  C   UNL     1     -40.341  52.130 -54.129  1.00  0.00     0.021 A 
HETATM   21  O   UNL     1     -41.362  57.225 -51.170  1.00  0.00    -0.264 OA
ENDBRANCH   5   6
ENDBRANCH   2   5
BRANCH   1  22
HETATM   22  C   UNL     1     -44.624  59.260 -56.057  1.00  0.00     0.035 A 
HETATM   23  C   UNL     1     -44.978  58.311 -57.022  1.00  0.00     0.044 A 
HETATM   24  C   UNL     1     -45.842  58.658 -58.088  1.00  0.00     0.005 A 
HETATM   25  C   UNL     1     -46.322  59.964 -58.171  1.00  0.00     0.046 A 
HETATM   26  C   UNL     1     -46.389  57.922 -59.184  1.00  0.00     0.003 A 
HETATM   27  N   UNL     1     -47.125  60.025 -59.295  1.00  0.00    -0.346 N 
HETATM   28  C   UNL     1     -45.972  60.937 -57.220  1.00  0.00     0.033 A 
HETATM   29  C   UNL     1     -47.185  58.795 -59.926  1.00  0.00     0.046 A 
HETATM   30  C   UNL     1     -47.865  58.376 -61.082  1.00  0.00     0.030 A 
HETATM   31  C   UNL     1     -47.734  57.041 -61.479  1.00  0.00     0.002 A 
HETATM   32  C   UNL     1     -46.951  56.153 -60.752  1.00  0.00     0.001 A 
HETATM   33  C   UNL     1     -46.273  56.580 -59.607  1.00  0.00     0.014 A 
HETATM   34  C   UNL     1     -45.127  60.558 -56.167  1.00  0.00     0.032 A 
BRANCH  27  35
HETATM   35  C   UNL     1     -47.823  61.217 -59.754  1.00  0.00     0.125 C 
HETATM   36  C   UNL     1     -49.263  61.258 -59.273  1.00  0.00     0.027 C 
ENDBRANCH  27  35
ENDBRANCH   1  22
TORSDOF 4
ENDMDL
MODEL 8
REMARK VINA RESULT:      -9.4      3.329      4.847
REMARK  4 active torsions:
REMARK  status: ('A' for Active; 'I' for Inactive)
REMARK    1  A    between atoms: C_2  and  N_3 
REMARK    2  A    between atoms: C_7  and  N_8 
REMARK       I    between atoms: N_8  and  C_9 
REMARK    3  A    between atoms: C_9  and  C_10 
REMARK    4  A    between atoms: C_10  and  N_11 
ROOT
HETATM    1  N   UNL     1     -41.937  56.113 -56.330  1.00  0.00    -0.326 N 
HETATM    2  C   UNL     1     -42.870  55.691 -57.256  1.00  0.00     0.242 C 
HETATM    3  O   UNL     1     -43.523  54.650 -57.199  1.00  0.00    -0.271 OA
HETATM    4  H   UNL     1     -41.483  56.995 -56.563  1.00  0.00     0.169 HD
ENDROOT
BRANCH   2   5
HETATM    5  C   UNL     1     -42.955  56.565 -58.510  1.00  0.00     0.257 C 
BRANCH   5   6
HETATM    6  N   UNL     1     -44.046  57.538 -58.589  1.00  0.00    -0.224 N 
HETATM    7  N   UNL     1     -45.258  57.091 -59.164  1.00  0.00    -0.180 NA
HETATM    8  C   UNL     1     -46.341  57.806 -59.026  1.00  0.00     0.153 A 
HETATM    9  C   UNL     1     -46.326  59.036 -58.288  1.00  0.00     0.028 A 
HETATM   10  C   UNL     1     -45.138  59.476 -57.766  1.00  0.00     0.116 A 
HETATM   11  C   UNL     1     -47.341  59.950 -57.901  1.00  0.00     0.005 A 
HETATM   12  N   UNL     1     -45.367  60.642 -57.095  1.00  0.00    -0.350 N 
HETATM   13  C   UNL     1     -43.905  58.755 -57.885  1.00  0.00     0.291 A 
HETATM   14  H   UNL     1     -44.661  61.172 -56.598  1.00  0.00     0.166 HD
HETATM   15  C   UNL     1     -46.713  60.942 -57.138  1.00  0.00     0.044 A 
HETATM   16  C   UNL     1     -47.418  61.997 -56.549  1.00  0.00     0.031 A 
HETATM   17  C   UNL     1     -48.802  62.041 -56.740  1.00  0.00     0.009 A 
HETATM   18  C   UNL     1     -49.465  61.078 -57.510  1.00  0.00    -0.061 A 
HETATM   19  C   UNL     1     -50.958  61.127 -57.663  1.00  0.00     0.048 C 
HETATM   20  C   UNL     1     -48.736  60.024 -58.087  1.00  0.00     0.021 A 
HETATM   21  O   UNL     1     -42.864  59.152 -57.377  1.00  0.00    -0.264 OA
ENDBRANCH   5   6
ENDBRANCH   2   5
BRANCH   1  22
HETATM   22  C   UNL     1     -41.514  55.448 -55.161  1.00  0.00     0.035 A 
HETATM   23  C   UNL     1     -41.190  54.088 -55.121  1.00  0.00     0.044 A 
HETATM   24  C   UNL     1     -40.740  53.492 -53.919  1.00  0.00     0.005 A 
HETATM   25  C   UNL     1     -40.641  54.276 -52.771  1.00  0.00     0.046 A 
HETATM   26  C   UNL     1     -40.321  52.168 -53.579  1.00  0.00     0.003 A 
HETATM   27  N   UNL     1     -40.192  53.450 -51.758  1.00  0.00    -0.346 N 
HETATM   28  C   UNL     1     -40.972  55.641 -52.784  1.00  0.00     0.033 A 
HETATM   29  C   UNL     1     -39.985  52.164 -52.225  1.00  0.00     0.046 A 
HETATM   30  C   UNL     1     -39.538  51.000 -51.577  1.00  0.00     0.030 A 
HETATM   31  C   UNL     1     -39.424  49.826 -52.329  1.00  0.00     0.002 A 
HETATM   32  C   UNL     1     -39.748  49.809 -53.680  1.00  0.00     0.001 A 
HETATM   33  C   UNL     1     -40.199  50.970 -54.316  1.00  0.00     0.014 A 
HETATM   34  C   UNL     1     -41.399  56.207 -53.994  1.00  0.00     0.032 A 
BRANCH  27  35
HETATM   35  C   UNL     1     -39.956  53.871 -50.385  1.00  0.00     0.125 C 
HETATM   36  C   UNL     1     -41.240  53.941 -49.578  1.00  0.00     0.027 C 
ENDBRANCH  27  35
ENDBRANCH   1  22
TORSDOF 4
ENDMDL
MODEL 9
REMARK VINA RESULT:      -9.4      6.452     11.042
REMARK  4 active torsions:
REMARK  status: ('A' for Active; 'I' for Inactive)
REMARK    1  A    between atoms: C_2  and  N_3 
REMARK    2  A    between atoms: C_7  and  N_8 
REMARK       I    between atoms: N_8  and  C_9 
REMARK    3  A    between atoms: C_9  and  C_10 
REMARK    4  A    between atoms: C_10  and  N_11 
ROOT
HETATM    1  N   UNL     1     -43.276  60.489 -52.382  1.00  0.00    -0.326 N 
HETATM    2  C   UNL     1     -43.496  59.265 -52.980  1.00  0.00     0.242 C 
HETATM    3  O   UNL     1     -44.548  58.628 -52.954  1.00  0.00    -0.271 OA
HETATM    4  H   UNL     1     -42.329  60.849 -52.496  1.00  0.00     0.169 HD
ENDROOT
BRANCH   2   5
HETATM    5  C   UNL     1     -42.247  58.629 -53.594  1.00  0.00     0.257 C 
BRANCH   5   6
HETATM    6  N   UNL     1     -42.116  57.173 -53.519  1.00  0.00    -0.224 N 
HETATM    7  N   UNL     1     -42.218  56.461 -54.737  1.00  0.00    -0.180 NA
HETATM    8  C   UNL     1     -41.849  55.210 -54.786  1.00  0.00     0.153 A 
HETATM    9  C   UNL     1     -41.328  54.546 -53.626  1.00  0.00     0.028 A 
HETATM   10  C   UNL     1     -41.268  55.237 -52.444  1.00  0.00     0.116 A 
HETATM   11  C   UNL     1     -40.774  53.257 -53.410  1.00  0.00     0.005 A 
HETATM   12  N   UNL     1     -40.726  54.420 -51.495  1.00  0.00    -0.350 N 
HETATM   13  C   UNL     1     -41.664  56.607 -52.306  1.00  0.00     0.291 A 
HETATM   14  H   UNL     1     -40.550  54.686 -50.534  1.00  0.00     0.166 HD
HETATM   15  C   UNL     1     -40.387  53.210 -52.066  1.00  0.00     0.044 A 
HETATM   16  C   UNL     1     -39.759  52.095 -51.502  1.00  0.00     0.031 A 
HETATM   17  C   UNL     1     -39.514  50.997 -52.334  1.00  0.00     0.009 A 
HETATM   18  C   UNL     1     -39.900  50.999 -53.678  1.00  0.00    -0.061 A 
HETATM   19  C   UNL     1     -39.586  49.822 -54.558  1.00  0.00     0.048 C 
HETATM   20  C   UNL     1     -40.525  52.133 -54.224  1.00  0.00     0.021 A 
HETATM   21  O   UNL     1     -41.565  57.213 -51.246  1.00  0.00    -0.264 OA
ENDBRANCH   5   6
ENDBRANCH   2   5
BRANCH   1  22
HETATM   22  C   UNL     1     -44.175  61.248 -51.604  1.00  0.00     0.035 A 
HETATM   23  C   UNL     1     -44.260  61.153 -50.210  1.00  0.00     0.044 A 
HETATM   24  C   UNL     1     -45.163  61.970 -49.489  1.00  0.00     0.005 A 
HETATM   25  C   UNL     1     -45.979  62.858 -50.188  1.00  0.00     0.046 A 
HETATM   26  C   UNL     1     -45.453  62.115 -48.097  1.00  0.00     0.003 A 
HETATM   27  N   UNL     1     -46.755  63.513 -49.250  1.00  0.00    -0.346 N 
HETATM   28  C   UNL     1     -45.919  62.962 -51.588  1.00  0.00     0.033 A 
HETATM   29  C   UNL     1     -46.451  63.082 -47.971  1.00  0.00     0.046 A 
HETATM   30  C   UNL     1     -46.967  63.454 -46.718  1.00  0.00     0.030 A 
HETATM   31  C   UNL     1     -46.448  62.833 -45.577  1.00  0.00     0.002 A 
HETATM   32  C   UNL     1     -45.450  61.871 -45.679  1.00  0.00     0.001 A 
HETATM   33  C   UNL     1     -44.946  61.502 -46.930  1.00  0.00     0.014 A 
HETATM   34  C   UNL     1     -45.002  62.152 -52.273  1.00  0.00     0.032 A 
BRANCH  27  35
HETATM   35  C   UNL     1     -47.752  64.526 -49.559  1.00  0.00     0.125 C 
HETATM   36  C   UNL     1     -49.107  63.919 -49.877  1.00  0.00     0.027 C 
ENDBRANCH  27  35
ENDBRANCH   1  22
TORSDOF 4
ENDMDL
MODEL 10
REMARK VINA RESULT:      -9.3      5.466      7.645
REMARK  4 active torsions:
REMARK  status: ('A' for Active; 'I' for Inactive)
REMARK    1  A    between atoms: C_2  and  N_3 
REMARK    2  A    between atoms: C_7  and  N_8 
REMARK       I    between atoms: N_8  and  C_9 
REMARK    3  A    between atoms: C_9  and  C_10 
REMARK    4  A    between atoms: C_10  and  N_11 
ROOT
HETATM    1  N   UNL     1     -42.008  57.826 -54.257  1.00  0.00    -0.326 N 
HETATM    2  C   UNL     1     -41.393  59.032 -53.983  1.00  0.00     0.242 C 
HETATM    3  O   UNL     1     -40.274  59.176 -53.493  1.00  0.00    -0.271 OA
HETATM    4  H   UNL     1     -42.947  57.911 -54.643  1.00  0.00     0.169 HD
ENDROOT
BRANCH   2   5
HETATM    5  C   UNL     1     -42.284  60.257 -54.198  1.00  0.00     0.257 C 
BRANCH   5   6
HETATM    6  N   UNL     1     -43.064  60.741 -53.058  1.00  0.00    -0.224 N 
HETATM    7  N   UNL     1     -43.458  59.778 -52.100  1.00  0.00    -0.180 NA
HETATM    8  C   UNL     1     -43.914  60.167 -50.942  1.00  0.00     0.153 A 
HETATM    9  C   UNL     1     -44.011  61.561 -50.615  1.00  0.00     0.028 A 
HETATM   10  C   UNL     1     -43.660  62.485 -51.564  1.00  0.00     0.116 A 
HETATM   11  C   UNL     1     -44.367  62.260 -49.432  1.00  0.00     0.005 A 
HETATM   12  N   UNL     1     -43.811  63.731 -51.029  1.00  0.00    -0.350 N 
HETATM   13  C   UNL     1     -43.162  62.137 -52.862  1.00  0.00     0.291 A 
HETATM   14  H   UNL     1     -43.603  64.597 -51.511  1.00  0.00     0.166 HD
HETATM   15  C   UNL     1     -44.217  63.623 -49.715  1.00  0.00     0.044 A 
HETATM   16  C   UNL     1     -44.444  64.619 -48.759  1.00  0.00     0.031 A 
HETATM   17  C   UNL     1     -44.831  64.214 -47.478  1.00  0.00     0.009 A 
HETATM   18  C   UNL     1     -45.008  62.863 -47.160  1.00  0.00    -0.061 A 
HETATM   19  C   UNL     1     -45.384  62.457 -45.764  1.00  0.00     0.048 C 
HETATM   20  C   UNL     1     -44.769  61.880 -48.135  1.00  0.00     0.021 A 
HETATM   21  O   UNL     1     -42.819  62.983 -53.679  1.00  0.00    -0.264 OA
ENDBRANCH   5   6
ENDBRANCH   2   5
BRANCH   1  22
HETATM   22  C   UNL     1     -41.515  56.527 -54.015  1.00  0.00     0.035 A 
HETATM   23  C   UNL     1     -41.436  55.957 -52.740  1.00  0.00     0.044 A 
HETATM   24  C   UNL     1     -40.961  54.634 -52.573  1.00  0.00     0.005 A 
HETATM   25  C   UNL     1     -40.558  53.914 -53.696  1.00  0.00     0.046 A 
HETATM   26  C   UNL     1     -40.792  53.792 -51.430  1.00  0.00     0.003 A 
HETATM   27  N   UNL     1     -40.139  52.675 -53.247  1.00  0.00    -0.346 N 
HETATM   28  C   UNL     1     -40.617  54.470 -54.984  1.00  0.00     0.033 A 
HETATM   29  C   UNL     1     -40.276  52.574 -51.874  1.00  0.00     0.046 A 
HETATM   30  C   UNL     1     -39.988  51.524 -50.986  1.00  0.00     0.030 A 
HETATM   31  C   UNL     1     -40.242  51.721 -49.625  1.00  0.00     0.002 A 
HETATM   32  C   UNL     1     -40.762  52.924 -49.161  1.00  0.00     0.001 A 
HETATM   33  C   UNL     1     -41.038  53.966 -50.051  1.00  0.00     0.014 A 
HETATM   34  C   UNL     1     -41.108  55.777 -55.119  1.00  0.00     0.032 A 
BRANCH  27  35
HETATM   35  C   UNL     1     -39.630  51.611 -54.100  1.00  0.00     0.125 C 
HETATM   36  C   UNL     1     -40.652  50.507 -54.310  1.00  0.00     0.027 C 
ENDBRANCH  27  35
ENDBRANCH   1  22
TORSDOF 4
ENDMDL
