MODEL 1
REMARK VINA RESULT:      -8.6      0.000      0.000
REMARK  3 active torsions:
REMARK  status: ('A' for Active; 'I' for Inactive)
REMARK    1  A    between atoms: C_4  and  C_5 
REMARK    2  A    between atoms: C_5  and  N_6 
REMARK    3  A    between atoms: C_16  and  C_17 
ROOT
HETATM    1  N   UNL     1     -43.626  59.326 -58.381  1.00  0.00    -0.065 N 
HETATM    2  H   UNL     1     -43.317  60.315 -58.426  1.00  0.00     0.280 HD
HETATM    3  C   UNL     1     -42.426  58.503 -58.022  1.00  0.00     0.238 C 
HETATM    4  C   UNL     1     -42.236  58.527 -56.516  1.00  0.00     0.077 C 
HETATM    5  C   UNL     1     -43.424  57.850 -55.766  1.00  0.00     0.218 C 
HETATM    6  N   UNL     1     -43.601  58.548 -54.458  1.00  0.00     0.102 N 
HETATM    7  C   UNL     1     -42.445  58.320 -53.555  1.00  0.00     0.291 C 
HETATM    8  C   UNL     1     -41.987  56.850 -53.336  1.00  0.00     0.160 C 
HETATM    9  N   UNL     1     -42.361  55.931 -54.437  1.00  0.00    -0.331 N 
HETATM   10  C   UNL     1     -43.099  56.356 -55.484  1.00  0.00     0.123 A 
HETATM   11  C   UNL     1     -42.162  54.530 -54.506  1.00  0.00     0.061 A 
HETATM   12  C   UNL     1     -42.937  54.145 -55.584  1.00  0.00     0.120 A 
HETATM   13  N   UNL     1     -43.483  55.270 -56.155  1.00  0.00    -0.351 N 
HETATM   14  H   UNL     1     -44.116  55.234 -56.949  1.00  0.00     0.166 HD
HETATM   15  C   UNL     1     -44.734  58.031 -56.578  1.00  0.00     0.077 C 
HETATM   16  C   UNL     1     -44.748  59.334 -57.366  1.00  0.00     0.238 C 
HETATM   17  H   UNL     1     -44.438  58.198 -53.978  1.00  0.00     0.317 HD
ENDROOT
BRANCH   1  18
HETATM   18  C   UNL     1     -44.084  59.098 -59.819  1.00  0.00     0.299 C 
BRANCH  18  19
HETATM   19  C   UNL     1     -44.955  57.908 -59.953  1.00  0.00     0.079 A 
HETATM   20  O   UNL     1     -44.333  56.694 -59.860  1.00  0.00    -0.318 OA
HETATM   21  C   UNL     1     -45.303  55.743 -59.980  1.00  0.00     0.049 A 
HETATM   22  C   UNL     1     -44.874  54.330 -59.901  1.00  0.00     0.076 C 
HETATM   23  C   UNL     1     -46.534  56.341 -60.144  1.00  0.00     0.035 A 
HETATM   24  C   UNL     1     -46.310  57.738 -60.127  1.00  0.00     0.037 A 
ENDBRANCH  18  19
ENDBRANCH   1  18
BRANCH  11  25
HETATM   25  C   UNL     1     -41.332  53.587 -53.667  1.00  0.00    -0.008 A 
HETATM   26  C   UNL     1     -41.273  53.690 -52.276  1.00  0.00     0.014 A 
HETATM   27  C   UNL     1     -40.448  52.836 -51.534  1.00  0.00     0.001 A 
HETATM   28  C   UNL     1     -39.676  51.871 -52.172  1.00  0.00     0.000 A 
HETATM   29  C   UNL     1     -39.729  51.753 -53.556  1.00  0.00     0.001 A 
HETATM   30  C   UNL     1     -40.550  52.606 -54.301  1.00  0.00     0.014 A 
ENDBRANCH  11  25
TORSDOF 3
ENDMDL
MODEL 2
REMARK VINA RESULT:      -8.5      2.988      4.444
REMARK  3 active torsions:
REMARK  status: ('A' for Active; 'I' for Inactive)
REMARK    1  A    between atoms: C_4  and  C_5 
REMARK    2  A    between atoms: C_5  and  N_6 
REMARK    3  A    between atoms: C_16  and  C_17 
ROOT
HETATM    1  N   UNL     1     -41.964  60.018 -52.630  1.00  0.00    -0.065 N 
HETATM    2  H   UNL     1     -41.514  60.736 -52.031  1.00  0.00     0.280 HD
HETATM    3  C   UNL     1     -40.900  59.036 -53.020  1.00  0.00     0.238 C 
HETATM    4  C   UNL     1     -40.727  58.019 -51.907  1.00  0.00     0.077 C 
HETATM    5  C   UNL     1     -42.010  57.157 -51.699  1.00  0.00     0.218 C 
HETATM    6  N   UNL     1     -42.100  56.807 -50.250  1.00  0.00     0.102 N 
HETATM    7  C   UNL     1     -41.000  55.900 -49.836  1.00  0.00     0.291 C 
HETATM    8  C   UNL     1     -40.762  54.625 -50.696  1.00  0.00     0.160 C 
HETATM    9  N   UNL     1     -41.252  54.738 -52.090  1.00  0.00    -0.331 N 
HETATM   10  C   UNL     1     -41.908  55.838 -52.516  1.00  0.00     0.123 A 
HETATM   11  C   UNL     1     -41.257  53.737 -53.093  1.00  0.00     0.061 A 
HETATM   12  C   UNL     1     -42.067  54.271 -54.079  1.00  0.00     0.120 A 
HETATM   13  N   UNL     1     -42.437  55.540 -53.703  1.00  0.00    -0.351 N 
HETATM   14  H   UNL     1     -43.059  56.121 -54.258  1.00  0.00     0.166 HD
HETATM   15  C   UNL     1     -43.270  57.986 -52.063  1.00  0.00     0.077 C 
HETATM   16  C   UNL     1     -43.085  59.470 -51.774  1.00  0.00     0.238 C 
HETATM   17  H   UNL     1     -42.984  56.324 -50.054  1.00  0.00     0.317 HD
ENDROOT
BRANCH   1  18
HETATM   18  C   UNL     1     -42.432  60.872 -53.806  1.00  0.00     0.299 C 
BRANCH  18  19
HETATM   19  C   UNL     1     -42.729  60.062 -55.009  1.00  0.00     0.079 A 
HETATM   20  O   UNL     1     -41.885  60.231 -56.072  1.00  0.00    -0.318 OA
HETATM   21  C   UNL     1     -42.311  59.386 -57.053  1.00  0.00     0.049 A 
HETATM   22  C   UNL     1     -41.542  59.378 -58.316  1.00  0.00     0.076 C 
HETATM   23  C   UNL     1     -43.414  58.679 -56.623  1.00  0.00     0.035 A 
HETATM   24  C   UNL     1     -43.684  59.116 -55.305  1.00  0.00     0.037 A 
ENDBRANCH  18  19
ENDBRANCH   1  18
BRANCH  11  25
HETATM   25  C   UNL     1     -40.583  52.389 -53.175  1.00  0.00    -0.008 A 
HETATM   26  C   UNL     1     -40.562  51.642 -54.355  1.00  0.00     0.014 A 
HETATM   27  C   UNL     1     -39.978  50.369 -54.381  1.00  0.00     0.001 A 
HETATM   28  C   UNL     1     -39.409  49.831 -53.232  1.00  0.00     0.000 A 
HETATM   29  C   UNL     1     -39.417  50.565 -52.052  1.00  0.00     0.001 A 
HETATM   30  C   UNL     1     -40.001  51.836 -52.021  1.00  0.00     0.014 A 
ENDBRANCH  11  25
TORSDOF 3
ENDMDL
MODEL 3
REMARK VINA RESULT:      -8.5     16.231     19.495
REMARK  3 active torsions:
REMARK  status: ('A' for Active; 'I' for Inactive)
REMARK    1  A    between atoms: C_4  and  C_5 
REMARK    2  A    between atoms: C_5  and  N_6 
REMARK    3  A    between atoms: C_16  and  C_17 
ROOT
HETATM    1  N   UNL     1     -33.965  40.330 -50.821  1.00  0.00    -0.065 N 
HETATM    2  H   UNL     1     -34.381  39.784 -50.043  1.00  0.00     0.280 HD
HETATM    3  C   UNL     1     -34.206  39.555 -52.082  1.00  0.00     0.238 C 
HETATM    4  C   UNL     1     -35.602  39.859 -52.596  1.00  0.00     0.077 C 
HETATM    5  C   UNL     1     -35.761  41.354 -53.008  1.00  0.00     0.218 C 
HETATM    6  N   UNL     1     -37.172  41.759 -52.737  1.00  0.00     0.102 N 
HETATM    7  C   UNL     1     -38.127  41.050 -53.626  1.00  0.00     0.291 C 
HETATM    8  C   UNL     1     -37.833  41.071 -55.153  1.00  0.00     0.160 C 
HETATM    9  N   UNL     1     -36.406  41.291 -55.490  1.00  0.00    -0.331 N 
HETATM   10  C   UNL     1     -35.487  41.523 -54.530  1.00  0.00     0.123 A 
HETATM   11  C   UNL     1     -35.830  41.439 -56.776  1.00  0.00     0.061 A 
HETATM   12  C   UNL     1     -34.554  41.898 -56.508  1.00  0.00     0.120 A 
HETATM   13  N   UNL     1     -34.377  41.931 -55.145  1.00  0.00    -0.351 N 
HETATM   14  H   UNL     1     -33.523  42.265 -54.707  1.00  0.00     0.166 HD
HETATM   15  C   UNL     1     -34.838  42.245 -52.136  1.00  0.00     0.077 C 
HETATM   16  C   UNL     1     -34.648  41.678 -50.735  1.00  0.00     0.238 C 
HETATM   17  H   UNL     1     -37.292  42.765 -52.901  1.00  0.00     0.317 HD
ENDROOT
BRANCH   1  18
HETATM   18  C   UNL     1     -32.494  40.344 -50.414  1.00  0.00     0.299 C 
BRANCH  18  19
HETATM   19  C   UNL     1     -32.257  39.645 -49.130  1.00  0.00     0.079 A 
HETATM   20  O   UNL     1     -31.289  40.177 -48.325  1.00  0.00    -0.318 OA
HETATM   21  C   UNL     1     -31.248  39.413 -47.197  1.00  0.00     0.049 A 
HETATM   22  C   UNL     1     -30.272  39.800 -46.156  1.00  0.00     0.076 C 
HETATM   23  C   UNL     1     -32.183  38.403 -47.276  1.00  0.00     0.035 A 
HETATM   24  C   UNL     1     -32.834  38.553 -48.523  1.00  0.00     0.037 A 
ENDBRANCH  18  19
ENDBRANCH   1  18
BRANCH  11  25
HETATM   25  C   UNL     1     -36.376  41.186 -58.161  1.00  0.00    -0.008 A 
HETATM   26  C   UNL     1     -36.991  42.192 -58.910  1.00  0.00     0.014 A 
HETATM   27  C   UNL     1     -37.537  41.910 -60.167  1.00  0.00     0.001 A 
HETATM   28  C   UNL     1     -37.476  40.623 -60.689  1.00  0.00     0.000 A 
HETATM   29  C   UNL     1     -36.863  39.612 -59.958  1.00  0.00     0.001 A 
HETATM   30  C   UNL     1     -36.317  39.890 -58.701  1.00  0.00     0.014 A 
ENDBRANCH  11  25
TORSDOF 3
ENDMDL
MODEL 4
REMARK VINA RESULT:      -8.5      1.305      1.555
REMARK  3 active torsions:
REMARK  status: ('A' for Active; 'I' for Inactive)
REMARK    1  A    between atoms: C_4  and  C_5 
REMARK    2  A    between atoms: C_5  and  N_6 
REMARK    3  A    between atoms: C_16  and  C_17 
ROOT
HETATM    1  N   UNL     1     -43.944  59.460 -56.746  1.00  0.00    -0.065 N 
HETATM    2  H   UNL     1     -43.772  60.465 -56.553  1.00  0.00     0.280 HD
HETATM    3  C   UNL     1     -42.662  58.731 -56.476  1.00  0.00     0.238 C 
HETATM    4  C   UNL     1     -42.554  58.443 -54.990  1.00  0.00     0.077 C 
HETATM    5  C   UNL     1     -43.674  57.475 -54.500  1.00  0.00     0.218 C 
HETATM    6  N   UNL     1     -44.012  57.836 -53.091  1.00  0.00     0.102 N 
HETATM    7  C   UNL     1     -42.882  57.557 -52.169  1.00  0.00     0.291 C 
HETATM    8  C   UNL     1     -42.238  56.142 -52.234  1.00  0.00     0.160 C 
HETATM    9  N   UNL     1     -42.426  55.453 -53.533  1.00  0.00    -0.331 N 
HETATM   10  C   UNL     1     -43.161  56.007 -54.520  1.00  0.00     0.123 A 
HETATM   11  C   UNL     1     -42.032  54.139 -53.883  1.00  0.00     0.061 A 
HETATM   12  C   UNL     1     -42.691  53.911 -55.078  1.00  0.00     0.120 A 
HETATM   13  N   UNL     1     -43.357  55.059 -55.436  1.00  0.00    -0.351 N 
HETATM   14  H   UNL     1     -43.938  55.123 -56.267  1.00  0.00     0.166 HD
HETATM   15  C   UNL     1     -44.954  57.669 -55.356  1.00  0.00     0.077 C 
HETATM   16  C   UNL     1     -45.106  59.103 -55.845  1.00  0.00     0.238 C 
HETATM   17  H   UNL     1     -44.815  57.287 -52.765  1.00  0.00     0.317 HD
ENDROOT
BRANCH   1  18
HETATM   18  C   UNL     1     -44.292  59.504 -58.231  1.00  0.00     0.299 C 
BRANCH  18  19
HETATM   19  C   UNL     1     -43.747  58.344 -58.974  1.00  0.00     0.079 A 
HETATM   20  O   UNL     1     -44.411  57.159 -58.811  1.00  0.00    -0.318 OA
HETATM   21  C   UNL     1     -43.774  56.239 -59.590  1.00  0.00     0.049 A 
HETATM   22  C   UNL     1     -44.319  54.865 -59.590  1.00  0.00     0.076 C 
HETATM   23  C   UNL     1     -42.716  56.828 -60.249  1.00  0.00     0.035 A 
HETATM   24  C   UNL     1     -42.698  58.186 -59.851  1.00  0.00     0.037 A 
ENDBRANCH  18  19
ENDBRANCH   1  18
BRANCH  11  25
HETATM   25  C   UNL     1     -41.124  53.142 -53.203  1.00  0.00    -0.008 A 
HETATM   26  C   UNL     1     -40.858  53.197 -51.833  1.00  0.00     0.014 A 
HETATM   27  C   UNL     1     -39.966  52.292 -51.245  1.00  0.00     0.001 A 
HETATM   28  C   UNL     1     -39.333  51.325 -52.016  1.00  0.00     0.000 A 
HETATM   29  C   UNL     1     -39.592  51.254 -53.380  1.00  0.00     0.001 A 
HETATM   30  C   UNL     1     -40.481  52.157 -53.972  1.00  0.00     0.014 A 
ENDBRANCH  11  25
TORSDOF 3
ENDMDL
MODEL 5
REMARK VINA RESULT:      -8.2      3.101      8.028
REMARK  3 active torsions:
REMARK  status: ('A' for Active; 'I' for Inactive)
REMARK    1  A    between atoms: C_4  and  C_5 
REMARK    2  A    between atoms: C_5  and  N_6 
REMARK    3  A    between atoms: C_16  and  C_17 
ROOT
HETATM    1  N   UNL     1     -41.870  54.576 -49.548  1.00  0.00    -0.065 N 
HETATM    2  H   UNL     1     -42.522  54.518 -48.743  1.00  0.00     0.280 HD
HETATM    3  C   UNL     1     -42.617  54.103 -50.759  1.00  0.00     0.238 C 
HETATM    4  C   UNL     1     -43.436  55.250 -51.321  1.00  0.00     0.077 C 
HETATM    5  C   UNL     1     -42.535  56.414 -51.837  1.00  0.00     0.218 C 
HETATM    6  N   UNL     1     -43.271  57.695 -51.623  1.00  0.00     0.102 N 
HETATM    7  C   UNL     1     -44.479  57.783 -52.482  1.00  0.00     0.291 C 
HETATM    8  C   UNL     1     -44.299  57.499 -54.001  1.00  0.00     0.160 C 
HETATM    9  N   UNL     1     -43.123  56.654 -54.322  1.00  0.00    -0.331 N 
HETATM   10  C   UNL     1     -42.268  56.250 -53.360  1.00  0.00     0.123 A 
HETATM   11  C   UNL     1     -42.644  56.283 -55.602  1.00  0.00     0.061 A 
HETATM   12  C   UNL     1     -41.394  55.753 -55.338  1.00  0.00     0.120 A 
HETATM   13  N   UNL     1     -41.201  55.742 -53.978  1.00  0.00    -0.351 N 
HETATM   14  H   UNL     1     -40.339  55.423 -53.545  1.00  0.00     0.166 HD
HETATM   15  C   UNL     1     -41.226  56.478 -51.007  1.00  0.00     0.077 C 
HETATM   16  C   UNL     1     -41.435  56.026 -49.567  1.00  0.00     0.238 C 
HETATM   17  H   UNL     1     -42.671  58.494 -51.858  1.00  0.00     0.317 HD
ENDROOT
BRANCH   1  18
HETATM   18  C   UNL     1     -40.781  53.600 -49.111  1.00  0.00     0.299 C 
BRANCH  18  19
HETATM   19  C   UNL     1     -40.258  52.796 -50.240  1.00  0.00     0.079 A 
HETATM   20  O   UNL     1     -40.296  51.439 -50.080  1.00  0.00    -0.318 OA
HETATM   21  C   UNL     1     -39.802  50.892 -51.227  1.00  0.00     0.049 A 
HETATM   22  C   UNL     1     -39.749  49.416 -51.302  1.00  0.00     0.076 C 
HETATM   23  C   UNL     1     -39.454  51.888 -52.115  1.00  0.00     0.035 A 
HETATM   24  C   UNL     1     -39.748  53.117 -51.478  1.00  0.00     0.037 A 
ENDBRANCH  18  19
ENDBRANCH   1  18
BRANCH  11  25
HETATM   25  C   UNL     1     -43.256  56.388 -56.978  1.00  0.00    -0.008 A 
HETATM   26  C   UNL     1     -43.168  55.352 -57.909  1.00  0.00     0.014 A 
HETATM   27  C   UNL     1     -43.698  55.505 -59.197  1.00  0.00     0.001 A 
HETATM   28  C   UNL     1     -44.320  56.692 -59.566  1.00  0.00     0.000 A 
HETATM   29  C   UNL     1     -44.420  57.731 -58.648  1.00  0.00     0.001 A 
HETATM   30  C   UNL     1     -43.892  57.583 -57.362  1.00  0.00     0.014 A 
ENDBRANCH  11  25
TORSDOF 3
ENDMDL
MODEL 6
REMARK VINA RESULT:      -8.2      4.951      7.423
REMARK  3 active torsions:
REMARK  status: ('A' for Active; 'I' for Inactive)
REMARK    1  A    between atoms: C_4  and  C_5 
REMARK    2  A    between atoms: C_5  and  N_6 
REMARK    3  A    between atoms: C_16  and  C_17 
ROOT
HETATM    1  N   UNL     1     -44.667  60.268 -50.808  1.00  0.00    -0.065 N 
HETATM    2  H   UNL     1     -45.174  60.895 -51.460  1.00  0.00     0.280 HD
HETATM    3  C   UNL     1     -44.836  58.869 -51.318  1.00  0.00     0.238 C 
HETATM    4  C   UNL     1     -43.804  58.603 -52.399  1.00  0.00     0.077 C 
HETATM    5  C   UNL     1     -42.348  58.652 -51.842  1.00  0.00     0.218 C 
HETATM    6  N   UNL     1     -41.458  59.166 -52.925  1.00  0.00     0.102 N 
HETATM    7  C   UNL     1     -41.365  58.210 -54.057  1.00  0.00     0.291 C 
HETATM    8  C   UNL     1     -41.021  56.730 -53.719  1.00  0.00     0.160 C 
HETATM    9  N   UNL     1     -41.372  56.332 -52.334  1.00  0.00    -0.331 N 
HETATM   10  C   UNL     1     -41.873  57.223 -51.455  1.00  0.00     0.123 A 
HETATM   11  C   UNL     1     -41.120  55.092 -51.698  1.00  0.00     0.061 A 
HETATM   12  C   UNL     1     -41.382  55.353 -50.365  1.00  0.00     0.120 A 
HETATM   13  N   UNL     1     -41.840  56.644 -50.254  1.00  0.00    -0.351 N 
HETATM   14  H   UNL     1     -42.071  57.073 -49.362  1.00  0.00     0.166 HD
HETATM   15  C   UNL     1     -42.269  59.648 -50.655  1.00  0.00     0.077 C 
HETATM   16  C   UNL     1     -43.251  60.802 -50.806  1.00  0.00     0.238 C 
HETATM   17  H   UNL     1     -40.507  59.308 -52.567  1.00  0.00     0.317 HD
ENDROOT
BRANCH   1  18
HETATM   18  C   UNL     1     -45.433  60.516 -49.511  1.00  0.00     0.299 C 
BRANCH  18  19
HETATM   19  C   UNL     1     -46.248  61.751 -49.564  1.00  0.00     0.079 A 
HETATM   20  O   UNL     1     -46.789  62.166 -48.379  1.00  0.00    -0.318 OA
HETATM   21  C   UNL     1     -47.469  63.319 -48.638  1.00  0.00     0.049 A 
HETATM   22  C   UNL     1     -48.142  63.975 -47.496  1.00  0.00     0.076 C 
HETATM   23  C   UNL     1     -47.363  63.642 -49.973  1.00  0.00     0.035 A 
HETATM   24  C   UNL     1     -46.575  62.630 -50.572  1.00  0.00     0.037 A 
ENDBRANCH  18  19
ENDBRANCH   1  18
BRANCH  11  25
HETATM   25  C   UNL     1     -40.676  53.753 -52.237  1.00  0.00    -0.008 A 
HETATM   26  C   UNL     1     -39.861  52.892 -51.500  1.00  0.00     0.014 A 
HETATM   27  C   UNL     1     -39.420  51.683 -52.053  1.00  0.00     0.001 A 
HETATM   28  C   UNL     1     -39.788  51.322 -53.344  1.00  0.00     0.000 A 
HETATM   29  C   UNL     1     -40.604  52.167 -54.087  1.00  0.00     0.001 A 
HETATM   30  C   UNL     1     -41.045  53.376 -53.540  1.00  0.00     0.014 A 
ENDBRANCH  11  25
TORSDOF 3
ENDMDL
MODEL 7
REMARK VINA RESULT:      -8.2      2.620      8.168
REMARK  3 active torsions:
REMARK  status: ('A' for Active; 'I' for Inactive)
REMARK    1  A    between atoms: C_4  and  C_5 
REMARK    2  A    between atoms: C_5  and  N_6 
REMARK    3  A    between atoms: C_16  and  C_17 
ROOT
HETATM    1  N   UNL     1     -41.129  53.569 -54.018  1.00  0.00    -0.065 N 
HETATM    2  H   UNL     1     -41.405  53.003 -53.194  1.00  0.00     0.280 HD
HETATM    3  C   UNL     1     -42.312  53.622 -54.937  1.00  0.00     0.238 C 
HETATM    4  C   UNL     1     -43.251  54.722 -54.479  1.00  0.00     0.077 C 
HETATM    5  C   UNL     1     -42.597  56.133 -54.589  1.00  0.00     0.218 C 
HETATM    6  N   UNL     1     -43.146  56.982 -53.490  1.00  0.00     0.102 N 
HETATM    7  C   UNL     1     -44.593  57.254 -53.678  1.00  0.00     0.291 C 
HETATM    8  C   UNL     1     -45.046  57.792 -55.066  1.00  0.00     0.160 C 
HETATM    9  N   UNL     1     -44.123  57.449 -56.175  1.00  0.00    -0.331 N 
HETATM   10  C   UNL     1     -42.968  56.792 -55.948  1.00  0.00     0.123 A 
HETATM   11  C   UNL     1     -44.209  57.851 -57.531  1.00  0.00     0.061 A 
HETATM   12  C   UNL     1     -42.975  57.504 -58.050  1.00  0.00     0.120 A 
HETATM   13  N   UNL     1     -42.253  56.862 -57.072  1.00  0.00    -0.351 N 
HETATM   14  H   UNL     1     -41.301  56.538 -57.211  1.00  0.00     0.166 HD
HETATM   15  C   UNL     1     -41.064  56.024 -54.379  1.00  0.00     0.077 C 
HETATM   16  C   UNL     1     -40.693  54.893 -53.428  1.00  0.00     0.238 C 
HETATM   17  H   UNL     1     -42.666  57.888 -53.466  1.00  0.00     0.317 HD
ENDROOT
BRANCH   1  18
HETATM   18  C   UNL     1     -39.987  52.726 -54.580  1.00  0.00     0.299 C 
BRANCH  18  19
HETATM   19  C   UNL     1     -39.817  51.448 -53.852  1.00  0.00     0.079 A 
HETATM   20  O   UNL     1     -39.859  51.521 -52.488  1.00  0.00    -0.318 OA
HETATM   21  C   UNL     1     -39.714  50.250 -52.019  1.00  0.00     0.049 A 
HETATM   22  C   UNL     1     -39.736  50.066 -50.552  1.00  0.00     0.076 C 
HETATM   23  C   UNL     1     -39.583  49.369 -53.071  1.00  0.00     0.035 A 
HETATM   24  C   UNL     1     -39.650  50.142 -54.255  1.00  0.00     0.037 A 
ENDBRANCH  18  19
ENDBRANCH   1  18
BRANCH  11  25
HETATM   25  C   UNL     1     -45.317  58.503 -58.322  1.00  0.00    -0.008 A 
HETATM   26  C   UNL     1     -45.670  59.842 -58.139  1.00  0.00     0.014 A 
HETATM   27  C   UNL     1     -46.741  60.399 -58.849  1.00  0.00     0.001 A 
HETATM   28  C   UNL     1     -47.469  59.626 -59.747  1.00  0.00     0.000 A 
HETATM   29  C   UNL     1     -47.126  58.294 -59.943  1.00  0.00     0.001 A 
HETATM   30  C   UNL     1     -46.058  57.733 -59.236  1.00  0.00     0.014 A 
ENDBRANCH  11  25
TORSDOF 3
ENDMDL
MODEL 8
REMARK VINA RESULT:      -8.1      4.333      7.042
REMARK  3 active torsions:
REMARK  status: ('A' for Active; 'I' for Inactive)
REMARK    1  A    between atoms: C_4  and  C_5 
REMARK    2  A    between atoms: C_5  and  N_6 
REMARK    3  A    between atoms: C_16  and  C_17 
ROOT
HETATM    1  N   UNL     1     -44.882  59.275 -51.343  1.00  0.00    -0.065 N 
HETATM    2  H   UNL     1     -45.508  59.796 -51.985  1.00  0.00     0.280 HD
HETATM    3  C   UNL     1     -44.981  57.825 -51.707  1.00  0.00     0.238 C 
HETATM    4  C   UNL     1     -44.049  57.538 -52.870  1.00  0.00     0.077 C 
HETATM    5  C   UNL     1     -42.553  57.753 -52.488  1.00  0.00     0.218 C 
HETATM    6  N   UNL     1     -41.830  58.228 -53.705  1.00  0.00     0.102 N 
HETATM    7  C   UNL     1     -41.773  57.178 -54.753  1.00  0.00     0.291 C 
HETATM    8  C   UNL     1     -41.268  55.769 -54.329  1.00  0.00     0.160 C 
HETATM    9  N   UNL     1     -41.434  55.479 -52.884  1.00  0.00    -0.331 N 
HETATM   10  C   UNL     1     -41.916  56.408 -52.034  1.00  0.00     0.123 A 
HETATM   11  C   UNL     1     -41.009  54.329 -52.175  1.00  0.00     0.061 A 
HETATM   12  C   UNL     1     -41.151  54.695 -50.849  1.00  0.00     0.120 A 
HETATM   13  N   UNL     1     -41.706  55.952 -50.799  1.00  0.00    -0.351 N 
HETATM   14  H   UNL     1     -41.879  56.445 -49.927  1.00  0.00     0.166 HD
HETATM   15  C   UNL     1     -42.436  58.861 -51.408  1.00  0.00     0.077 C 
HETATM   16  C   UNL     1     -43.526  59.916 -51.547  1.00  0.00     0.238 C 
HETATM   17  H   UNL     1     -40.863  58.477 -53.470  1.00  0.00     0.317 HD
ENDROOT
BRANCH   1  18
HETATM   18  C   UNL     1     -45.526  59.586 -49.994  1.00  0.00     0.299 C 
BRANCH  18  19
HETATM   19  C   UNL     1     -45.325  60.995 -49.584  1.00  0.00     0.079 A 
HETATM   20  O   UNL     1     -46.039  61.932 -50.279  1.00  0.00    -0.318 OA
HETATM   21  C   UNL     1     -45.735  63.144 -49.734  1.00  0.00     0.049 A 
HETATM   22  C   UNL     1     -46.399  64.330 -50.317  1.00  0.00     0.076 C 
HETATM   23  C   UNL     1     -44.840  62.987 -48.698  1.00  0.00     0.035 A 
HETATM   24  C   UNL     1     -44.575  61.600 -48.601  1.00  0.00     0.037 A 
ENDBRANCH  18  19
ENDBRANCH   1  18
BRANCH  11  25
HETATM   25  C   UNL     1     -40.508  52.983 -52.642  1.00  0.00    -0.008 A 
HETATM   26  C   UNL     1     -40.722  52.524 -53.943  1.00  0.00     0.014 A 
HETATM   27  C   UNL     1     -40.295  51.247 -54.327  1.00  0.00     0.001 A 
HETATM   28  C   UNL     1     -39.650  50.417 -53.417  1.00  0.00     0.000 A 
HETATM   29  C   UNL     1     -39.424  50.863 -52.119  1.00  0.00     0.001 A 
HETATM   30  C   UNL     1     -39.851  52.137 -51.732  1.00  0.00     0.014 A 
ENDBRANCH  11  25
TORSDOF 3
ENDMDL
MODEL 9
REMARK VINA RESULT:      -8.0      2.767      8.172
REMARK  3 active torsions:
REMARK  status: ('A' for Active; 'I' for Inactive)
REMARK    1  A    between atoms: C_4  and  C_5 
REMARK    2  A    between atoms: C_5  and  N_6 
REMARK    3  A    between atoms: C_16  and  C_17 
ROOT
HETATM    1  N   UNL     1     -42.178  54.592 -54.268  1.00  0.00    -0.065 N 
HETATM    2  H   UNL     1     -42.125  53.589 -54.526  1.00  0.00     0.280 HD
HETATM    3  C   UNL     1     -41.194  55.324 -55.130  1.00  0.00     0.238 C 
HETATM    4  C   UNL     1     -41.832  55.621 -56.475  1.00  0.00     0.077 C 
HETATM    5  C   UNL     1     -43.046  56.591 -56.344  1.00  0.00     0.218 C 
HETATM    6  N   UNL     1     -44.035  56.237 -57.405  1.00  0.00     0.102 N 
HETATM    7  C   UNL     1     -43.507  56.524 -58.763  1.00  0.00     0.291 C 
HETATM    8  C   UNL     1     -42.911  57.938 -59.016  1.00  0.00     0.160 C 
HETATM    9  N   UNL     1     -42.433  58.619 -57.789  1.00  0.00    -0.331 N 
HETATM   10  C   UNL     1     -42.587  58.059 -56.571  1.00  0.00     0.123 A 
HETATM   11  C   UNL     1     -41.916  59.933 -57.670  1.00  0.00     0.061 A 
HETATM   12  C   UNL     1     -41.900  60.153 -56.305  1.00  0.00     0.120 A 
HETATM   13  N   UNL     1     -42.305  59.002 -55.671  1.00  0.00    -0.351 N 
HETATM   14  H   UNL     1     -42.401  58.932 -54.662  1.00  0.00     0.166 HD
HETATM   15  C   UNL     1     -43.738  56.390 -54.969  1.00  0.00     0.077 C 
HETATM   16  C   UNL     1     -43.633  54.953 -54.477  1.00  0.00     0.238 C 
HETATM   17  H   UNL     1     -44.894  56.787 -57.290  1.00  0.00     0.317 HD
ENDROOT
BRANCH   1  18
HETATM   18  C   UNL     1     -41.749  54.539 -52.804  1.00  0.00     0.299 C 
BRANCH  18  19
HETATM   19  C   UNL     1     -40.874  53.380 -52.514  1.00  0.00     0.079 A 
HETATM   20  O   UNL     1     -40.772  52.441 -53.502  1.00  0.00    -0.318 OA
HETATM   21  C   UNL     1     -39.910  51.485 -53.052  1.00  0.00     0.049 A 
HETATM   22  C   UNL     1     -39.626  50.352 -53.959  1.00  0.00     0.076 C 
HETATM   23  C   UNL     1     -39.461  51.810 -51.789  1.00  0.00     0.035 A 
HETATM   24  C   UNL     1     -40.083  53.032 -51.442  1.00  0.00     0.037 A 
ENDBRANCH  18  19
ENDBRANCH   1  18
BRANCH  11  25
HETATM   25  C   UNL     1     -41.459  60.934 -58.704  1.00  0.00    -0.008 A 
HETATM   26  C   UNL     1     -41.890  60.878 -60.031  1.00  0.00     0.014 A 
HETATM   27  C   UNL     1     -41.401  61.788 -60.977  1.00  0.00     0.001 A 
HETATM   28  C   UNL     1     -40.481  62.762 -60.607  1.00  0.00     0.000 A 
HETATM   29  C   UNL     1     -40.047  62.834 -59.289  1.00  0.00     0.001 A 
HETATM   30  C   UNL     1     -40.531  61.926 -58.342  1.00  0.00     0.014 A 
ENDBRANCH  11  25
TORSDOF 3
ENDMDL
MODEL 10
REMARK VINA RESULT:      -7.9      4.343      5.939
REMARK  3 active torsions:
REMARK  status: ('A' for Active; 'I' for Inactive)
REMARK    1  A    between atoms: C_4  and  C_5 
REMARK    2  A    between atoms: C_5  and  N_6 
REMARK    3  A    between atoms: C_16  and  C_17 
ROOT
HETATM    1  N   UNL     1     -42.945  59.755 -52.169  1.00  0.00    -0.065 N 
HETATM    2  H   UNL     1     -43.131  60.254 -51.279  1.00  0.00     0.280 HD
HETATM    3  C   UNL     1     -41.804  58.815 -51.919  1.00  0.00     0.238 C 
HETATM    4  C   UNL     1     -42.337  57.537 -51.297  1.00  0.00     0.077 C 
HETATM    5  C   UNL     1     -43.285  56.766 -52.266  1.00  0.00     0.218 C 
HETATM    6  N   UNL     1     -44.317  56.069 -51.444  1.00  0.00     0.102 N 
HETATM    7  C   UNL     1     -43.721  54.993 -50.613  1.00  0.00     0.291 C 
HETATM    8  C   UNL     1     -42.800  53.963 -51.328  1.00  0.00     0.160 C 
HETATM    9  N   UNL     1     -42.187  54.469 -52.580  1.00  0.00    -0.331 N 
HETATM   10  C   UNL     1     -42.485  55.694 -53.060  1.00  0.00     0.123 A 
HETATM   11  C   UNL     1     -41.371  53.761 -53.495  1.00  0.00     0.061 A 
HETATM   12  C   UNL     1     -41.319  54.597 -54.596  1.00  0.00     0.120 A 
HETATM   13  N   UNL     1     -41.995  55.756 -54.298  1.00  0.00    -0.351 N 
HETATM   14  H   UNL     1     -42.117  56.511 -54.967  1.00  0.00     0.166 HD
HETATM   15  C   UNL     1     -44.020  57.768 -53.196  1.00  0.00     0.077 C 
HETATM   16  C   UNL     1     -44.269  59.108 -52.515  1.00  0.00     0.238 C 
HETATM   17  H   UNL     1     -45.021  55.632 -52.050  1.00  0.00     0.317 HD
ENDROOT
BRANCH   1  18
HETATM   18  C   UNL     1     -42.558  60.917 -53.079  1.00  0.00     0.299 C 
BRANCH  18  19
HETATM   19  C   UNL     1     -43.292  62.161 -52.750  1.00  0.00     0.079 A 
HETATM   20  O   UNL     1     -44.056  62.692 -53.752  1.00  0.00    -0.318 OA
HETATM   21  C   UNL     1     -44.662  63.801 -53.242  1.00  0.00     0.049 A 
HETATM   22  C   UNL     1     -45.559  64.554 -54.145  1.00  0.00     0.076 C 
HETATM   23  C   UNL     1     -44.295  63.978 -51.925  1.00  0.00     0.035 A 
HETATM   24  C   UNL     1     -43.410  62.920 -51.608  1.00  0.00     0.037 A 
ENDBRANCH  18  19
ENDBRANCH   1  18
BRANCH  11  25
HETATM   25  C   UNL     1     -40.676  52.424 -53.402  1.00  0.00    -0.008 A 
HETATM   26  C   UNL     1     -40.763  51.471 -54.419  1.00  0.00     0.014 A 
HETATM   27  C   UNL     1     -40.153  50.219 -54.275  1.00  0.00     0.001 A 
HETATM   28  C   UNL     1     -39.452  49.906 -53.116  1.00  0.00     0.000 A 
HETATM   29  C   UNL     1     -39.352  50.846 -52.097  1.00  0.00     0.001 A 
HETATM   30  C   UNL     1     -39.961  52.097 -52.236  1.00  0.00     0.014 A 
ENDBRANCH  11  25
TORSDOF 3
ENDMDL
