MODEL 1
REMARK VINA RESULT:      -7.9      0.000      0.000
REMARK  3 active torsions:
REMARK  status: ('A' for Active; 'I' for Inactive)
REMARK    1  A    between atoms: C_2  and  N_3 
REMARK       I    between atoms: N_3  and  C_4 
REMARK    2  A    between atoms: C_4  and  C_5 
REMARK    3  A    between atoms: C_5  and  C_6 
ROOT
HETATM    1  C   UNL     1     -40.795  54.598 -51.339  1.00  0.00     0.286 C 
HETATM    2  N   UNL     1     -40.503  54.029 -52.733  1.00  0.00    -0.056 N 
HETATM    3  H   UNL     1     -41.175  54.443 -53.408  1.00  0.00     0.278 HD
HETATM    4  H   UNL     1     -39.568  54.333 -53.031  1.00  0.00     0.278 HD
HETATM    5  C   UNL     1     -40.622  52.531 -52.845  1.00  0.00     0.209 C 
HETATM    6  C   UNL     1     -39.808  51.868 -51.719  1.00  0.00     0.115 C 
HETATM    7  N   UNL     1     -40.235  52.345 -50.415  1.00  0.00    -0.353 N 
HETATM    8  C   UNL     1     -40.495  53.664 -50.154  1.00  0.00     0.249 C 
HETATM    9  O   UNL     1     -40.518  54.066 -48.995  1.00  0.00    -0.271 OA
HETATM   10  C   UNL     1     -40.139  52.081 -54.220  1.00  0.00     0.035 C 
HETATM   11  C   UNL     1     -40.223  50.559 -54.338  1.00  0.00     0.002 C 
HETATM   12  C   UNL     1     -39.486  49.850 -53.201  1.00  0.00     0.002 C 
HETATM   13  C   UNL     1     -39.925  50.346 -51.822  1.00  0.00     0.027 C 
HETATM   14  H   UNL     1     -39.969  51.817 -49.584  1.00  0.00     0.163 HD
ENDROOT
BRANCH   1  15
HETATM   15  C   UNL     1     -42.191  55.219 -51.229  1.00  0.00     0.146 C 
BRANCH  15  16
HETATM   16  C   UNL     1     -43.247  54.310 -51.779  1.00  0.00     0.224 C 
HETATM   17  N   UNL     1     -43.749  54.330 -53.032  1.00  0.00    -0.327 N 
HETATM   18  H   UNL     1     -44.440  53.589 -53.134  1.00  0.00     0.169 HD
HETATM   19  O   UNL     1     -43.780  53.538 -50.963  1.00  0.00    -0.273 OA
BRANCH  17  20
HETATM   20  C   UNL     1     -43.567  55.098 -54.197  1.00  0.00     0.034 A 
HETATM   21  C   UNL     1     -43.857  56.450 -54.357  1.00  0.00     0.031 A 
HETATM   22  C   UNL     1     -43.654  57.088 -55.591  1.00  0.00     0.026 A 
HETATM   23  C   UNL     1     -43.152  56.379 -56.676  1.00  0.00     0.034 A 
HETATM   24  C   UNL     1     -42.846  55.033 -56.537  1.00  0.00     0.026 A 
HETATM   25 CL   UNL     1     -42.914  57.167 -58.183  1.00  0.00    -0.084 Cl
HETATM   26  C   UNL     1     -43.052  54.401 -55.305  1.00  0.00     0.031 A 
ENDBRANCH  17  20
ENDBRANCH  15  16
ENDBRANCH   1  15
TORSDOF 3
ENDMDL
MODEL 2
REMARK VINA RESULT:      -7.8      3.341      6.020
REMARK  3 active torsions:
REMARK  status: ('A' for Active; 'I' for Inactive)
REMARK    1  A    between atoms: C_2  and  N_3 
REMARK       I    between atoms: N_3  and  C_4 
REMARK    2  A    between atoms: C_4  and  C_5 
REMARK    3  A    between atoms: C_5  and  C_6 
ROOT
HETATM    1  C   UNL     1     -43.549  55.431 -53.422  1.00  0.00     0.286 C 
HETATM    2  N   UNL     1     -42.962  56.820 -53.701  1.00  0.00    -0.056 N 
HETATM    3  H   UNL     1     -42.695  56.873 -54.703  1.00  0.00     0.278 HD
HETATM    4  H   UNL     1     -43.693  57.528 -53.559  1.00  0.00     0.278 HD
HETATM    5  C   UNL     1     -41.738  57.167 -52.893  1.00  0.00     0.209 C 
HETATM    6  C   UNL     1     -42.016  56.896 -51.403  1.00  0.00     0.115 C 
HETATM    7  N   UNL     1     -42.429  55.520 -51.190  1.00  0.00    -0.353 N 
HETATM    8  C   UNL     1     -43.321  54.876 -52.006  1.00  0.00     0.249 C 
HETATM    9  O   UNL     1     -43.891  53.863 -51.611  1.00  0.00    -0.271 OA
HETATM   10  C   UNL     1     -41.364  58.626 -53.132  1.00  0.00     0.035 C 
HETATM   11  C   UNL     1     -40.142  59.003 -52.294  1.00  0.00     0.002 C 
HETATM   12  C   UNL     1     -40.341  58.689 -50.810  1.00  0.00     0.002 C 
HETATM   13  C   UNL     1     -40.778  57.243 -50.573  1.00  0.00     0.027 C 
HETATM   14  H   UNL     1     -42.399  55.136 -50.247  1.00  0.00     0.163 HD
ENDROOT
BRANCH   1  15
HETATM   15  C   UNL     1     -43.181  54.403 -54.497  1.00  0.00     0.146 C 
BRANCH  15  16
HETATM   16  C   UNL     1     -41.794  54.617 -55.019  1.00  0.00     0.224 C 
HETATM   17  N   UNL     1     -40.675  53.988 -54.602  1.00  0.00    -0.327 N 
HETATM   18  H   UNL     1     -39.878  54.316 -55.144  1.00  0.00     0.169 HD
HETATM   19  O   UNL     1     -41.657  55.541 -55.840  1.00  0.00    -0.273 OA
BRANCH  17  20
HETATM   20  C   UNL     1     -40.342  53.024 -53.633  1.00  0.00     0.034 A 
HETATM   21  C   UNL     1     -40.207  53.233 -52.263  1.00  0.00     0.031 A 
HETATM   22  C   UNL     1     -39.838  52.182 -51.408  1.00  0.00     0.026 A 
HETATM   23  C   UNL     1     -39.605  50.909 -51.917  1.00  0.00     0.034 A 
HETATM   24  C   UNL     1     -39.742  50.676 -53.278  1.00  0.00     0.026 A 
HETATM   25 CL   UNL     1     -39.147  49.633 -50.864  1.00  0.00    -0.084 Cl
HETATM   26  C   UNL     1     -40.110  51.727 -54.126  1.00  0.00     0.031 A 
ENDBRANCH  17  20
ENDBRANCH  15  16
ENDBRANCH   1  15
TORSDOF 3
ENDMDL
MODEL 3
REMARK VINA RESULT:      -7.7      3.427      6.582
REMARK  3 active torsions:
REMARK  status: ('A' for Active; 'I' for Inactive)
REMARK    1  A    between atoms: C_2  and  N_3 
REMARK       I    between atoms: N_3  and  C_4 
REMARK    2  A    between atoms: C_4  and  C_5 
REMARK    3  A    between atoms: C_5  and  C_6 
ROOT
HETATM    1  C   UNL     1     -42.228  57.500 -54.307  1.00  0.00     0.286 C 
HETATM    2  N   UNL     1     -42.786  56.477 -55.304  1.00  0.00    -0.056 N 
HETATM    3  H   UNL     1     -42.447  55.533 -55.036  1.00  0.00     0.278 HD
HETATM    4  H   UNL     1     -43.810  56.452 -55.220  1.00  0.00     0.278 HD
HETATM    5  C   UNL     1     -42.388  56.705 -56.739  1.00  0.00     0.209 C 
HETATM    6  C   UNL     1     -42.673  58.169 -57.123  1.00  0.00     0.115 C 
HETATM    7  N   UNL     1     -41.996  59.087 -56.224  1.00  0.00    -0.353 N 
HETATM    8  C   UNL     1     -41.959  58.907 -54.866  1.00  0.00     0.249 C 
HETATM    9  O   UNL     1     -41.684  59.851 -54.131  1.00  0.00    -0.271 OA
HETATM   10  C   UNL     1     -43.145  55.736 -57.641  1.00  0.00     0.035 C 
HETATM   11  C   UNL     1     -42.775  55.977 -59.105  1.00  0.00     0.002 C 
HETATM   12  C   UNL     1     -42.977  57.435 -59.519  1.00  0.00     0.002 C 
HETATM   13  C   UNL     1     -42.269  58.412 -58.578  1.00  0.00     0.027 C 
HETATM   14  H   UNL     1     -41.887  60.061 -56.502  1.00  0.00     0.163 HD
ENDROOT
BRANCH   1  15
HETATM   15  C   UNL     1     -41.027  56.967 -53.518  1.00  0.00     0.146 C 
BRANCH  15  16
HETATM   16  C   UNL     1     -41.450  56.309 -52.241  1.00  0.00     0.224 C 
HETATM   17  N   UNL     1     -41.346  54.996 -51.943  1.00  0.00    -0.327 N 
HETATM   18  H   UNL     1     -41.694  54.833 -51.000  1.00  0.00     0.169 HD
HETATM   19  O   UNL     1     -42.051  57.032 -51.428  1.00  0.00    -0.273 OA
BRANCH  17  20
HETATM   20  C   UNL     1     -40.895  53.831 -52.591  1.00  0.00     0.034 A 
HETATM   21  C   UNL     1     -41.166  53.449 -53.901  1.00  0.00     0.031 A 
HETATM   22  C   UNL     1     -40.675  52.237 -54.413  1.00  0.00     0.026 A 
HETATM   23  C   UNL     1     -39.901  51.399 -53.619  1.00  0.00     0.034 A 
HETATM   24  C   UNL     1     -39.610  51.765 -52.312  1.00  0.00     0.026 A 
HETATM   25 CL   UNL     1     -39.310  49.917 -54.252  1.00  0.00    -0.084 Cl
HETATM   26  C   UNL     1     -40.103  52.973 -51.806  1.00  0.00     0.031 A 
ENDBRANCH  17  20
ENDBRANCH  15  16
ENDBRANCH   1  15
TORSDOF 3
ENDMDL
MODEL 4
REMARK VINA RESULT:      -7.6     13.677     15.368
REMARK  3 active torsions:
REMARK  status: ('A' for Active; 'I' for Inactive)
REMARK    1  A    between atoms: C_2  and  N_3 
REMARK       I    between atoms: N_3  and  C_4 
REMARK    2  A    between atoms: C_4  and  C_5 
REMARK    3  A    between atoms: C_5  and  C_6 
ROOT
HETATM    1  C   UNL     1     -34.154  40.551 -54.892  1.00  0.00     0.286 C 
HETATM    2  N   UNL     1     -34.823  40.179 -53.563  1.00  0.00    -0.056 N 
HETATM    3  H   UNL     1     -35.700  40.727 -53.468  1.00  0.00     0.278 HD
HETATM    4  H   UNL     1     -35.101  39.190 -53.593  1.00  0.00     0.278 HD
HETATM    5  C   UNL     1     -33.991  40.449 -52.336  1.00  0.00     0.209 C 
HETATM    6  C   UNL     1     -32.592  39.835 -52.522  1.00  0.00     0.115 C 
HETATM    7  N   UNL     1     -31.954  40.340 -53.725  1.00  0.00    -0.353 N 
HETATM    8  C   UNL     1     -32.617  40.481 -54.915  1.00  0.00     0.249 C 
HETATM    9  O   UNL     1     -31.983  40.580 -55.961  1.00  0.00    -0.271 OA
HETATM   10  C   UNL     1     -34.691  39.876 -51.108  1.00  0.00     0.035 C 
HETATM   11  C   UNL     1     -33.844  40.114 -49.857  1.00  0.00     0.002 C 
HETATM   12  C   UNL     1     -32.419  39.582 -50.016  1.00  0.00     0.002 C 
HETATM   13  C   UNL     1     -31.738  40.105 -51.281  1.00  0.00     0.027 C 
HETATM   14  H   UNL     1     -30.948  40.222 -53.838  1.00  0.00     0.163 HD
ENDROOT
BRANCH   1  15
HETATM   15  C   UNL     1     -34.667  41.875 -55.468  1.00  0.00     0.146 C 
BRANCH  15  16
HETATM   16  C   UNL     1     -36.125  42.073 -55.188  1.00  0.00     0.224 C 
HETATM   17  N   UNL     1     -37.147  41.793 -56.025  1.00  0.00    -0.327 N 
HETATM   18  H   UNL     1     -38.030  42.009 -55.568  1.00  0.00     0.169 HD
HETATM   19  O   UNL     1     -36.402  42.650 -54.123  1.00  0.00    -0.273 OA
BRANCH  17  20
HETATM   20  C   UNL     1     -37.293  41.296 -57.334  1.00  0.00     0.034 A 
HETATM   21  C   UNL     1     -37.040  41.982 -58.518  1.00  0.00     0.031 A 
HETATM   22  C   UNL     1     -37.259  41.372 -59.764  1.00  0.00     0.026 A 
HETATM   23  C   UNL     1     -37.729  40.066 -59.835  1.00  0.00     0.034 A 
HETATM   24  C   UNL     1     -37.980  39.360 -58.667  1.00  0.00     0.026 A 
HETATM   25 CL   UNL     1     -38.001  39.332 -61.363  1.00  0.00    -0.084 Cl
HETATM   26  C   UNL     1     -37.761  39.972 -57.428  1.00  0.00     0.031 A 
ENDBRANCH  17  20
ENDBRANCH  15  16
ENDBRANCH   1  15
TORSDOF 3
ENDMDL
MODEL 5
REMARK VINA RESULT:      -7.5     13.853     16.064
REMARK  3 active torsions:
REMARK  status: ('A' for Active; 'I' for Inactive)
REMARK    1  A    between atoms: C_2  and  N_3 
REMARK       I    between atoms: N_3  and  C_4 
REMARK    2  A    between atoms: C_4  and  C_5 
REMARK    3  A    between atoms: C_5  and  C_6 
ROOT
HETATM    1  C   UNL     1     -37.088  41.480 -52.690  1.00  0.00     0.286 C 
HETATM    2  N   UNL     1     -37.989  41.323 -53.921  1.00  0.00    -0.056 N 
HETATM    3  H   UNL     1     -38.589  40.486 -53.790  1.00  0.00     0.278 HD
HETATM    4  H   UNL     1     -38.623  42.129 -53.978  1.00  0.00     0.278 HD
HETATM    5  C   UNL     1     -37.255  41.146 -55.226  1.00  0.00     0.209 C 
HETATM    6  C   UNL     1     -36.191  42.251 -55.368  1.00  0.00     0.115 C 
HETATM    7  N   UNL     1     -35.282  42.250 -54.235  1.00  0.00    -0.353 N 
HETATM    8  C   UNL     1     -35.706  42.106 -52.941  1.00  0.00     0.249 C 
HETATM    9  O   UNL     1     -34.975  42.445 -52.016  1.00  0.00    -0.271 OA
HETATM   10  C   UNL     1     -38.250  41.181 -56.381  1.00  0.00     0.035 C 
HETATM   11  C   UNL     1     -37.517  41.035 -57.715  1.00  0.00     0.002 C 
HETATM   12  C   UNL     1     -36.402  42.069 -57.877  1.00  0.00     0.002 C 
HETATM   13  C   UNL     1     -35.439  42.079 -56.689  1.00  0.00     0.027 C 
HETATM   14  H   UNL     1     -34.395  42.745 -54.314  1.00  0.00     0.163 HD
ENDROOT
BRANCH   1  15
HETATM   15  C   UNL     1     -36.983  40.194 -51.862  1.00  0.00     0.146 C 
BRANCH  15  16
HETATM   16  C   UNL     1     -36.155  39.156 -52.552  1.00  0.00     0.224 C 
HETATM   17  N   UNL     1     -34.919  38.748 -52.194  1.00  0.00    -0.327 N 
HETATM   18  H   UNL     1     -34.603  38.018 -52.830  1.00  0.00     0.169 HD
HETATM   19  O   UNL     1     -36.615  38.710 -53.617  1.00  0.00    -0.273 OA
BRANCH  17  20
HETATM   20  C   UNL     1     -33.983  39.071 -51.194  1.00  0.00     0.034 A 
HETATM   21  C   UNL     1     -32.796  39.779 -51.362  1.00  0.00     0.031 A 
HETATM   22  C   UNL     1     -31.933  40.005 -50.277  1.00  0.00     0.026 A 
HETATM   23  C   UNL     1     -32.255  39.529 -49.011  1.00  0.00     0.034 A 
HETATM   24  C   UNL     1     -33.438  38.829 -48.819  1.00  0.00     0.026 A 
HETATM   25 CL   UNL     1     -31.191  39.805 -47.693  1.00  0.00    -0.084 Cl
HETATM   26  C   UNL     1     -34.293  38.605 -49.903  1.00  0.00     0.031 A 
ENDBRANCH  17  20
ENDBRANCH  15  16
ENDBRANCH   1  15
TORSDOF 3
ENDMDL
MODEL 6
REMARK VINA RESULT:      -7.4      2.511      5.740
REMARK  3 active torsions:
REMARK  status: ('A' for Active; 'I' for Inactive)
REMARK    1  A    between atoms: C_2  and  N_3 
REMARK       I    between atoms: N_3  and  C_4 
REMARK    2  A    between atoms: C_4  and  C_5 
REMARK    3  A    between atoms: C_5  and  C_6 
ROOT
HETATM    1  C   UNL     1     -43.991  55.101 -51.645  1.00  0.00     0.286 C 
HETATM    2  N   UNL     1     -43.725  54.581 -53.063  1.00  0.00    -0.056 N 
HETATM    3  H   UNL     1     -43.027  53.814 -53.010  1.00  0.00     0.278 HD
HETATM    4  H   UNL     1     -44.588  54.163 -53.433  1.00  0.00     0.278 HD
HETATM    5  C   UNL     1     -43.191  55.608 -54.027  1.00  0.00     0.209 C 
HETATM    6  C   UNL     1     -44.080  56.865 -53.980  1.00  0.00     0.115 C 
HETATM    7  N   UNL     1     -44.171  57.391 -52.630  1.00  0.00    -0.353 N 
HETATM    8  C   UNL     1     -44.349  56.593 -51.531  1.00  0.00     0.249 C 
HETATM    9  O   UNL     1     -44.754  57.080 -50.479  1.00  0.00    -0.271 OA
HETATM   10  C   UNL     1     -43.140  55.015 -55.431  1.00  0.00     0.035 C 
HETATM   11  C   UNL     1     -42.629  56.056 -56.427  1.00  0.00     0.002 C 
HETATM   12  C   UNL     1     -43.438  57.353 -56.372  1.00  0.00     0.002 C 
HETATM   13  C   UNL     1     -43.543  57.916 -54.954  1.00  0.00     0.027 C 
HETATM   14  H   UNL     1     -44.507  58.343 -52.492  1.00  0.00     0.163 HD
ENDROOT
BRANCH   1  15
HETATM   15  C   UNL     1     -42.893  54.707 -50.651  1.00  0.00     0.146 C 
BRANCH  15  16
HETATM   16  C   UNL     1     -41.594  55.383 -50.962  1.00  0.00     0.224 C 
HETATM   17  N   UNL     1     -40.580  54.873 -51.694  1.00  0.00    -0.327 N 
HETATM   18  H   UNL     1     -39.829  55.557 -51.759  1.00  0.00     0.169 HD
HETATM   19  O   UNL     1     -41.398  56.474 -50.399  1.00  0.00    -0.273 OA
BRANCH  17  20
HETATM   20  C   UNL     1     -40.307  53.667 -52.366  1.00  0.00     0.034 A 
HETATM   21  C   UNL     1     -40.426  53.431 -53.733  1.00  0.00     0.031 A 
HETATM   22  C   UNL     1     -40.149  52.163 -54.270  1.00  0.00     0.026 A 
HETATM   23  C   UNL     1     -39.745  51.121 -53.444  1.00  0.00     0.034 A 
HETATM   24  C   UNL     1     -39.611  51.337 -52.079  1.00  0.00     0.026 A 
HETATM   25 CL   UNL     1     -39.416  49.573 -54.109  1.00  0.00    -0.084 Cl
HETATM   26  C   UNL     1     -39.889  52.601 -51.548  1.00  0.00     0.031 A 
ENDBRANCH  17  20
ENDBRANCH  15  16
ENDBRANCH   1  15
TORSDOF 3
ENDMDL
MODEL 7
REMARK VINA RESULT:      -7.3      3.196      3.825
REMARK  3 active torsions:
REMARK  status: ('A' for Active; 'I' for Inactive)
REMARK    1  A    between atoms: C_2  and  N_3 
REMARK       I    between atoms: N_3  and  C_4 
REMARK    2  A    between atoms: C_4  and  C_5 
REMARK    3  A    between atoms: C_5  and  C_6 
ROOT
HETATM    1  C   UNL     1     -40.911  54.303 -53.617  1.00  0.00     0.286 C 
HETATM    2  N   UNL     1     -40.264  53.006 -54.117  1.00  0.00    -0.056 N 
HETATM    3  H   UNL     1     -40.718  52.729 -55.008  1.00  0.00     0.278 HD
HETATM    4  H   UNL     1     -39.277  53.187 -54.339  1.00  0.00     0.278 HD
HETATM    5  C   UNL     1     -40.378  51.835 -53.175  1.00  0.00     0.209 C 
HETATM    6  C   UNL     1     -39.914  52.262 -51.770  1.00  0.00     0.115 C 
HETATM    7  N   UNL     1     -40.668  53.409 -51.296  1.00  0.00    -0.353 N 
HETATM    8  C   UNL     1     -40.963  54.485 -52.091  1.00  0.00     0.249 C 
HETATM    9  O   UNL     1     -41.291  55.551 -51.580  1.00  0.00    -0.271 OA
HETATM   10  C   UNL     1     -39.549  50.670 -53.704  1.00  0.00     0.035 C 
HETATM   11  C   UNL     1     -39.629  49.484 -52.742  1.00  0.00     0.002 C 
HETATM   12  C   UNL     1     -39.242  49.871 -51.315  1.00  0.00     0.002 C 
HETATM   13  C   UNL     1     -40.028  51.080 -50.805  1.00  0.00     0.027 C 
HETATM   14  H   UNL     1     -40.649  53.637 -50.303  1.00  0.00     0.163 HD
ENDROOT
BRANCH   1  15
HETATM   15  C   UNL     1     -42.273  54.577 -54.265  1.00  0.00     0.146 C 
BRANCH  15  16
HETATM   16  C   UNL     1     -42.182  55.639 -55.317  1.00  0.00     0.224 C 
HETATM   17  N   UNL     1     -42.004  56.961 -55.109  1.00  0.00    -0.327 N 
HETATM   18  H   UNL     1     -41.961  57.444 -56.005  1.00  0.00     0.169 HD
HETATM   19  O   UNL     1     -42.399  55.270 -56.485  1.00  0.00    -0.273 OA
BRANCH  17  20
HETATM   20  C   UNL     1     -41.871  57.814 -53.998  1.00  0.00     0.034 A 
HETATM   21  C   UNL     1     -40.688  58.343 -53.492  1.00  0.00     0.031 A 
HETATM   22  C   UNL     1     -40.696  59.162 -52.350  1.00  0.00     0.026 A 
HETATM   23  C   UNL     1     -41.892  59.463 -51.709  1.00  0.00     0.034 A 
HETATM   24  C   UNL     1     -43.085  58.955 -52.203  1.00  0.00     0.026 A 
HETATM   25 CL   UNL     1     -41.890  60.459 -50.311  1.00  0.00    -0.084 Cl
HETATM   26  C   UNL     1     -43.071  58.139 -53.339  1.00  0.00     0.031 A 
ENDBRANCH  17  20
ENDBRANCH  15  16
ENDBRANCH   1  15
TORSDOF 3
ENDMDL
MODEL 8
REMARK VINA RESULT:      -7.3     13.441     15.507
REMARK  3 active torsions:
REMARK  status: ('A' for Active; 'I' for Inactive)
REMARK    1  A    between atoms: C_2  and  N_3 
REMARK       I    between atoms: N_3  and  C_4 
REMARK    2  A    between atoms: C_4  and  C_5 
REMARK    3  A    between atoms: C_5  and  C_6 
ROOT
HETATM    1  C   UNL     1     -34.164  40.689 -53.366  1.00  0.00     0.286 C 
HETATM    2  N   UNL     1     -33.333  40.902 -54.637  1.00  0.00    -0.056 N 
HETATM    3  H   UNL     1     -33.969  41.184 -55.407  1.00  0.00     0.278 HD
HETATM    4  H   UNL     1     -32.689  41.690 -54.489  1.00  0.00     0.278 HD
HETATM    5  C   UNL     1     -32.570  39.690 -55.108  1.00  0.00     0.209 C 
HETATM    6  C   UNL     1     -31.770  39.100 -53.932  1.00  0.00     0.115 C 
HETATM    7  N   UNL     1     -32.641  38.786 -52.813  1.00  0.00    -0.353 N 
HETATM    8  C   UNL     1     -33.639  39.623 -52.389  1.00  0.00     0.249 C 
HETATM    9  O   UNL     1     -34.114  39.490 -51.265  1.00  0.00    -0.271 OA
HETATM   10  C   UNL     1     -31.654  40.080 -56.264  1.00  0.00     0.035 C 
HETATM   11  C   UNL     1     -30.849  38.867 -56.732  1.00  0.00     0.002 C 
HETATM   12  C   UNL     1     -30.088  38.202 -55.585  1.00  0.00     0.002 C 
HETATM   13  C   UNL     1     -30.994  37.868 -54.399  1.00  0.00     0.027 C 
HETATM   14  H   UNL     1     -32.299  38.167 -52.079  1.00  0.00     0.163 HD
ENDROOT
BRANCH   1  15
HETATM   15  C   UNL     1     -35.657  40.502 -53.656  1.00  0.00     0.146 C 
BRANCH  15  16
HETATM   16  C   UNL     1     -36.356  41.815 -53.833  1.00  0.00     0.224 C 
HETATM   17  N   UNL     1     -36.997  42.239 -54.943  1.00  0.00    -0.327 N 
HETATM   18  H   UNL     1     -37.396  43.161 -54.775  1.00  0.00     0.169 HD
HETATM   19  O   UNL     1     -36.236  42.627 -52.899  1.00  0.00    -0.273 OA
BRANCH  17  20
HETATM   20  C   UNL     1     -37.243  41.743 -56.236  1.00  0.00     0.034 A 
HETATM   21  C   UNL     1     -38.256  40.865 -56.613  1.00  0.00     0.031 A 
HETATM   22  C   UNL     1     -38.368  40.423 -57.942  1.00  0.00     0.026 A 
HETATM   23  C   UNL     1     -37.469  40.862 -58.907  1.00  0.00     0.034 A 
HETATM   24  C   UNL     1     -36.457  41.744 -58.556  1.00  0.00     0.026 A 
HETATM   25 CL   UNL     1     -37.610  40.311 -60.527  1.00  0.00    -0.084 Cl
HETATM   26  C   UNL     1     -36.349  42.180 -57.231  1.00  0.00     0.031 A 
ENDBRANCH  17  20
ENDBRANCH  15  16
ENDBRANCH   1  15
TORSDOF 3
ENDMDL
MODEL 9
REMARK VINA RESULT:      -7.3      3.593      4.410
REMARK  3 active torsions:
REMARK  status: ('A' for Active; 'I' for Inactive)
REMARK    1  A    between atoms: C_2  and  N_3 
REMARK       I    between atoms: N_3  and  C_4 
REMARK    2  A    between atoms: C_4  and  C_5 
REMARK    3  A    between atoms: C_5  and  C_6 
ROOT
HETATM    1  C   UNL     1     -41.694  55.593 -52.287  1.00  0.00     0.286 C 
HETATM    2  N   UNL     1     -41.291  54.764 -53.512  1.00  0.00    -0.056 N 
HETATM    3  H   UNL     1     -42.044  54.832 -54.222  1.00  0.00     0.278 HD
HETATM    4  H   UNL     1     -40.453  55.180 -53.938  1.00  0.00     0.278 HD
HETATM    5  C   UNL     1     -41.063  53.299 -53.241  1.00  0.00     0.209 C 
HETATM    6  C   UNL     1     -40.109  53.143 -52.042  1.00  0.00     0.115 C 
HETATM    7  N   UNL     1     -40.624  53.834 -50.872  1.00  0.00    -0.353 N 
HETATM    8  C   UNL     1     -41.179  55.085 -50.930  1.00  0.00     0.249 C 
HETATM    9  O   UNL     1     -41.284  55.756 -49.908  1.00  0.00    -0.271 OA
HETATM   10  C   UNL     1     -40.499  52.629 -54.490  1.00  0.00     0.035 C 
HETATM   11  C   UNL     1     -40.233  51.148 -54.220  1.00  0.00     0.002 C 
HETATM   12  C   UNL     1     -39.343  50.935 -52.995  1.00  0.00     0.002 C 
HETATM   13  C   UNL     1     -39.874  51.659 -51.756  1.00  0.00     0.027 C 
HETATM   14  H   UNL     1     -40.237  53.609 -49.956  1.00  0.00     0.163 HD
ENDROOT
BRANCH   1  15
HETATM   15  C   UNL     1     -43.195  55.898 -52.242  1.00  0.00     0.146 C 
BRANCH  15  16
HETATM   16  C   UNL     1     -43.513  57.217 -52.877  1.00  0.00     0.224 C 
HETATM   17  N   UNL     1     -42.776  58.345 -52.793  1.00  0.00    -0.327 N 
HETATM   18  H   UNL     1     -43.219  59.082 -53.336  1.00  0.00     0.169 HD
HETATM   19  O   UNL     1     -44.616  57.298 -53.443  1.00  0.00    -0.273 OA
BRANCH  17  20
HETATM   20  C   UNL     1     -41.585  58.746 -52.158  1.00  0.00     0.034 A 
HETATM   21  C   UNL     1     -40.311  58.773 -52.717  1.00  0.00     0.031 A 
HETATM   22  C   UNL     1     -39.199  59.168 -51.956  1.00  0.00     0.026 A 
HETATM   23  C   UNL     1     -39.354  59.547 -50.628  1.00  0.00     0.034 A 
HETATM   24  C   UNL     1     -40.617  59.537 -50.052  1.00  0.00     0.026 A 
HETATM   25 CL   UNL     1     -37.988  60.022 -49.704  1.00  0.00    -0.084 Cl
HETATM   26  C   UNL     1     -41.722  59.141 -50.814  1.00  0.00     0.031 A 
ENDBRANCH  17  20
ENDBRANCH  15  16
ENDBRANCH   1  15
TORSDOF 3
ENDMDL
MODEL 10
REMARK VINA RESULT:      -7.3      3.418      5.060
REMARK  3 active torsions:
REMARK  status: ('A' for Active; 'I' for Inactive)
REMARK    1  A    between atoms: C_2  and  N_3 
REMARK       I    between atoms: N_3  and  C_4 
REMARK    2  A    between atoms: C_4  and  C_5 
REMARK    3  A    between atoms: C_5  and  C_6 
ROOT
HETATM    1  C   UNL     1     -42.876  57.984 -54.077  1.00  0.00     0.286 C 
HETATM    2  N   UNL     1     -41.539  57.315 -54.416  1.00  0.00    -0.056 N 
HETATM    3  H   UNL     1     -41.164  57.743 -55.285  1.00  0.00     0.278 HD
HETATM    4  H   UNL     1     -40.860  57.525 -53.673  1.00  0.00     0.278 HD
HETATM    5  C   UNL     1     -41.613  55.827 -54.647  1.00  0.00     0.209 C 
HETATM    6  C   UNL     1     -42.361  55.165 -53.475  1.00  0.00     0.115 C 
HETATM    7  N   UNL     1     -43.680  55.749 -53.300  1.00  0.00    -0.353 N 
HETATM    8  C   UNL     1     -43.911  57.098 -53.363  1.00  0.00     0.249 C 
HETATM    9  O   UNL     1     -44.939  57.565 -52.884  1.00  0.00    -0.271 OA
HETATM   10  C   UNL     1     -40.204  55.262 -54.797  1.00  0.00     0.035 C 
HETATM   11  C   UNL     1     -40.261  53.748 -55.000  1.00  0.00     0.002 C 
HETATM   12  C   UNL     1     -41.054  53.047 -53.896  1.00  0.00     0.002 C 
HETATM   13  C   UNL     1     -42.444  53.655 -53.701  1.00  0.00     0.027 C 
HETATM   14  H   UNL     1     -44.371  55.249 -52.742  1.00  0.00     0.163 HD
ENDROOT
BRANCH   1  15
HETATM   15  C   UNL     1     -43.493  58.722 -55.270  1.00  0.00     0.146 C 
BRANCH  15  16
HETATM   16  C   UNL     1     -42.453  59.126 -56.269  1.00  0.00     0.224 C 
HETATM   17  N   UNL     1     -42.300  58.626 -57.514  1.00  0.00    -0.327 N 
HETATM   18  H   UNL     1     -41.526  59.098 -57.978  1.00  0.00     0.169 HD
HETATM   19  O   UNL     1     -41.589  59.923 -55.865  1.00  0.00    -0.273 OA
BRANCH  17  20
HETATM   20  C   UNL     1     -42.921  57.643 -58.307  1.00  0.00     0.034 A 
HETATM   21  C   UNL     1     -42.884  56.266 -58.105  1.00  0.00     0.031 A 
HETATM   22  C   UNL     1     -43.526  55.391 -58.997  1.00  0.00     0.026 A 
HETATM   23  C   UNL     1     -44.216  55.888 -60.097  1.00  0.00     0.034 A 
HETATM   24  C   UNL     1     -44.273  57.258 -60.312  1.00  0.00     0.026 A 
HETATM   25 CL   UNL     1     -44.991  54.810 -61.185  1.00  0.00    -0.084 Cl
HETATM   26  C   UNL     1     -43.631  58.126 -59.421  1.00  0.00     0.031 A 
ENDBRANCH  17  20
ENDBRANCH  15  16
ENDBRANCH   1  15
TORSDOF 3
ENDMDL
