MODEL 1
REMARK VINA RESULT:      -8.6      0.000      0.000
REMARK  3 active torsions:
REMARK  status: ('A' for Active; 'I' for Inactive)
REMARK    1  A    between atoms: C_4  and  C_5 
REMARK    2  A    between atoms: C_11  and  N_12 
REMARK    3  A    between atoms: C_14  and  C_15 
ROOT
HETATM    1  C   UNL     1     -41.519  57.103 -53.258  1.00  0.00    -0.006 A 
HETATM    2  C   UNL     1     -41.912  57.300 -54.624  1.00  0.00     0.063 A 
HETATM    3  C   UNL     1     -41.904  56.181 -55.462  1.00  0.00     0.165 A 
HETATM    4  N   UNL     1     -42.263  56.231 -56.735  1.00  0.00    -0.222 NA
HETATM    5  C   UNL     1     -42.639  57.408 -57.226  1.00  0.00     0.237 A 
HETATM    6  N   UNL     1     -42.677  58.555 -56.554  1.00  0.00    -0.229 NA
HETATM    7  C   UNL     1     -42.308  58.493 -55.270  1.00  0.00     0.117 A 
HETATM    8  N   UNL     1     -41.527  54.979 -55.039  1.00  0.00    -0.228 NA
HETATM    9  C   UNL     1     -41.125  54.785 -53.766  1.00  0.00     0.070 A 
HETATM   10  C   UNL     1     -41.124  55.822 -52.852  1.00  0.00     0.046 A 
ENDROOT
BRANCH   9  11
HETATM   11  C   UNL     1     -40.690  53.413 -53.434  1.00  0.00    -0.004 A 
HETATM   12  C   UNL     1     -40.531  52.989 -52.099  1.00  0.00     0.053 A 
HETATM   13  C   UNL     1     -40.099  51.700 -51.856  1.00  0.00     0.106 A 
HETATM   14  C   UNL     1     -39.825  50.819 -52.873  1.00  0.00     0.105 A 
HETATM   15  O   UNL     1     -39.889  51.156 -50.627  1.00  0.00    -0.323 OA
HETATM   16  O   UNL     1     -39.410  49.608 -52.415  1.00  0.00    -0.323 OA
HETATM   17  C   UNL     1     -39.963  51.179 -54.192  1.00  0.00     0.040 A 
HETATM   18  C   UNL     1     -39.434  49.835 -50.990  1.00  0.00     0.352 A 
HETATM   19  C   UNL     1     -40.393  52.484 -54.467  1.00  0.00     0.017 A 
ENDBRANCH   9  11
BRANCH   1  20
HETATM   20  C   UNL     1     -41.497  58.165 -52.241  1.00  0.00    -0.025 A 
HETATM   21  C   UNL     1     -42.686  58.633 -51.658  1.00  0.00     0.012 A 
HETATM   22  C   UNL     1     -42.658  59.629 -50.679  1.00  0.00     0.001 A 
HETATM   23  C   UNL     1     -41.441  60.160 -50.258  1.00  0.00     0.000 A 
HETATM   24  C   UNL     1     -40.251  59.699 -50.816  1.00  0.00     0.001 A 
HETATM   25  C   UNL     1     -40.278  58.709 -51.800  1.00  0.00     0.012 A 
ENDBRANCH   1  20
BRANCH   7  26
HETATM   26  N   UNL     1     -42.401  59.723 -54.623  1.00  0.00    -0.286 NA
HETATM   27  H   UNL     1     -42.451  60.449 -55.332  1.00  0.00     0.125 HD
HETATM   28  H   UNL     1     -41.649  59.882 -53.961  1.00  0.00     0.125 HD
ENDBRANCH   7  26
TORSDOF 3
ENDMDL
MODEL 2
REMARK VINA RESULT:      -8.6      2.480      4.768
REMARK  3 active torsions:
REMARK  status: ('A' for Active; 'I' for Inactive)
REMARK    1  A    between atoms: C_4  and  C_5 
REMARK    2  A    between atoms: C_11  and  N_12 
REMARK    3  A    between atoms: C_14  and  C_15 
ROOT
HETATM    1  C   UNL     1     -42.870  56.201 -56.092  1.00  0.00    -0.006 A 
HETATM    2  C   UNL     1     -43.610  56.975 -55.137  1.00  0.00     0.063 A 
HETATM    3  C   UNL     1     -43.479  56.626 -53.789  1.00  0.00     0.165 A 
HETATM    4  N   UNL     1     -44.094  57.273 -52.812  1.00  0.00    -0.222 NA
HETATM    5  C   UNL     1     -44.876  58.297 -53.146  1.00  0.00     0.237 A 
HETATM    6  N   UNL     1     -45.109  58.727 -54.382  1.00  0.00    -0.229 NA
HETATM    7  C   UNL     1     -44.484  58.062 -55.361  1.00  0.00     0.117 A 
HETATM    8  N   UNL     1     -42.725  55.606 -53.388  1.00  0.00    -0.228 NA
HETATM    9  C   UNL     1     -42.048  54.851 -54.279  1.00  0.00     0.070 A 
HETATM   10  C   UNL     1     -42.090  55.133 -55.632  1.00  0.00     0.046 A 
ENDROOT
BRANCH   9  11
HETATM   11  C   UNL     1     -41.284  53.723 -53.710  1.00  0.00    -0.004 A 
HETATM   12  C   UNL     1     -41.146  52.500 -54.398  1.00  0.00     0.053 A 
HETATM   13  C   UNL     1     -40.437  51.476 -53.803  1.00  0.00     0.106 A 
HETATM   14  C   UNL     1     -39.860  51.613 -52.564  1.00  0.00     0.105 A 
HETATM   15  O   UNL     1     -40.232  50.242 -54.338  1.00  0.00    -0.323 OA
HETATM   16  O   UNL     1     -39.215  50.486 -52.163  1.00  0.00    -0.323 OA
HETATM   17  C   UNL     1     -39.962  52.783 -51.850  1.00  0.00     0.040 A 
HETATM   18  C   UNL     1     -39.471  49.614 -53.283  1.00  0.00     0.352 A 
HETATM   19  C   UNL     1     -40.682  53.836 -52.428  1.00  0.00     0.017 A 
ENDBRANCH   9  11
BRANCH   1  20
HETATM   20  C   UNL     1     -42.875  56.452 -57.542  1.00  0.00    -0.025 A 
HETATM   21  C   UNL     1     -42.116  57.494 -58.098  1.00  0.00     0.012 A 
HETATM   22  C   UNL     1     -42.109  57.716 -59.477  1.00  0.00     0.001 A 
HETATM   23  C   UNL     1     -42.848  56.891 -60.321  1.00  0.00     0.000 A 
HETATM   24  C   UNL     1     -43.596  55.843 -59.788  1.00  0.00     0.001 A 
HETATM   25  C   UNL     1     -43.609  55.625 -58.408  1.00  0.00     0.012 A 
ENDBRANCH   1  20
BRANCH   7  26
HETATM   26  N   UNL     1     -44.751  58.585 -56.623  1.00  0.00    -0.286 NA
HETATM   27  H   UNL     1     -43.947  58.401 -57.217  1.00  0.00     0.125 HD
HETATM   28  H   UNL     1     -44.996  59.569 -56.602  1.00  0.00     0.125 HD
ENDBRANCH   7  26
TORSDOF 3
ENDMDL
MODEL 3
REMARK VINA RESULT:      -8.2      1.896      4.666
REMARK  3 active torsions:
REMARK  status: ('A' for Active; 'I' for Inactive)
REMARK    1  A    between atoms: C_4  and  C_5 
REMARK    2  A    between atoms: C_11  and  N_12 
REMARK    3  A    between atoms: C_14  and  C_15 
ROOT
HETATM    1  C   UNL     1     -42.363  57.352 -56.338  1.00  0.00    -0.006 A 
HETATM    2  C   UNL     1     -42.335  58.469 -55.438  1.00  0.00     0.063 A 
HETATM    3  C   UNL     1     -41.831  58.245 -54.153  1.00  0.00     0.165 A 
HETATM    4  N   UNL     1     -41.736  59.198 -53.239  1.00  0.00    -0.222 NA
HETATM    5  C   UNL     1     -42.150  60.417 -53.571  1.00  0.00     0.237 A 
HETATM    6  N   UNL     1     -42.667  60.770 -54.744  1.00  0.00    -0.229 NA
HETATM    7  C   UNL     1     -42.762  59.798 -55.658  1.00  0.00     0.117 A 
HETATM    8  N   UNL     1     -41.413  57.049 -53.751  1.00  0.00    -0.228 NA
HETATM    9  C   UNL     1     -41.463  55.983 -54.578  1.00  0.00     0.070 A 
HETATM   10  C   UNL     1     -41.918  56.107 -55.877  1.00  0.00     0.046 A 
ENDROOT
BRANCH   9  11
HETATM   11  C   UNL     1     -41.010  54.702 -53.997  1.00  0.00    -0.004 A 
HETATM   12  C   UNL     1     -41.039  54.468 -52.607  1.00  0.00     0.053 A 
HETATM   13  C   UNL     1     -40.581  53.258 -52.125  1.00  0.00     0.106 A 
HETATM   14  C   UNL     1     -40.104  52.275 -52.957  1.00  0.00     0.105 A 
HETATM   15  O   UNL     1     -40.537  52.896 -50.815  1.00  0.00    -0.323 OA
HETATM   16  O   UNL     1     -39.700  51.169 -52.278  1.00  0.00    -0.323 OA
HETATM   17  C   UNL     1     -40.053  52.450 -54.319  1.00  0.00     0.040 A 
HETATM   18  C   UNL     1     -39.959  51.576 -50.919  1.00  0.00     0.352 A 
HETATM   19  C   UNL     1     -40.505  53.672 -54.835  1.00  0.00     0.017 A 
ENDBRANCH   9  11
BRANCH   1  20
HETATM   20  C   UNL     1     -42.836  57.422 -57.729  1.00  0.00    -0.025 A 
HETATM   21  C   UNL     1     -41.962  57.767 -58.773  1.00  0.00     0.012 A 
HETATM   22  C   UNL     1     -42.411  57.813 -60.095  1.00  0.00     0.001 A 
HETATM   23  C   UNL     1     -43.735  57.502 -60.394  1.00  0.00     0.000 A 
HETATM   24  C   UNL     1     -44.613  57.145 -59.372  1.00  0.00     0.001 A 
HETATM   25  C   UNL     1     -44.166  57.105 -58.050  1.00  0.00     0.012 A 
ENDBRANCH   1  20
BRANCH   7  26
HETATM   26  N   UNL     1     -43.283  60.246 -56.869  1.00  0.00    -0.286 NA
HETATM   27  H   UNL     1     -44.105  59.688 -57.085  1.00  0.00     0.125 HD
HETATM   28  H   UNL     1     -42.604  60.237 -57.622  1.00  0.00     0.125 HD
ENDBRANCH   7  26
TORSDOF 3
ENDMDL
MODEL 4
REMARK VINA RESULT:      -8.1      4.612      7.602
REMARK  3 active torsions:
REMARK  status: ('A' for Active; 'I' for Inactive)
REMARK    1  A    between atoms: C_4  and  C_5 
REMARK    2  A    between atoms: C_11  and  N_12 
REMARK    3  A    between atoms: C_14  and  C_15 
ROOT
HETATM    1  C   UNL     1     -42.285  56.156 -55.514  1.00  0.00    -0.006 A 
HETATM    2  C   UNL     1     -42.105  57.546 -55.207  1.00  0.00     0.063 A 
HETATM    3  C   UNL     1     -42.753  58.474 -56.029  1.00  0.00     0.165 A 
HETATM    4  N   UNL     1     -42.680  59.781 -55.838  1.00  0.00    -0.222 NA
HETATM    5  C   UNL     1     -41.948  60.218 -54.817  1.00  0.00     0.237 A 
HETATM    6  N   UNL     1     -41.265  59.455 -53.968  1.00  0.00    -0.229 NA
HETATM    7  C   UNL     1     -41.342  58.136 -54.174  1.00  0.00     0.117 A 
HETATM    8  N   UNL     1     -43.488  58.106 -57.074  1.00  0.00    -0.228 NA
HETATM    9  C   UNL     1     -43.640  56.804 -57.392  1.00  0.00     0.070 A 
HETATM   10  C   UNL     1     -43.064  55.809 -56.625  1.00  0.00     0.046 A 
ENDROOT
BRANCH   9  11
HETATM   11  C   UNL     1     -44.444  56.531 -58.600  1.00  0.00    -0.004 A 
HETATM   12  C   UNL     1     -45.595  57.285 -58.910  1.00  0.00     0.053 A 
HETATM   13  C   UNL     1     -46.317  56.965 -60.043  1.00  0.00     0.106 A 
HETATM   14  C   UNL     1     -45.947  55.939 -60.878  1.00  0.00     0.105 A 
HETATM   15  O   UNL     1     -47.449  57.592 -60.461  1.00  0.00    -0.323 OA
HETATM   16  O   UNL     1     -46.796  55.792 -61.929  1.00  0.00    -0.323 OA
HETATM   17  C   UNL     1     -44.835  55.173 -60.624  1.00  0.00     0.040 A 
HETATM   18  C   UNL     1     -47.757  56.830 -61.648  1.00  0.00     0.352 A 
HETATM   19  C   UNL     1     -44.088  55.471 -59.477  1.00  0.00     0.017 A 
ENDBRANCH   9  11
BRANCH   1  20
HETATM   20  C   UNL     1     -41.698  55.054 -54.736  1.00  0.00    -0.025 A 
HETATM   21  C   UNL     1     -40.519  54.418 -55.159  1.00  0.00     0.012 A 
HETATM   22  C   UNL     1     -39.955  53.385 -54.407  1.00  0.00     0.001 A 
HETATM   23  C   UNL     1     -40.552  52.983 -53.215  1.00  0.00     0.000 A 
HETATM   24  C   UNL     1     -41.715  53.611 -52.774  1.00  0.00     0.001 A 
HETATM   25  C   UNL     1     -42.283  54.639 -53.528  1.00  0.00     0.012 A 
ENDBRANCH   1  20
BRANCH   7  26
HETATM   26  N   UNL     1     -40.628  57.401 -53.231  1.00  0.00    -0.286 NA
HETATM   27  H   UNL     1     -40.108  58.053 -52.651  1.00  0.00     0.125 HD
HETATM   28  H   UNL     1     -40.031  56.695 -53.646  1.00  0.00     0.125 HD
ENDBRANCH   7  26
TORSDOF 3
ENDMDL
MODEL 5
REMARK VINA RESULT:      -8.1      4.117      7.542
REMARK  3 active torsions:
REMARK  status: ('A' for Active; 'I' for Inactive)
REMARK    1  A    between atoms: C_4  and  C_5 
REMARK    2  A    between atoms: C_11  and  N_12 
REMARK    3  A    between atoms: C_14  and  C_15 
ROOT
HETATM    1  C   UNL     1     -41.760  53.967 -54.027  1.00  0.00    -0.006 A 
HETATM    2  C   UNL     1     -42.410  54.687 -52.970  1.00  0.00     0.063 A 
HETATM    3  C   UNL     1     -43.113  55.844 -53.319  1.00  0.00     0.165 A 
HETATM    4  N   UNL     1     -43.767  56.585 -52.439  1.00  0.00    -0.222 NA
HETATM    5  C   UNL     1     -43.740  56.200 -51.166  1.00  0.00     0.237 A 
HETATM    6  N   UNL     1     -43.100  55.137 -50.688  1.00  0.00    -0.229 NA
HETATM    7  C   UNL     1     -42.438  54.400 -51.587  1.00  0.00     0.117 A 
HETATM    8  N   UNL     1     -43.168  56.292 -54.570  1.00  0.00    -0.228 NA
HETATM    9  C   UNL     1     -42.537  55.641 -55.569  1.00  0.00     0.070 A 
HETATM   10  C   UNL     1     -41.839  54.471 -55.331  1.00  0.00     0.046 A 
ENDROOT
BRANCH   9  11
HETATM   11  C   UNL     1     -42.640  56.264 -56.904  1.00  0.00    -0.004 A 
HETATM   12  C   UNL     1     -42.320  57.621 -57.115  1.00  0.00     0.053 A 
HETATM   13  C   UNL     1     -42.459  58.150 -58.383  1.00  0.00     0.106 A 
HETATM   14  C   UNL     1     -42.895  57.395 -59.444  1.00  0.00     0.105 A 
HETATM   15  O   UNL     1     -42.202  59.439 -58.733  1.00  0.00    -0.323 OA
HETATM   16  O   UNL     1     -42.964  58.110 -60.598  1.00  0.00    -0.323 OA
HETATM   17  C   UNL     1     -43.220  56.068 -59.295  1.00  0.00     0.040 A 
HETATM   18  C   UNL     1     -42.542  59.410 -60.136  1.00  0.00     0.352 A 
HETATM   19  C   UNL     1     -43.094  55.507 -58.017  1.00  0.00     0.017 A 
ENDBRANCH   9  11
BRANCH   1  20
HETATM   20  C   UNL     1     -41.004  52.719 -53.836  1.00  0.00    -0.025 A 
HETATM   21  C   UNL     1     -41.380  51.537 -54.495  1.00  0.00     0.012 A 
HETATM   22  C   UNL     1     -40.647  50.361 -54.325  1.00  0.00     0.001 A 
HETATM   23  C   UNL     1     -39.521  50.351 -53.506  1.00  0.00     0.000 A 
HETATM   24  C   UNL     1     -39.126  51.518 -52.854  1.00  0.00     0.001 A 
HETATM   25  C   UNL     1     -39.862  52.693 -53.018  1.00  0.00     0.012 A 
ENDBRANCH   1  20
BRANCH   7  26
HETATM   26  N   UNL     1     -41.817  53.289 -51.020  1.00  0.00    -0.286 NA
HETATM   27  H   UNL     1     -42.424  52.928 -50.290  1.00  0.00     0.125 HD
HETATM   28  H   UNL     1     -40.883  53.486 -50.680  1.00  0.00     0.125 HD
ENDBRANCH   7  26
TORSDOF 3
ENDMDL
MODEL 6
REMARK VINA RESULT:      -8.0      1.967      4.172
REMARK  3 active torsions:
REMARK  status: ('A' for Active; 'I' for Inactive)
REMARK    1  A    between atoms: C_4  and  C_5 
REMARK    2  A    between atoms: C_11  and  N_12 
REMARK    3  A    between atoms: C_14  and  C_15 
ROOT
HETATM    1  C   UNL     1     -42.517  57.299 -53.636  1.00  0.00    -0.006 A 
HETATM    2  C   UNL     1     -42.148  58.130 -52.526  1.00  0.00     0.063 A 
HETATM    3  C   UNL     1     -41.322  57.565 -51.549  1.00  0.00     0.165 A 
HETATM    4  N   UNL     1     -40.898  58.233 -50.488  1.00  0.00    -0.222 NA
HETATM    5  C   UNL     1     -41.291  59.497 -50.356  1.00  0.00     0.237 A 
HETATM    6  N   UNL     1     -42.087  60.156 -51.193  1.00  0.00    -0.229 NA
HETATM    7  C   UNL     1     -42.513  59.468 -52.258  1.00  0.00     0.117 A 
HETATM    8  N   UNL     1     -40.905  56.304 -51.612  1.00  0.00    -0.228 NA
HETATM    9  C   UNL     1     -41.270  55.503 -52.635  1.00  0.00     0.070 A 
HETATM   10  C   UNL     1     -42.061  55.975 -53.666  1.00  0.00     0.046 A 
ENDROOT
BRANCH   9  11
HETATM   11  C   UNL     1     -40.776  54.113 -52.566  1.00  0.00    -0.004 A 
HETATM   12  C   UNL     1     -40.683  53.302 -53.715  1.00  0.00     0.053 A 
HETATM   13  C   UNL     1     -40.235  52.003 -53.581  1.00  0.00     0.106 A 
HETATM   14  C   UNL     1     -39.873  51.479 -52.364  1.00  0.00     0.105 A 
HETATM   15  O   UNL     1     -40.105  51.103 -54.593  1.00  0.00    -0.323 OA
HETATM   16  O   UNL     1     -39.466  50.185 -52.455  1.00  0.00    -0.323 OA
HETATM   17  C   UNL     1     -39.943  52.225 -51.212  1.00  0.00     0.040 A 
HETATM   18  C   UNL     1     -39.635  49.946 -53.867  1.00  0.00     0.352 A 
HETATM   19  C   UNL     1     -40.401  53.544 -51.319  1.00  0.00     0.017 A 
ENDBRANCH   9  11
BRANCH   1  20
HETATM   20  C   UNL     1     -43.355  57.745 -54.760  1.00  0.00    -0.025 A 
HETATM   21  C   UNL     1     -42.778  58.249 -55.937  1.00  0.00     0.012 A 
HETATM   22  C   UNL     1     -43.578  58.653 -57.009  1.00  0.00     0.001 A 
HETATM   23  C   UNL     1     -44.963  58.545 -56.926  1.00  0.00     0.000 A 
HETATM   24  C   UNL     1     -45.553  58.034 -55.771  1.00  0.00     0.001 A 
HETATM   25  C   UNL     1     -44.754  57.637 -54.697  1.00  0.00     0.012 A 
ENDBRANCH   1  20
BRANCH   7  26
HETATM   26  N   UNL     1     -43.316  60.229 -53.104  1.00  0.00    -0.286 NA
HETATM   27  H   UNL     1     -44.285  59.983 -52.924  1.00  0.00     0.125 HD
HETATM   28  H   UNL     1     -43.070  60.129 -54.083  1.00  0.00     0.125 HD
ENDBRANCH   7  26
TORSDOF 3
ENDMDL
MODEL 7
REMARK VINA RESULT:      -8.0      1.467      2.040
REMARK  3 active torsions:
REMARK  status: ('A' for Active; 'I' for Inactive)
REMARK    1  A    between atoms: C_4  and  C_5 
REMARK    2  A    between atoms: C_11  and  N_12 
REMARK    3  A    between atoms: C_14  and  C_15 
ROOT
HETATM    1  C   UNL     1     -43.006  56.832 -53.767  1.00  0.00    -0.006 A 
HETATM    2  C   UNL     1     -43.197  56.876 -55.188  1.00  0.00     0.063 A 
HETATM    3  C   UNL     1     -42.728  55.789 -55.932  1.00  0.00     0.165 A 
HETATM    4  N   UNL     1     -42.859  55.703 -57.246  1.00  0.00    -0.222 NA
HETATM    5  C   UNL     1     -43.462  56.709 -57.874  1.00  0.00     0.237 A 
HETATM    6  N   UNL     1     -43.939  57.810 -57.301  1.00  0.00    -0.229 NA
HETATM    7  C   UNL     1     -43.796  57.887 -55.973  1.00  0.00     0.117 A 
HETATM    8  N   UNL     1     -42.104  54.758 -55.370  1.00  0.00    -0.228 NA
HETATM    9  C   UNL     1     -41.892  54.719 -54.038  1.00  0.00     0.070 A 
HETATM   10  C   UNL     1     -42.342  55.731 -53.212  1.00  0.00     0.046 A 
ENDROOT
BRANCH   9  11
HETATM   11  C   UNL     1     -41.150  53.541 -53.544  1.00  0.00    -0.004 A 
HETATM   12  C   UNL     1     -40.976  52.389 -54.337  1.00  0.00     0.053 A 
HETATM   13  C   UNL     1     -40.292  51.312 -53.809  1.00  0.00     0.106 A 
HETATM   14  C   UNL     1     -39.773  51.330 -52.538  1.00  0.00     0.105 A 
HETATM   15  O   UNL     1     -40.058  50.134 -54.449  1.00  0.00    -0.323 OA
HETATM   16  O   UNL     1     -39.144  50.169 -52.216  1.00  0.00    -0.323 OA
HETATM   17  C   UNL     1     -39.913  52.426 -51.721  1.00  0.00     0.040 A 
HETATM   18  C   UNL     1     -39.345  49.407 -53.424  1.00  0.00     0.352 A 
HETATM   19  C   UNL     1     -40.609  53.531 -52.230  1.00  0.00     0.017 A 
ENDBRANCH   9  11
BRANCH   1  20
HETATM   20  C   UNL     1     -43.463  57.878 -52.838  1.00  0.00    -0.025 A 
HETATM   21  C   UNL     1     -44.726  57.803 -52.229  1.00  0.00     0.012 A 
HETATM   22  C   UNL     1     -45.147  58.789 -51.333  1.00  0.00     0.001 A 
HETATM   23  C   UNL     1     -44.306  59.854 -51.022  1.00  0.00     0.000 A 
HETATM   24  C   UNL     1     -43.044  59.938 -51.607  1.00  0.00     0.001 A 
HETATM   25  C   UNL     1     -42.626  58.957 -52.508  1.00  0.00     0.012 A 
ENDBRANCH   1  20
BRANCH   7  26
HETATM   26  N   UNL     1     -44.344  59.050 -55.439  1.00  0.00    -0.286 NA
HETATM   27  H   UNL     1     -43.665  59.798 -55.548  1.00  0.00     0.125 HD
HETATM   28  H   UNL     1     -44.645  58.943 -54.477  1.00  0.00     0.125 HD
ENDBRANCH   7  26
TORSDOF 3
ENDMDL
MODEL 8
REMARK VINA RESULT:      -7.8     15.541     18.219
REMARK  3 active torsions:
REMARK  status: ('A' for Active; 'I' for Inactive)
REMARK    1  A    between atoms: C_4  and  C_5 
REMARK    2  A    between atoms: C_11  and  N_12 
REMARK    3  A    between atoms: C_14  and  C_15 
ROOT
HETATM    1  C   UNL     1     -35.028  40.577 -55.951  1.00  0.00    -0.006 A 
HETATM    2  C   UNL     1     -35.239  41.053 -54.615  1.00  0.00     0.063 A 
HETATM    3  C   UNL     1     -34.211  40.846 -53.690  1.00  0.00     0.165 A 
HETATM    4  N   UNL     1     -34.278  41.254 -52.433  1.00  0.00    -0.222 NA
HETATM    5  C   UNL     1     -35.384  41.882 -52.045  1.00  0.00     0.237 A 
HETATM    6  N   UNL     1     -36.445  42.131 -52.806  1.00  0.00    -0.229 NA
HETATM    7  C   UNL     1     -36.367  41.710 -54.074  1.00  0.00     0.117 A 
HETATM    8  N   UNL     1     -33.086  40.213 -54.008  1.00  0.00    -0.228 NA
HETATM    9  C   UNL     1     -32.887  39.733 -55.253  1.00  0.00     0.070 A 
HETATM   10  C   UNL     1     -33.831  39.912 -56.247  1.00  0.00     0.046 A 
ENDROOT
BRANCH   9  11
HETATM   11  C   UNL     1     -31.616  39.012 -55.466  1.00  0.00    -0.004 A 
HETATM   12  C   UNL     1     -30.778  39.295 -56.564  1.00  0.00     0.053 A 
HETATM   13  C   UNL     1     -29.613  38.571 -56.719  1.00  0.00     0.106 A 
HETATM   14  C   UNL     1     -29.244  37.586 -55.835  1.00  0.00     0.105 A 
HETATM   15  O   UNL     1     -28.717  38.723 -57.731  1.00  0.00    -0.323 OA
HETATM   16  O   UNL     1     -28.068  36.996 -56.175  1.00  0.00    -0.323 OA
HETATM   17  C   UNL     1     -30.022  37.269 -54.748  1.00  0.00     0.040 A 
HETATM   18  C   UNL     1     -27.749  37.707 -57.389  1.00  0.00     0.352 A 
HETATM   19  C   UNL     1     -31.213  37.985 -54.570  1.00  0.00     0.017 A 
ENDBRANCH   9  11
BRANCH   1  20
HETATM   20  C   UNL     1     -35.995  40.736 -57.049  1.00  0.00    -0.025 A 
HETATM   21  C   UNL     1     -36.025  41.909 -57.821  1.00  0.00     0.012 A 
HETATM   22  C   UNL     1     -36.932  42.048 -58.874  1.00  0.00     0.001 A 
HETATM   23  C   UNL     1     -37.811  41.012 -59.181  1.00  0.00     0.000 A 
HETATM   24  C   UNL     1     -37.786  39.837 -58.434  1.00  0.00     0.001 A 
HETATM   25  C   UNL     1     -36.885  39.700 -57.376  1.00  0.00     0.012 A 
ENDBRANCH   1  20
BRANCH   7  26
HETATM   26  N   UNL     1     -37.500  42.030 -54.818  1.00  0.00    -0.286 NA
HETATM   27  H   UNL     1     -38.309  41.634 -54.348  1.00  0.00     0.125 HD
HETATM   28  H   UNL     1     -37.435  41.736 -55.786  1.00  0.00     0.125 HD
ENDBRANCH   7  26
TORSDOF 3
ENDMDL
MODEL 9
REMARK VINA RESULT:      -7.6      3.674      6.120
REMARK  3 active torsions:
REMARK  status: ('A' for Active; 'I' for Inactive)
REMARK    1  A    between atoms: C_4  and  C_5 
REMARK    2  A    between atoms: C_11  and  N_12 
REMARK    3  A    between atoms: C_14  and  C_15 
ROOT
HETATM    1  C   UNL     1     -41.850  56.565 -53.535  1.00  0.00    -0.006 A 
HETATM    2  C   UNL     1     -41.398  55.245 -53.200  1.00  0.00     0.063 A 
HETATM    3  C   UNL     1     -41.418  54.283 -54.215  1.00  0.00     0.165 A 
HETATM    4  N   UNL     1     -41.011  53.037 -54.037  1.00  0.00    -0.222 NA
HETATM    5  C   UNL     1     -40.571  52.697 -52.828  1.00  0.00     0.237 A 
HETATM    6  N   UNL     1     -40.513  53.498 -51.768  1.00  0.00    -0.229 NA
HETATM    7  C   UNL     1     -40.933  54.754 -51.960  1.00  0.00     0.117 A 
HETATM    8  N   UNL     1     -41.858  54.552 -55.441  1.00  0.00    -0.228 NA
HETATM    9  C   UNL     1     -42.314  55.781 -55.761  1.00  0.00     0.070 A 
HETATM   10  C   UNL     1     -42.309  56.808 -54.836  1.00  0.00     0.046 A 
ENDROOT
BRANCH   9  11
HETATM   11  C   UNL     1     -42.814  55.938 -57.141  1.00  0.00    -0.004 A 
HETATM   12  C   UNL     1     -43.570  54.930 -57.775  1.00  0.00     0.053 A 
HETATM   13  C   UNL     1     -43.989  55.129 -59.075  1.00  0.00     0.106 A 
HETATM   14  C   UNL     1     -43.698  56.278 -59.768  1.00  0.00     0.105 A 
HETATM   15  O   UNL     1     -44.711  54.245 -59.815  1.00  0.00    -0.323 OA
HETATM   16  O   UNL     1     -44.200  56.265 -61.031  1.00  0.00    -0.323 OA
HETATM   17  C   UNL     1     -42.965  57.292 -59.200  1.00  0.00     0.040 A 
HETATM   18  C   UNL     1     -44.825  54.966 -61.061  1.00  0.00     0.352 A 
HETATM   19  C   UNL     1     -42.521  57.114 -57.883  1.00  0.00     0.017 A 
ENDBRANCH   9  11
BRANCH   1  20
HETATM   20  C   UNL     1     -41.868  57.696 -52.595  1.00  0.00    -0.025 A 
HETATM   21  C   UNL     1     -43.040  58.042 -51.902  1.00  0.00     0.012 A 
HETATM   22  C   UNL     1     -43.048  59.105 -50.997  1.00  0.00     0.001 A 
HETATM   23  C   UNL     1     -41.882  59.829 -50.759  1.00  0.00     0.000 A 
HETATM   24  C   UNL     1     -40.707  59.492 -51.428  1.00  0.00     0.001 A 
HETATM   25  C   UNL     1     -40.700  58.434 -52.339  1.00  0.00     0.012 A 
ENDBRANCH   1  20
BRANCH   7  26
HETATM   26  N   UNL     1     -40.816  55.541 -50.817  1.00  0.00    -0.286 NA
HETATM   27  H   UNL     1     -40.189  56.312 -51.028  1.00  0.00     0.125 HD
HETATM   28  H   UNL     1     -40.519  55.016 -50.002  1.00  0.00     0.125 HD
ENDBRANCH   7  26
TORSDOF 3
ENDMDL
MODEL 10
REMARK VINA RESULT:      -7.6      3.878      6.264
REMARK  3 active torsions:
REMARK  status: ('A' for Active; 'I' for Inactive)
REMARK    1  A    between atoms: C_4  and  C_5 
REMARK    2  A    between atoms: C_11  and  N_12 
REMARK    3  A    between atoms: C_14  and  C_15 
ROOT
HETATM    1  C   UNL     1     -42.204  57.488 -52.734  1.00  0.00    -0.006 A 
HETATM    2  C   UNL     1     -41.654  56.243 -52.280  1.00  0.00     0.063 A 
HETATM    3  C   UNL     1     -41.363  55.278 -53.249  1.00  0.00     0.165 A 
HETATM    4  N   UNL     1     -40.837  54.099 -52.959  1.00  0.00    -0.222 NA
HETATM    5  C   UNL     1     -40.586  53.832 -51.681  1.00  0.00     0.237 A 
HETATM    6  N   UNL     1     -40.827  54.643 -50.654  1.00  0.00    -0.229 NA
HETATM    7  C   UNL     1     -41.363  55.830 -50.961  1.00  0.00     0.117 A 
HETATM    8  N   UNL     1     -41.602  55.475 -54.542  1.00  0.00    -0.228 NA
HETATM    9  C   UNL     1     -42.147  56.629 -54.980  1.00  0.00     0.070 A 
HETATM   10  C   UNL     1     -42.445  57.656 -54.104  1.00  0.00     0.046 A 
ENDROOT
BRANCH   9  11
HETATM   11  C   UNL     1     -42.403  56.705 -56.433  1.00  0.00    -0.004 A 
HETATM   12  C   UNL     1     -42.183  57.891 -57.162  1.00  0.00     0.053 A 
HETATM   13  C   UNL     1     -42.463  57.904 -58.514  1.00  0.00     0.106 A 
HETATM   14  C   UNL     1     -42.944  56.798 -59.170  1.00  0.00     0.105 A 
HETATM   15  O   UNL     1     -42.313  58.974 -59.341  1.00  0.00    -0.323 OA
HETATM   16  O   UNL     1     -43.155  57.028 -60.493  1.00  0.00    -0.323 OA
HETATM   17  C   UNL     1     -43.176  55.616 -58.508  1.00  0.00     0.040 A 
HETATM   18  C   UNL     1     -42.772  58.415 -60.591  1.00  0.00     0.352 A 
HETATM   19  C   UNL     1     -42.907  55.577 -57.134  1.00  0.00     0.017 A 
ENDBRANCH   9  11
BRANCH   1  20
HETATM   20  C   UNL     1     -42.540  58.615 -51.851  1.00  0.00    -0.025 A 
HETATM   21  C   UNL     1     -41.546  59.493 -51.388  1.00  0.00     0.012 A 
HETATM   22  C   UNL     1     -41.874  60.573 -50.565  1.00  0.00     0.001 A 
HETATM   23  C   UNL     1     -43.200  60.800 -50.206  1.00  0.00     0.000 A 
HETATM   24  C   UNL     1     -44.201  59.947 -50.666  1.00  0.00     0.001 A 
HETATM   25  C   UNL     1     -43.873  58.863 -51.483  1.00  0.00     0.012 A 
ENDBRANCH   1  20
BRANCH   7  26
HETATM   26  N   UNL     1     -41.560  56.636 -49.842  1.00  0.00    -0.286 NA
HETATM   27  H   UNL     1     -41.719  57.587 -50.163  1.00  0.00     0.125 HD
HETATM   28  H   UNL     1     -40.802  56.577 -49.171  1.00  0.00     0.125 HD
ENDBRANCH   7  26
TORSDOF 3
ENDMDL
