MODEL 1
REMARK VINA RESULT:      -8.6      0.000      0.000
REMARK  4 active torsions:
REMARK  status: ('A' for Active; 'I' for Inactive)
REMARK    1  A    between atoms: C_6  and  C_7 
REMARK       I    between atoms: C_7  and  N_8 
REMARK    2  A    between atoms: N_8  and  C_9 
REMARK    3  A    between atoms: C_10  and  C_11 
REMARK    4  A    between atoms: C_11  and  C_12 
ROOT
HETATM    1  C   UNL     1     -42.672  57.380 -55.263  1.00  0.00     0.259 C 
HETATM    2  N   UNL     1     -41.555  57.029 -54.532  1.00  0.00    -0.322 N 
HETATM    3  O   UNL     1     -43.657  57.961 -54.821  1.00  0.00    -0.267 OA
HETATM    4  H   UNL     1     -40.886  56.420 -54.984  1.00  0.00     0.169 HD
ENDROOT
BRANCH   2   5
HETATM    5  C   UNL     1     -41.248  57.424 -53.210  1.00  0.00     0.041 A 
HETATM    6  C   UNL     1     -41.396  56.501 -52.153  1.00  0.00    -0.027 A 
HETATM    7  C   UNL     1     -40.976  56.870 -50.858  1.00  0.00     0.010 A 
HETATM    8  C   UNL     1     -40.445  58.133 -50.609  1.00  0.00     0.001 A 
HETATM    9  C   UNL     1     -40.332  59.050 -51.646  1.00  0.00     0.002 A 
HETATM   10  C   UNL     1     -40.733  58.698 -52.938  1.00  0.00     0.030 A 
BRANCH   6  11
HETATM   11  C   UNL     1     -42.074  55.154 -52.313  1.00  0.00     0.079 C 
BRANCH  11  12
HETATM   12  C   UNL     1     -41.173  53.976 -52.607  1.00  0.00    -0.054 A 
HETATM   13  C   UNL     1     -40.641  53.238 -51.537  1.00  0.00     0.007 A 
HETATM   14  C   UNL     1     -39.848  52.113 -51.768  1.00  0.00     0.001 A 
HETATM   15  C   UNL     1     -39.586  51.703 -53.072  1.00  0.00     0.000 A 
HETATM   16  C   UNL     1     -40.117  52.416 -54.143  1.00  0.00     0.001 A 
HETATM   17  C   UNL     1     -40.910  53.543 -53.914  1.00  0.00     0.007 A 
ENDBRANCH  11  12
ENDBRANCH   6  11
ENDBRANCH   2   5
BRANCH   1  18
HETATM   18  C   UNL     1     -42.651  56.909 -56.640  1.00  0.00     0.081 A 
HETATM   19  C   UNL     1     -42.986  55.622 -57.033  1.00  0.00     0.068 A 
HETATM   20  C   UNL     1     -43.381  54.407 -56.288  1.00  0.00     0.078 C 
HETATM   21  O   UNL     1     -42.915  55.495 -58.389  1.00  0.00    -0.295 OA
HETATM   22  C   UNL     1     -42.552  56.703 -58.896  1.00  0.00     0.187 A 
HETATM   23  C   UNL     1     -42.367  57.591 -57.855  1.00  0.00     0.103 A 
HETATM   24  N   UNL     1     -42.426  56.953 -60.222  1.00  0.00    -0.219 NA
HETATM   25  C   UNL     1     -41.999  58.939 -58.187  1.00  0.00     0.262 A 
HETATM   26  N   UNL     1     -41.921  59.167 -59.544  1.00  0.00    -0.317 N 
HETATM   27  O   UNL     1     -41.751  59.806 -57.359  1.00  0.00    -0.267 OA
HETATM   28  C   UNL     1     -42.122  58.182 -60.485  1.00  0.00     0.212 A 
HETATM   29  H   UNL     1     -41.668  60.104 -59.823  1.00  0.00     0.170 HD
ENDBRANCH   1  18
TORSDOF 4
ENDMDL
MODEL 2
REMARK VINA RESULT:      -8.5      3.234      7.232
REMARK  4 active torsions:
REMARK  status: ('A' for Active; 'I' for Inactive)
REMARK    1  A    between atoms: C_6  and  C_7 
REMARK       I    between atoms: C_7  and  N_8 
REMARK    2  A    between atoms: N_8  and  C_9 
REMARK    3  A    between atoms: C_10  and  C_11 
REMARK    4  A    between atoms: C_11  and  C_12 
ROOT
HETATM    1  C   UNL     1     -40.780  54.266 -53.864  1.00  0.00     0.259 C 
HETATM    2  N   UNL     1     -42.128  54.469 -54.086  1.00  0.00    -0.322 N 
HETATM    3  O   UNL     1     -39.874  54.649 -54.595  1.00  0.00    -0.267 OA
HETATM    4  H   UNL     1     -42.771  53.970 -53.486  1.00  0.00     0.169 HD
ENDROOT
BRANCH   2   5
HETATM    5  C   UNL     1     -42.709  55.299 -55.072  1.00  0.00     0.041 A 
HETATM    6  C   UNL     1     -43.264  56.542 -54.701  1.00  0.00    -0.027 A 
HETATM    7  C   UNL     1     -43.734  57.410 -55.707  1.00  0.00     0.010 A 
HETATM    8  C   UNL     1     -43.681  57.047 -57.051  1.00  0.00     0.001 A 
HETATM    9  C   UNL     1     -43.164  55.808 -57.409  1.00  0.00     0.002 A 
HETATM   10  C   UNL     1     -42.683  54.940 -56.426  1.00  0.00     0.030 A 
BRANCH   6  11
HETATM   11  C   UNL     1     -43.471  56.963 -53.258  1.00  0.00     0.079 C 
BRANCH  11  12
HETATM   12  C   UNL     1     -42.393  57.829 -52.647  1.00  0.00    -0.054 A 
HETATM   13  C   UNL     1     -42.627  58.434 -51.401  1.00  0.00     0.007 A 
HETATM   14  C   UNL     1     -41.637  59.197 -50.778  1.00  0.00     0.001 A 
HETATM   15  C   UNL     1     -40.396  59.356 -51.389  1.00  0.00     0.000 A 
HETATM   16  C   UNL     1     -40.145  58.752 -52.618  1.00  0.00     0.001 A 
HETATM   17  C   UNL     1     -41.134  57.989 -53.242  1.00  0.00     0.007 A 
ENDBRANCH  11  12
ENDBRANCH   6  11
ENDBRANCH   2   5
BRANCH   1  18
HETATM   18  C   UNL     1     -40.490  53.443 -52.699  1.00  0.00     0.081 A 
HETATM   19  C   UNL     1     -40.583  53.881 -51.386  1.00  0.00     0.068 A 
HETATM   20  C   UNL     1     -40.916  55.187 -50.777  1.00  0.00     0.078 C 
HETATM   21  O   UNL     1     -40.295  52.871 -50.516  1.00  0.00    -0.295 OA
HETATM   22  C   UNL     1     -40.029  51.759 -51.252  1.00  0.00     0.187 A 
HETATM   23  C   UNL     1     -40.124  52.073 -52.593  1.00  0.00     0.103 A 
HETATM   24  N   UNL     1     -39.742  50.552 -50.709  1.00  0.00    -0.219 NA
HETATM   25  C   UNL     1     -39.899  51.019 -53.542  1.00  0.00     0.262 A 
HETATM   26  N   UNL     1     -39.651  49.797 -52.954  1.00  0.00    -0.317 N 
HETATM   27  O   UNL     1     -39.898  51.176 -54.756  1.00  0.00    -0.267 OA
HETATM   28  C   UNL     1     -39.573  49.620 -51.590  1.00  0.00     0.212 A 
HETATM   29  H   UNL     1     -39.490  49.025 -53.585  1.00  0.00     0.170 HD
ENDBRANCH   1  18
TORSDOF 4
ENDMDL
MODEL 3
REMARK VINA RESULT:      -8.5      2.204      3.679
REMARK  4 active torsions:
REMARK  status: ('A' for Active; 'I' for Inactive)
REMARK    1  A    between atoms: C_6  and  C_7 
REMARK       I    between atoms: C_7  and  N_8 
REMARK    2  A    between atoms: N_8  and  C_9 
REMARK    3  A    between atoms: C_10  and  C_11 
REMARK    4  A    between atoms: C_11  and  C_12 
ROOT
HETATM    1  C   UNL     1     -43.139  55.481 -52.937  1.00  0.00     0.259 C 
HETATM    2  N   UNL     1     -42.018  55.882 -52.237  1.00  0.00    -0.322 N 
HETATM    3  O   UNL     1     -43.693  54.392 -52.828  1.00  0.00    -0.267 OA
HETATM    4  H   UNL     1     -41.577  56.742 -52.534  1.00  0.00     0.169 HD
ENDROOT
BRANCH   2   5
HETATM    5  C   UNL     1     -41.414  55.213 -51.149  1.00  0.00     0.041 A 
HETATM    6  C   UNL     1     -40.462  54.200 -51.393  1.00  0.00    -0.027 A 
HETATM    7  C   UNL     1     -39.781  53.622 -50.301  1.00  0.00     0.010 A 
HETATM    8  C   UNL     1     -40.055  54.019 -48.994  1.00  0.00     0.001 A 
HETATM    9  C   UNL     1     -41.016  54.992 -48.757  1.00  0.00     0.002 A 
HETATM   10  C   UNL     1     -41.692  55.584 -49.827  1.00  0.00     0.030 A 
BRANCH   6  11
HETATM   11  C   UNL     1     -40.193  53.625 -52.770  1.00  0.00     0.079 C 
BRANCH  11  12
HETATM   12  C   UNL     1     -40.021  52.125 -52.854  1.00  0.00    -0.054 A 
HETATM   13  C   UNL     1     -40.086  51.499 -54.110  1.00  0.00     0.007 A 
HETATM   14  C   UNL     1     -39.880  50.123 -54.235  1.00  0.00     0.001 A 
HETATM   15  C   UNL     1     -39.595  49.358 -53.108  1.00  0.00     0.000 A 
HETATM   16  C   UNL     1     -39.514  49.967 -51.858  1.00  0.00     0.001 A 
HETATM   17  C   UNL     1     -39.720  51.342 -51.731  1.00  0.00     0.007 A 
ENDBRANCH  11  12
ENDBRANCH   6  11
ENDBRANCH   2   5
BRANCH   1  18
HETATM   18  C   UNL     1     -43.589  56.441 -53.934  1.00  0.00     0.081 A 
HETATM   19  C   UNL     1     -44.332  57.577 -53.651  1.00  0.00     0.068 A 
HETATM   20  C   UNL     1     -44.907  58.123 -52.402  1.00  0.00     0.078 C 
HETATM   21  O   UNL     1     -44.562  58.302 -54.782  1.00  0.00    -0.295 OA
HETATM   22  C   UNL     1     -43.953  57.656 -55.813  1.00  0.00     0.187 A 
HETATM   23  C   UNL     1     -43.360  56.504 -55.336  1.00  0.00     0.103 A 
HETATM   24  N   UNL     1     -43.943  58.120 -57.086  1.00  0.00    -0.219 NA
HETATM   25  C   UNL     1     -42.642  55.688 -56.274  1.00  0.00     0.262 A 
HETATM   26  N   UNL     1     -42.616  56.211 -57.549  1.00  0.00    -0.317 N 
HETATM   27  O   UNL     1     -42.119  54.617 -55.993  1.00  0.00    -0.267 OA
HETATM   28  C   UNL     1     -43.263  57.376 -57.897  1.00  0.00     0.212 A 
HETATM   29  H   UNL     1     -42.118  55.671 -58.241  1.00  0.00     0.170 HD
ENDBRANCH   1  18
TORSDOF 4
ENDMDL
MODEL 4
REMARK VINA RESULT:      -8.4      1.753      4.565
REMARK  4 active torsions:
REMARK  status: ('A' for Active; 'I' for Inactive)
REMARK    1  A    between atoms: C_6  and  C_7 
REMARK       I    between atoms: C_7  and  N_8 
REMARK    2  A    between atoms: N_8  and  C_9 
REMARK    3  A    between atoms: C_10  and  C_11 
REMARK    4  A    between atoms: C_11  and  C_12 
ROOT
HETATM    1  C   UNL     1     -42.940  54.658 -56.273  1.00  0.00     0.259 C 
HETATM    2  N   UNL     1     -41.636  54.734 -55.823  1.00  0.00    -0.322 N 
HETATM    3  O   UNL     1     -43.796  53.893 -55.843  1.00  0.00    -0.267 OA
HETATM    4  H   UNL     1     -40.997  55.299 -56.367  1.00  0.00     0.169 HD
ENDROOT
BRANCH   2   5
HETATM    5  C   UNL     1     -41.094  54.100 -54.683  1.00  0.00     0.041 A 
HETATM    6  C   UNL     1     -41.452  54.554 -53.394  1.00  0.00    -0.027 A 
HETATM    7  C   UNL     1     -40.998  53.840 -52.267  1.00  0.00     0.010 A 
HETATM    8  C   UNL     1     -40.186  52.717 -52.407  1.00  0.00     0.001 A 
HETATM    9  C   UNL     1     -39.809  52.294 -53.676  1.00  0.00     0.002 A 
HETATM   10  C   UNL     1     -40.259  52.982 -54.805  1.00  0.00     0.030 A 
BRANCH   6  11
HETATM   11  C   UNL     1     -42.228  55.833 -53.149  1.00  0.00     0.079 C 
BRANCH  11  12
HETATM   12  C   UNL     1     -41.475  56.962 -52.481  1.00  0.00    -0.054 A 
HETATM   13  C   UNL     1     -40.657  57.794 -53.263  1.00  0.00     0.007 A 
HETATM   14  C   UNL     1     -39.988  58.879 -52.693  1.00  0.00     0.001 A 
HETATM   15  C   UNL     1     -40.135  59.152 -51.336  1.00  0.00     0.000 A 
HETATM   16  C   UNL     1     -40.953  58.343 -50.551  1.00  0.00     0.001 A 
HETATM   17  C   UNL     1     -41.623  57.258 -51.119  1.00  0.00     0.007 A 
ENDBRANCH  11  12
ENDBRANCH   6  11
ENDBRANCH   2   5
BRANCH   1  18
HETATM   18  C   UNL     1     -43.224  55.516 -57.414  1.00  0.00     0.081 A 
HETATM   19  C   UNL     1     -42.864  56.853 -57.498  1.00  0.00     0.068 A 
HETATM   20  C   UNL     1     -42.198  57.782 -56.560  1.00  0.00     0.078 C 
HETATM   21  O   UNL     1     -43.224  57.377 -58.704  1.00  0.00    -0.295 OA
HETATM   22  C   UNL     1     -43.805  56.382 -59.426  1.00  0.00     0.187 A 
HETATM   23  C   UNL     1     -43.837  55.231 -58.665  1.00  0.00     0.103 A 
HETATM   24  N   UNL     1     -44.249  56.539 -60.697  1.00  0.00    -0.219 NA
HETATM   25  C   UNL     1     -44.397  54.052 -59.262  1.00  0.00     0.262 A 
HETATM   26  N   UNL     1     -44.799  54.237 -60.567  1.00  0.00    -0.317 N 
HETATM   27  O   UNL     1     -44.534  52.985 -58.677  1.00  0.00    -0.267 OA
HETATM   28  C   UNL     1     -44.720  55.450 -61.214  1.00  0.00     0.212 A 
HETATM   29  H   UNL     1     -45.195  53.431 -61.029  1.00  0.00     0.170 HD
ENDBRANCH   1  18
TORSDOF 4
ENDMDL
MODEL 5
REMARK VINA RESULT:      -8.0      1.359      4.096
REMARK  4 active torsions:
REMARK  status: ('A' for Active; 'I' for Inactive)
REMARK    1  A    between atoms: C_6  and  C_7 
REMARK       I    between atoms: C_7  and  N_8 
REMARK    2  A    between atoms: N_8  and  C_9 
REMARK    3  A    between atoms: C_10  and  C_11 
REMARK    4  A    between atoms: C_11  and  C_12 
ROOT
HETATM    1  C   UNL     1     -42.511  56.261 -56.768  1.00  0.00     0.259 C 
HETATM    2  N   UNL     1     -41.518  56.196 -55.811  1.00  0.00    -0.322 N 
HETATM    3  O   UNL     1     -43.181  55.313 -57.163  1.00  0.00    -0.267 OA
HETATM    4  H   UNL     1     -40.943  57.019 -55.692  1.00  0.00     0.169 HD
ENDROOT
BRANCH   2   5
HETATM    5  C   UNL     1     -41.213  55.094 -54.980  1.00  0.00     0.041 A 
HETATM    6  C   UNL     1     -41.768  55.020 -53.684  1.00  0.00    -0.027 A 
HETATM    7  C   UNL     1     -41.551  53.862 -52.911  1.00  0.00     0.010 A 
HETATM    8  C   UNL     1     -40.778  52.810 -53.396  1.00  0.00     0.001 A 
HETATM    9  C   UNL     1     -40.205  52.901 -54.658  1.00  0.00     0.002 A 
HETATM   10  C   UNL     1     -40.420  54.037 -55.443  1.00  0.00     0.030 A 
BRANCH   6  11
HETATM   11  C   UNL     1     -42.518  56.168 -53.034  1.00  0.00     0.079 C 
BRANCH  11  12
HETATM   12  C   UNL     1     -41.681  57.190 -52.299  1.00  0.00    -0.054 A 
HETATM   13  C   UNL     1     -41.663  57.177 -50.895  1.00  0.00     0.007 A 
HETATM   14  C   UNL     1     -40.862  58.070 -50.181  1.00  0.00     0.001 A 
HETATM   15  C   UNL     1     -40.059  58.981 -50.862  1.00  0.00     0.000 A 
HETATM   16  C   UNL     1     -40.056  58.997 -52.254  1.00  0.00     0.001 A 
HETATM   17  C   UNL     1     -40.857  58.105 -52.970  1.00  0.00     0.007 A 
ENDBRANCH  11  12
ENDBRANCH   6  11
ENDBRANCH   2   5
BRANCH   1  18
HETATM   18  C   UNL     1     -42.656  57.572 -57.383  1.00  0.00     0.081 A 
HETATM   19  C   UNL     1     -43.052  58.716 -56.707  1.00  0.00     0.068 A 
HETATM   20  C   UNL     1     -43.470  58.973 -55.311  1.00  0.00     0.078 C 
HETATM   21  O   UNL     1     -43.049  59.797 -57.539  1.00  0.00    -0.295 OA
HETATM   22  C   UNL     1     -42.631  59.372 -58.761  1.00  0.00     0.187 A 
HETATM   23  C   UNL     1     -42.395  58.013 -58.710  1.00  0.00     0.103 A 
HETATM   24  N   UNL     1     -42.469  60.195 -59.825  1.00  0.00    -0.219 NA
HETATM   25  C   UNL     1     -41.921  57.374 -59.905  1.00  0.00     0.262 A 
HETATM   26  N   UNL     1     -41.728  58.247 -60.954  1.00  0.00    -0.317 N 
HETATM   27  O   UNL     1     -41.727  56.169 -60.009  1.00  0.00    -0.267 OA
HETATM   28  C   UNL     1     -42.014  59.592 -60.875  1.00  0.00     0.212 A 
HETATM   29  H   UNL     1     -41.391  57.840 -61.814  1.00  0.00     0.170 HD
ENDBRANCH   1  18
TORSDOF 4
ENDMDL
MODEL 6
REMARK VINA RESULT:      -8.0      1.889      2.984
REMARK  4 active torsions:
REMARK  status: ('A' for Active; 'I' for Inactive)
REMARK    1  A    between atoms: C_6  and  C_7 
REMARK       I    between atoms: C_7  and  N_8 
REMARK    2  A    between atoms: N_8  and  C_9 
REMARK    3  A    between atoms: C_10  and  C_11 
REMARK    4  A    between atoms: C_11  and  C_12 
ROOT
HETATM    1  C   UNL     1     -42.635  56.322 -54.266  1.00  0.00     0.259 C 
HETATM    2  N   UNL     1     -41.521  56.388 -53.454  1.00  0.00    -0.322 N 
HETATM    3  O   UNL     1     -43.589  55.568 -54.104  1.00  0.00    -0.267 OA
HETATM    4  H   UNL     1     -40.744  56.943 -53.788  1.00  0.00     0.169 HD
ENDROOT
BRANCH   2   5
HETATM    5  C   UNL     1     -41.345  55.756 -52.202  1.00  0.00     0.041 A 
HETATM    6  C   UNL     1     -40.728  54.488 -52.141  1.00  0.00    -0.027 A 
HETATM    7  C   UNL     1     -40.453  53.921 -50.880  1.00  0.00     0.010 A 
HETATM    8  C   UNL     1     -40.804  54.580 -49.704  1.00  0.00     0.001 A 
HETATM    9  C   UNL     1     -41.442  55.812 -49.770  1.00  0.00     0.002 A 
HETATM   10  C   UNL     1     -41.712  56.395 -51.011  1.00  0.00     0.030 A 
BRANCH   6  11
HETATM   11  C   UNL     1     -40.423  53.650 -53.368  1.00  0.00     0.079 C 
BRANCH  11  12
HETATM   12  C   UNL     1     -40.148  52.182 -53.131  1.00  0.00    -0.054 A 
HETATM   13  C   UNL     1     -40.321  51.275 -54.190  1.00  0.00     0.007 A 
HETATM   14  C   UNL     1     -40.027  49.920 -54.027  1.00  0.00     0.001 A 
HETATM   15  C   UNL     1     -39.544  49.456 -52.807  1.00  0.00     0.000 A 
HETATM   16  C   UNL     1     -39.355  50.345 -51.752  1.00  0.00     0.001 A 
HETATM   17  C   UNL     1     -39.649  51.701 -51.913  1.00  0.00     0.007 A 
ENDBRANCH  11  12
ENDBRANCH   6  11
ENDBRANCH   2   5
BRANCH   1  18
HETATM   18  C   UNL     1     -42.562  57.176 -55.443  1.00  0.00     0.081 A 
HETATM   19  C   UNL     1     -42.727  56.731 -56.746  1.00  0.00     0.068 A 
HETATM   20  C   UNL     1     -42.953  55.394 -57.337  1.00  0.00     0.078 C 
HETATM   21  O   UNL     1     -42.650  57.769 -57.626  1.00  0.00    -0.295 OA
HETATM   22  C   UNL     1     -42.454  58.904 -56.905  1.00  0.00     0.187 A 
HETATM   23  C   UNL     1     -42.379  58.580 -55.565  1.00  0.00     0.103 A 
HETATM   24  N   UNL     1     -42.371  60.139 -57.458  1.00  0.00    -0.219 NA
HETATM   25  C   UNL     1     -42.195  59.654 -54.630  1.00  0.00     0.262 A 
HETATM   26  N   UNL     1     -42.158  60.897 -55.222  1.00  0.00    -0.317 N 
HETATM   27  O   UNL     1     -42.058  59.497 -53.423  1.00  0.00    -0.267 OA
HETATM   28  C   UNL     1     -42.235  61.084 -56.585  1.00  0.00     0.212 A 
HETATM   29  H   UNL     1     -42.033  61.683 -54.600  1.00  0.00     0.170 HD
ENDBRANCH   1  18
TORSDOF 4
ENDMDL
MODEL 7
REMARK VINA RESULT:      -8.0     15.652     17.723
REMARK  4 active torsions:
REMARK  status: ('A' for Active; 'I' for Inactive)
REMARK    1  A    between atoms: C_6  and  C_7 
REMARK       I    between atoms: C_7  and  N_8 
REMARK    2  A    between atoms: N_8  and  C_9 
REMARK    3  A    between atoms: C_10  and  C_11 
REMARK    4  A    between atoms: C_11  and  C_12 
ROOT
HETATM    1  C   UNL     1     -35.399  41.551 -53.320  1.00  0.00     0.259 C 
HETATM    2  N   UNL     1     -36.399  40.774 -53.870  1.00  0.00    -0.322 N 
HETATM    3  O   UNL     1     -35.547  42.677 -52.858  1.00  0.00    -0.267 OA
HETATM    4  H   UNL     1     -36.112  39.933 -54.351  1.00  0.00     0.169 HD
ENDROOT
BRANCH   2   5
HETATM    5  C   UNL     1     -37.788  41.034 -53.839  1.00  0.00     0.041 A 
HETATM    6  C   UNL     1     -38.453  41.424 -55.021  1.00  0.00    -0.027 A 
HETATM    7  C   UNL     1     -39.856  41.566 -55.003  1.00  0.00     0.010 A 
HETATM    8  C   UNL     1     -40.584  41.352 -53.835  1.00  0.00     0.001 A 
HETATM    9  C   UNL     1     -39.921  41.001 -52.665  1.00  0.00     0.002 A 
HETATM   10  C   UNL     1     -38.533  40.845 -52.667  1.00  0.00     0.030 A 
BRANCH   6  11
HETATM   11  C   UNL     1     -37.727  41.794 -56.301  1.00  0.00     0.079 C 
BRANCH  11  12
HETATM   12  C   UNL     1     -37.783  40.783 -57.424  1.00  0.00    -0.054 A 
HETATM   13  C   UNL     1     -37.613  41.223 -58.747  1.00  0.00     0.007 A 
HETATM   14  C   UNL     1     -37.605  40.314 -59.807  1.00  0.00     0.001 A 
HETATM   15  C   UNL     1     -37.756  38.954 -59.558  1.00  0.00     0.000 A 
HETATM   16  C   UNL     1     -37.913  38.501 -58.250  1.00  0.00     0.001 A 
HETATM   17  C   UNL     1     -37.921  39.409 -57.188  1.00  0.00     0.007 A 
ENDBRANCH  11  12
ENDBRANCH   6  11
ENDBRANCH   2   5
BRANCH   1  18
HETATM   18  C   UNL     1     -34.071  40.963 -53.417  1.00  0.00     0.081 A 
HETATM   19  C   UNL     1     -33.324  40.532 -52.331  1.00  0.00     0.068 A 
HETATM   20  C   UNL     1     -33.552  40.562 -50.870  1.00  0.00     0.078 C 
HETATM   21  O   UNL     1     -32.144  39.985 -52.741  1.00  0.00    -0.295 OA
HETATM   22  C   UNL     1     -32.119  40.035 -54.099  1.00  0.00     0.187 A 
HETATM   23  C   UNL     1     -33.275  40.641 -54.550  1.00  0.00     0.103 A 
HETATM   24  N   UNL     1     -31.105  39.538 -54.849  1.00  0.00    -0.219 NA
HETATM   25  C   UNL     1     -33.450  40.769 -55.969  1.00  0.00     0.262 A 
HETATM   26  N   UNL     1     -32.421  40.216 -56.700  1.00  0.00    -0.317 N 
HETATM   27  O   UNL     1     -34.400  41.335 -56.495  1.00  0.00    -0.267 OA
HETATM   28  C   UNL     1     -31.309  39.645 -56.122  1.00  0.00     0.212 A 
HETATM   29  H   UNL     1     -32.505  40.281 -57.704  1.00  0.00     0.170 HD
ENDBRANCH   1  18
TORSDOF 4
ENDMDL
MODEL 8
REMARK VINA RESULT:      -8.0      3.262      6.658
REMARK  4 active torsions:
REMARK  status: ('A' for Active; 'I' for Inactive)
REMARK    1  A    between atoms: C_6  and  C_7 
REMARK       I    between atoms: C_7  and  N_8 
REMARK    2  A    between atoms: N_8  and  C_9 
REMARK    3  A    between atoms: C_10  and  C_11 
REMARK    4  A    between atoms: C_11  and  C_12 
ROOT
HETATM    1  C   UNL     1     -42.434  55.733 -52.299  1.00  0.00     0.259 C 
HETATM    2  N   UNL     1     -42.350  56.244 -53.578  1.00  0.00    -0.322 N 
HETATM    3  O   UNL     1     -43.195  56.130 -51.423  1.00  0.00    -0.267 OA
HETATM    4  H   UNL     1     -41.576  55.928 -54.147  1.00  0.00     0.169 HD
ENDROOT
BRANCH   2   5
HETATM    5  C   UNL     1     -43.229  57.173 -54.180  1.00  0.00     0.041 A 
HETATM    6  C   UNL     1     -42.752  58.448 -54.552  1.00  0.00    -0.027 A 
HETATM    7  C   UNL     1     -43.607  59.320 -55.256  1.00  0.00     0.010 A 
HETATM    8  C   UNL     1     -44.915  58.952 -55.562  1.00  0.00     0.001 A 
HETATM    9  C   UNL     1     -45.391  57.709 -55.163  1.00  0.00     0.002 A 
HETATM   10  C   UNL     1     -44.554  56.827 -54.475  1.00  0.00     0.030 A 
BRANCH   6  11
HETATM   11  C   UNL     1     -41.386  58.974 -54.154  1.00  0.00     0.079 C 
BRANCH  11  12
HETATM   12  C   UNL     1     -41.169  59.239 -52.681  1.00  0.00    -0.054 A 
HETATM   13  C   UNL     1     -42.191  59.857 -51.940  1.00  0.00     0.007 A 
HETATM   14  C   UNL     1     -42.050  60.071 -50.568  1.00  0.00     0.001 A 
HETATM   15  C   UNL     1     -40.891  59.661 -49.916  1.00  0.00     0.000 A 
HETATM   16  C   UNL     1     -39.874  59.036 -50.635  1.00  0.00     0.001 A 
HETATM   17  C   UNL     1     -40.013  58.821 -52.007  1.00  0.00     0.007 A 
ENDBRANCH  11  12
ENDBRANCH   6  11
ENDBRANCH   2   5
BRANCH   1  18
HETATM   18  C   UNL     1     -41.444  54.706 -52.005  1.00  0.00     0.081 A 
HETATM   19  C   UNL     1     -40.732  54.620 -50.818  1.00  0.00     0.068 A 
HETATM   20  C   UNL     1     -40.687  55.461 -49.602  1.00  0.00     0.078 C 
HETATM   21  O   UNL     1     -39.917  53.527 -50.821  1.00  0.00    -0.295 OA
HETATM   22  C   UNL     1     -40.103  52.879 -52.001  1.00  0.00     0.187 A 
HETATM   23  C   UNL     1     -41.020  53.578 -52.760  1.00  0.00     0.103 A 
HETATM   24  N   UNL     1     -39.479  51.721 -52.328  1.00  0.00    -0.219 NA
HETATM   25  C   UNL     1     -41.372  53.040 -54.044  1.00  0.00     0.262 A 
HETATM   26  N   UNL     1     -40.751  51.842 -54.324  1.00  0.00    -0.317 N 
HETATM   27  O   UNL     1     -42.127  53.589 -54.835  1.00  0.00    -0.267 OA
HETATM   28  C   UNL     1     -39.840  51.250 -53.477  1.00  0.00     0.212 A 
HETATM   29  H   UNL     1     -40.972  51.424 -55.216  1.00  0.00     0.170 HD
ENDBRANCH   1  18
TORSDOF 4
ENDMDL
MODEL 9
REMARK VINA RESULT:      -8.0      3.234      6.731
REMARK  4 active torsions:
REMARK  status: ('A' for Active; 'I' for Inactive)
REMARK    1  A    between atoms: C_6  and  C_7 
REMARK       I    between atoms: C_7  and  N_8 
REMARK    2  A    between atoms: N_8  and  C_9 
REMARK    3  A    between atoms: C_10  and  C_11 
REMARK    4  A    between atoms: C_11  and  C_12 
ROOT
HETATM    1  C   UNL     1     -41.320  55.604 -51.274  1.00  0.00     0.259 C 
HETATM    2  N   UNL     1     -42.464  55.669 -52.043  1.00  0.00    -0.322 N 
HETATM    3  O   UNL     1     -40.733  56.567 -50.790  1.00  0.00    -0.267 OA
HETATM    4  H   UNL     1     -42.754  54.816 -52.504  1.00  0.00     0.169 HD
ENDROOT
BRANCH   2   5
HETATM    5  C   UNL     1     -43.274  56.806 -52.264  1.00  0.00     0.041 A 
HETATM    6  C   UNL     1     -43.114  57.559 -53.447  1.00  0.00    -0.027 A 
HETATM    7  C   UNL     1     -44.006  58.619 -53.709  1.00  0.00     0.010 A 
HETATM    8  C   UNL     1     -45.018  58.945 -52.810  1.00  0.00     0.001 A 
HETATM    9  C   UNL     1     -45.150  58.223 -51.631  1.00  0.00     0.002 A 
HETATM   10  C   UNL     1     -44.283  57.161 -51.360  1.00  0.00     0.030 A 
BRANCH   6  11
HETATM   11  C   UNL     1     -41.968  57.350 -54.418  1.00  0.00     0.079 C 
BRANCH  11  12
HETATM   12  C   UNL     1     -42.341  57.150 -55.869  1.00  0.00    -0.054 A 
HETATM   13  C   UNL     1     -42.775  55.884 -56.295  1.00  0.00     0.007 A 
HETATM   14  C   UNL     1     -43.179  55.672 -57.615  1.00  0.00     0.001 A 
HETATM   15  C   UNL     1     -43.165  56.726 -58.523  1.00  0.00     0.000 A 
HETATM   16  C   UNL     1     -42.749  57.990 -58.113  1.00  0.00     0.001 A 
HETATM   17  C   UNL     1     -42.345  58.204 -56.794  1.00  0.00     0.007 A 
ENDBRANCH  11  12
ENDBRANCH   6  11
ENDBRANCH   2   5
BRANCH   1  18
HETATM   18  C   UNL     1     -40.767  54.264 -51.145  1.00  0.00     0.081 A 
HETATM   19  C   UNL     1     -40.562  53.612 -49.939  1.00  0.00     0.068 A 
HETATM   20  C   UNL     1     -40.754  54.013 -48.527  1.00  0.00     0.078 C 
HETATM   21  O   UNL     1     -40.077  52.355 -50.142  1.00  0.00    -0.295 OA
HETATM   22  C   UNL     1     -39.980  52.165 -51.485  1.00  0.00     0.187 A 
HETATM   23  C   UNL     1     -40.379  53.317 -52.133  1.00  0.00     0.103 A 
HETATM   24  N   UNL     1     -39.569  51.005 -52.051  1.00  0.00    -0.219 NA
HETATM   25  C   UNL     1     -40.369  53.312 -53.569  1.00  0.00     0.262 A 
HETATM   26  N   UNL     1     -39.987  52.103 -54.109  1.00  0.00    -0.317 N 
HETATM   27  O   UNL     1     -40.646  54.283 -54.261  1.00  0.00    -0.267 OA
HETATM   28  C   UNL     1     -39.600  51.025 -53.344  1.00  0.00     0.212 A 
HETATM   29  H   UNL     1     -39.970  52.053 -55.118  1.00  0.00     0.170 HD
ENDBRANCH   1  18
TORSDOF 4
ENDMDL
MODEL 10
REMARK VINA RESULT:      -8.0      3.039      7.179
REMARK  4 active torsions:
REMARK  status: ('A' for Active; 'I' for Inactive)
REMARK    1  A    between atoms: C_6  and  C_7 
REMARK       I    between atoms: C_7  and  N_8 
REMARK    2  A    between atoms: N_8  and  C_9 
REMARK    3  A    between atoms: C_10  and  C_11 
REMARK    4  A    between atoms: C_11  and  C_12 
ROOT
HETATM    1  C   UNL     1     -41.198  55.014 -53.892  1.00  0.00     0.259 C 
HETATM    2  N   UNL     1     -42.446  54.848 -54.457  1.00  0.00    -0.322 N 
HETATM    3  O   UNL     1     -40.332  55.784 -54.294  1.00  0.00    -0.267 OA
HETATM    4  H   UNL     1     -43.002  54.073 -54.121  1.00  0.00     0.169 HD
ENDROOT
BRANCH   2   5
HETATM    5  C   UNL     1     -43.032  55.645 -55.467  1.00  0.00     0.041 A 
HETATM    6  C   UNL     1     -43.815  56.764 -55.107  1.00  0.00    -0.027 A 
HETATM    7  C   UNL     1     -44.296  57.617 -56.121  1.00  0.00     0.010 A 
HETATM    8  C   UNL     1     -44.032  57.356 -57.464  1.00  0.00     0.001 A 
HETATM    9  C   UNL     1     -43.290  56.236 -57.815  1.00  0.00     0.002 A 
HETATM   10  C   UNL     1     -42.795  55.386 -56.823  1.00  0.00     0.030 A 
BRANCH   6  11
HETATM   11  C   UNL     1     -44.251  57.051 -53.683  1.00  0.00     0.079 C 
BRANCH  11  12
HETATM   12  C   UNL     1     -43.617  58.249 -53.013  1.00  0.00    -0.054 A 
HETATM   13  C   UNL     1     -44.243  58.815 -51.890  1.00  0.00     0.007 A 
HETATM   14  C   UNL     1     -43.663  59.889 -51.212  1.00  0.00     0.001 A 
HETATM   15  C   UNL     1     -42.442  60.403 -51.640  1.00  0.00     0.000 A 
HETATM   16  C   UNL     1     -41.802  59.843 -52.743  1.00  0.00     0.001 A 
HETATM   17  C   UNL     1     -42.382  58.770 -53.423  1.00  0.00     0.007 A 
ENDBRANCH  11  12
ENDBRANCH   6  11
ENDBRANCH   2   5
BRANCH   1  18
HETATM   18  C   UNL     1     -40.920  54.101 -52.792  1.00  0.00     0.081 A 
HETATM   19  C   UNL     1     -40.472  52.798 -52.949  1.00  0.00     0.068 A 
HETATM   20  C   UNL     1     -40.202  51.957 -54.136  1.00  0.00     0.078 C 
HETATM   21  O   UNL     1     -40.258  52.210 -51.738  1.00  0.00    -0.295 OA
HETATM   22  C   UNL     1     -40.545  53.130 -50.779  1.00  0.00     0.187 A 
HETATM   23  C   UNL     1     -40.968  54.295 -51.385  1.00  0.00     0.103 A 
HETATM   24  N   UNL     1     -40.403  52.898 -49.451  1.00  0.00    -0.219 NA
HETATM   25  C   UNL     1     -41.301  55.404 -50.536  1.00  0.00     0.262 A 
HETATM   26  N   UNL     1     -41.105  55.147 -49.196  1.00  0.00    -0.317 N 
HETATM   27  O   UNL     1     -41.741  56.473 -50.942  1.00  0.00    -0.267 OA
HETATM   28  C   UNL     1     -40.683  53.926 -48.718  1.00  0.00     0.212 A 
HETATM   29  H   UNL     1     -41.323  55.902 -48.562  1.00  0.00     0.170 HD
ENDBRANCH   1  18
TORSDOF 4
ENDMDL
