MODEL 1
REMARK VINA RESULT:      -8.3      0.000      0.000
REMARK  4 active torsions:
REMARK  status: ('A' for Active; 'I' for Inactive)
REMARK    1  A    between atoms: O_2  and  C_3 
REMARK    2  A    between atoms: C_6  and  C_7 
REMARK    3  A    between atoms: C_12  and  N_13 
REMARK    4  A    between atoms: C_15  and  C_16 
ROOT
HETATM    1  C   UNL     1     -41.194  55.629 -54.751  1.00  0.00     0.135 C 
HETATM    2  N   UNL     1     -40.856  56.835 -54.002  1.00  0.00    -0.214 N 
HETATM    3  C   UNL     1     -41.521  57.984 -54.233  1.00  0.00     0.736 A 
HETATM    4  N   UNL     1     -42.670  58.005 -54.976  1.00  0.00    -0.074 N 
HETATM    5  N   UNL     1     -43.190  59.241 -55.050  1.00  0.00     0.037 NA
HETATM    6  C   UNL     1     -42.299  59.924 -54.334  1.00  0.00     0.753 A 
HETATM    7  N   UNL     1     -41.251  59.201 -53.842  1.00  0.00     0.131 NA
HETATM    8  C   UNL     1     -43.252  56.839 -55.624  1.00  0.00     0.164 C 
HETATM    9  C   UNL     1     -42.719  55.553 -54.970  1.00  0.00     0.063 C 
HETATM   10  H   UNL     1     -39.901  56.906 -53.662  1.00  0.00     0.178 HD
ENDROOT
BRANCH   1  11
HETATM   11  C   UNL     1     -40.714  54.387 -54.019  1.00  0.00    -0.035 A 
HETATM   12  C   UNL     1     -40.707  54.305 -52.618  1.00  0.00     0.012 A 
HETATM   13  C   UNL     1     -40.308  53.131 -51.975  1.00  0.00     0.037 A 
HETATM   14  C   UNL     1     -39.932  52.008 -52.712  1.00  0.00     0.068 A 
HETATM   15  C   UNL     1     -39.931  52.077 -54.104  1.00  0.00     0.037 A 
HETATM   16  C   UNL     1     -40.320  53.257 -54.752  1.00  0.00     0.012 A 
BRANCH  14  17
HETATM   17  O   UNL     1     -39.585  50.920 -51.962  1.00  0.00    -0.356 OA
HETATM   18  C   UNL     1     -39.653  49.653 -52.606  1.00  0.00     0.210 C 
ENDBRANCH  14  17
ENDBRANCH   1  11
BRANCH   8  19
HETATM   19  C   UNL     1     -43.048  56.832 -57.137  1.00  0.00    -0.031 A 
HETATM   20  C   UNL     1     -42.696  57.980 -57.870  1.00  0.00     0.028 A 
HETATM   21  C   UNL     1     -42.501  57.906 -59.250  1.00  0.00     0.011 A 
HETATM   22 BR   UNL     1     -42.033  59.465 -60.213  1.00  0.00    -0.051 Br
HETATM   23  C   UNL     1     -42.646  56.697 -59.925  1.00  0.00     0.019 A 
HETATM   24  C   UNL     1     -42.988  55.550 -59.213  1.00  0.00     0.002 A 
HETATM   25  C   UNL     1     -43.185  55.616 -57.832  1.00  0.00     0.009 A 
ENDBRANCH   8  19
BRANCH   6  26
HETATM   26  N   UNL     1     -42.336  61.232 -54.100  1.00  0.00    -0.229 N 
HETATM   27  H   UNL     1     -41.925  61.833 -54.800  1.00  0.00     0.174 HD
HETATM   28  H   UNL     1     -42.195  61.528 -53.144  1.00  0.00     0.174 HD
ENDBRANCH   6  26
TORSDOF 4
ENDMDL
MODEL 2
REMARK VINA RESULT:      -8.2      0.454      1.064
REMARK  4 active torsions:
REMARK  status: ('A' for Active; 'I' for Inactive)
REMARK    1  A    between atoms: O_2  and  C_3 
REMARK    2  A    between atoms: C_6  and  C_7 
REMARK    3  A    between atoms: C_12  and  N_13 
REMARK    4  A    between atoms: C_15  and  C_16 
ROOT
HETATM    1  C   UNL     1     -41.224  55.431 -54.705  1.00  0.00     0.135 C 
HETATM    2  N   UNL     1     -40.839  56.631 -53.969  1.00  0.00    -0.214 N 
HETATM    3  C   UNL     1     -41.469  57.799 -54.201  1.00  0.00     0.736 A 
HETATM    4  N   UNL     1     -42.625  57.852 -54.929  1.00  0.00    -0.074 N 
HETATM    5  N   UNL     1     -43.106  59.104 -55.007  1.00  0.00     0.037 NA
HETATM    6  C   UNL     1     -42.184  59.763 -54.306  1.00  0.00     0.753 A 
HETATM    7  N   UNL     1     -41.155  59.010 -53.822  1.00  0.00     0.131 NA
HETATM    8  C   UNL     1     -43.252  56.701 -55.561  1.00  0.00     0.164 C 
HETATM    9  C   UNL     1     -42.753  55.403 -54.904  1.00  0.00     0.063 C 
HETATM   10  H   UNL     1     -39.877  56.674 -53.641  1.00  0.00     0.178 HD
ENDROOT
BRANCH   1  11
HETATM   11  C   UNL     1     -40.776  54.180 -53.969  1.00  0.00    -0.035 A 
HETATM   12  C   UNL     1     -40.328  53.038 -54.649  1.00  0.00     0.012 A 
HETATM   13  C   UNL     1     -39.873  51.920 -53.944  1.00  0.00     0.037 A 
HETATM   14  C   UNL     1     -39.832  51.927 -52.550  1.00  0.00     0.068 A 
HETATM   15  C   UNL     1     -40.278  53.054 -51.861  1.00  0.00     0.037 A 
HETATM   16  C   UNL     1     -40.745  54.171 -52.566  1.00  0.00     0.012 A 
BRANCH  14  17
HETATM   17  O   UNL     1     -39.347  50.781 -51.985  1.00  0.00    -0.356 OA
HETATM   18  C   UNL     1     -39.882  50.418 -50.718  1.00  0.00     0.210 C 
ENDBRANCH  14  17
ENDBRANCH   1  11
BRANCH   8  19
HETATM   19  C   UNL     1     -43.068  56.676 -57.077  1.00  0.00    -0.031 A 
HETATM   20  C   UNL     1     -42.703  57.811 -57.825  1.00  0.00     0.028 A 
HETATM   21  C   UNL     1     -42.528  57.720 -59.206  1.00  0.00     0.011 A 
HETATM   22 BR   UNL     1     -42.041  59.261 -60.189  1.00  0.00    -0.051 Br
HETATM   23  C   UNL     1     -42.704  56.509 -59.868  1.00  0.00     0.019 A 
HETATM   24  C   UNL     1     -43.059  55.375 -59.141  1.00  0.00     0.002 A 
HETATM   25  C   UNL     1     -43.238  55.457 -57.758  1.00  0.00     0.009 A 
ENDBRANCH   8  19
BRANCH   6  26
HETATM   26  N   UNL     1     -42.177  61.073 -54.083  1.00  0.00    -0.229 N 
HETATM   27  H   UNL     1     -42.936  61.447 -53.531  1.00  0.00     0.174 HD
HETATM   28  H   UNL     1     -41.869  61.662 -54.844  1.00  0.00     0.174 HD
ENDBRANCH   6  26
TORSDOF 4
ENDMDL
MODEL 3
REMARK VINA RESULT:      -8.1      1.880      2.324
REMARK  4 active torsions:
REMARK  status: ('A' for Active; 'I' for Inactive)
REMARK    1  A    between atoms: O_2  and  C_3 
REMARK    2  A    between atoms: C_6  and  C_7 
REMARK    3  A    between atoms: C_12  and  N_13 
REMARK    4  A    between atoms: C_15  and  C_16 
ROOT
HETATM    1  C   UNL     1     -41.383  55.053 -53.485  1.00  0.00     0.135 C 
HETATM    2  N   UNL     1     -41.406  55.831 -52.251  1.00  0.00    -0.214 N 
HETATM    3  C   UNL     1     -42.245  56.878 -52.126  1.00  0.00     0.736 A 
HETATM    4  N   UNL     1     -43.253  57.094 -53.024  1.00  0.00    -0.074 N 
HETATM    5  N   UNL     1     -43.992  58.165 -52.693  1.00  0.00     0.037 NA
HETATM    6  C   UNL     1     -43.370  58.556 -51.582  1.00  0.00     0.753 A 
HETATM    7  N   UNL     1     -42.283  57.816 -51.217  1.00  0.00     0.131 NA
HETATM    8  C   UNL     1     -43.489  56.279 -54.207  1.00  0.00     0.164 C 
HETATM    9  C   UNL     1     -42.812  54.907 -54.044  1.00  0.00     0.063 C 
HETATM   10  H   UNL     1     -40.544  55.853 -51.711  1.00  0.00     0.178 HD
ENDROOT
BRANCH   1  11
HETATM   11  C   UNL     1     -40.778  53.680 -53.247  1.00  0.00    -0.035 A 
HETATM   12  C   UNL     1     -40.369  53.258 -51.973  1.00  0.00     0.012 A 
HETATM   13  C   UNL     1     -39.864  51.970 -51.776  1.00  0.00     0.037 A 
HETATM   14  C   UNL     1     -39.778  51.070 -52.838  1.00  0.00     0.068 A 
HETATM   15  C   UNL     1     -40.176  51.478 -54.110  1.00  0.00     0.037 A 
HETATM   16  C   UNL     1     -40.673  52.772 -54.312  1.00  0.00     0.012 A 
BRANCH  14  17
HETATM   17  O   UNL     1     -39.287  49.838 -52.507  1.00  0.00    -0.356 OA
HETATM   18  C   UNL     1     -39.428  49.438 -51.150  1.00  0.00     0.210 C 
ENDBRANCH  14  17
ENDBRANCH   1  11
BRANCH   8  19
HETATM   19  C   UNL     1     -43.068  56.968 -55.502  1.00  0.00    -0.031 A 
HETATM   20  C   UNL     1     -43.131  56.342 -56.761  1.00  0.00     0.028 A 
HETATM   21  C   UNL     1     -42.753  57.033 -57.914  1.00  0.00     0.011 A 
HETATM   22 BR   UNL     1     -42.843  56.168 -59.593  1.00  0.00    -0.051 Br
HETATM   23  C   UNL     1     -42.315  58.352 -57.841  1.00  0.00     0.019 A 
HETATM   24  C   UNL     1     -42.253  58.988 -56.604  1.00  0.00     0.002 A 
HETATM   25  C   UNL     1     -42.628  58.304 -55.445  1.00  0.00     0.009 A 
ENDBRANCH   8  19
BRANCH   6  26
HETATM   26  N   UNL     1     -43.701  59.610 -50.843  1.00  0.00    -0.229 N 
HETATM   27  H   UNL     1     -44.002  60.438 -51.337  1.00  0.00     0.174 HD
HETATM   28  H   UNL     1     -43.142  59.781 -50.019  1.00  0.00     0.174 HD
ENDBRANCH   6  26
TORSDOF 4
ENDMDL
MODEL 4
REMARK VINA RESULT:      -8.0      1.487      1.550
REMARK  4 active torsions:
REMARK  status: ('A' for Active; 'I' for Inactive)
REMARK    1  A    between atoms: O_2  and  C_3 
REMARK    2  A    between atoms: C_6  and  C_7 
REMARK    3  A    between atoms: C_12  and  N_13 
REMARK    4  A    between atoms: C_15  and  C_16 
ROOT
HETATM    1  C   UNL     1     -41.532  55.057 -53.915  1.00  0.00     0.135 C 
HETATM    2  N   UNL     1     -41.685  56.023 -52.833  1.00  0.00    -0.214 N 
HETATM    3  C   UNL     1     -42.607  57.001 -52.924  1.00  0.00     0.736 A 
HETATM    4  N   UNL     1     -43.576  56.980 -53.889  1.00  0.00    -0.074 N 
HETATM    5  N   UNL     1     -44.412  58.025 -53.777  1.00  0.00     0.037 NA
HETATM    6  C   UNL     1     -43.886  58.645 -52.722  1.00  0.00     0.753 A 
HETATM    7  N   UNL     1     -42.769  58.071 -52.189  1.00  0.00     0.131 NA
HETATM    8  C   UNL     1     -43.681  55.963 -54.926  1.00  0.00     0.164 C 
HETATM    9  C   UNL     1     -42.912  54.700 -54.503  1.00  0.00     0.063 C 
HETATM   10  H   UNL     1     -40.860  56.207 -52.267  1.00  0.00     0.178 HD
ENDROOT
BRANCH   1  11
HETATM   11  C   UNL     1     -40.839  53.798 -53.421  1.00  0.00    -0.035 A 
HETATM   12  C   UNL     1     -40.588  53.573 -52.059  1.00  0.00     0.012 A 
HETATM   13  C   UNL     1     -39.995  52.383 -51.631  1.00  0.00     0.037 A 
HETATM   14  C   UNL     1     -39.663  51.384 -52.546  1.00  0.00     0.068 A 
HETATM   15  C   UNL     1     -39.903  51.596 -53.903  1.00  0.00     0.037 A 
HETATM   16  C   UNL     1     -40.488  52.794 -54.336  1.00  0.00     0.012 A 
BRANCH  14  17
HETATM   17  O   UNL     1     -39.110  50.262 -51.995  1.00  0.00    -0.356 OA
HETATM   18  C   UNL     1     -39.699  49.785 -50.792  1.00  0.00     0.210 C 
ENDBRANCH  14  17
ENDBRANCH   1  11
BRANCH   8  19
HETATM   19  C   UNL     1     -43.240  56.462 -56.300  1.00  0.00    -0.031 A 
HETATM   20  C   UNL     1     -42.770  57.769 -56.528  1.00  0.00     0.028 A 
HETATM   21  C   UNL     1     -42.359  58.160 -57.804  1.00  0.00     0.011 A 
HETATM   22 BR   UNL     1     -41.735  59.923 -58.085  1.00  0.00    -0.051 Br
HETATM   23  C   UNL     1     -42.401  57.266 -58.869  1.00  0.00     0.019 A 
HETATM   24  C   UNL     1     -42.857  55.967 -58.659  1.00  0.00     0.002 A 
HETATM   25  C   UNL     1     -43.271  55.568 -57.386  1.00  0.00     0.009 A 
ENDBRANCH   8  19
BRANCH   6  26
HETATM   26  N   UNL     1     -44.339  59.775 -52.188  1.00  0.00    -0.229 N 
HETATM   27  H   UNL     1     -44.374  60.584 -52.792  1.00  0.00     0.174 HD
HETATM   28  H   UNL     1     -44.073  59.964 -51.232  1.00  0.00     0.174 HD
ENDBRANCH   6  26
TORSDOF 4
ENDMDL
MODEL 5
REMARK VINA RESULT:      -8.0      3.237      4.890
REMARK  4 active torsions:
REMARK  status: ('A' for Active; 'I' for Inactive)
REMARK    1  A    between atoms: O_2  and  C_3 
REMARK    2  A    between atoms: C_6  and  C_7 
REMARK    3  A    between atoms: C_12  and  N_13 
REMARK    4  A    between atoms: C_15  and  C_16 
ROOT
HETATM    1  C   UNL     1     -41.729  55.538 -52.994  1.00  0.00     0.135 C 
HETATM    2  N   UNL     1     -43.028  55.474 -53.656  1.00  0.00    -0.214 N 
HETATM    3  C   UNL     1     -43.588  56.593 -54.157  1.00  0.00     0.736 A 
HETATM    4  N   UNL     1     -42.873  57.751 -54.285  1.00  0.00    -0.074 N 
HETATM    5  N   UNL     1     -43.607  58.729 -54.840  1.00  0.00     0.037 NA
HETATM    6  C   UNL     1     -44.764  58.094 -55.018  1.00  0.00     0.753 A 
HETATM    7  N   UNL     1     -44.804  56.799 -54.590  1.00  0.00     0.131 NA
HETATM    8  C   UNL     1     -41.492  57.917 -53.856  1.00  0.00     0.164 C 
HETATM    9  C   UNL     1     -40.814  56.542 -53.723  1.00  0.00     0.063 C 
HETATM   10  H   UNL     1     -43.653  54.728 -53.360  1.00  0.00     0.178 HD
ENDROOT
BRANCH   1  11
HETATM   11  C   UNL     1     -41.072  54.168 -52.963  1.00  0.00    -0.035 A 
HETATM   12  C   UNL     1     -40.586  53.603 -51.775  1.00  0.00     0.012 A 
HETATM   13  C   UNL     1     -40.032  52.320 -51.769  1.00  0.00     0.037 A 
HETATM   14  C   UNL     1     -39.975  51.565 -52.941  1.00  0.00     0.068 A 
HETATM   15  C   UNL     1     -40.451  52.116 -54.129  1.00  0.00     0.037 A 
HETATM   16  C   UNL     1     -40.996  53.407 -54.139  1.00  0.00     0.012 A 
BRANCH  14  17
HETATM   17  O   UNL     1     -39.431  50.320 -52.794  1.00  0.00    -0.356 OA
HETATM   18  C   UNL     1     -39.457  49.762 -51.487  1.00  0.00     0.210 C 
ENDBRANCH  14  17
ENDBRANCH   1  11
BRANCH   8  19
HETATM   19  C   UNL     1     -41.357  58.741 -52.578  1.00  0.00    -0.031 A 
HETATM   20  C   UNL     1     -42.432  59.440 -51.998  1.00  0.00     0.028 A 
HETATM   21  C   UNL     1     -42.252  60.159 -50.815  1.00  0.00     0.011 A 
HETATM   22 BR   UNL     1     -43.711  61.093 -50.058  1.00  0.00    -0.051 Br
HETATM   23  C   UNL     1     -41.011  60.193 -50.185  1.00  0.00     0.019 A 
HETATM   24  C   UNL     1     -39.939  59.502 -50.743  1.00  0.00     0.002 A 
HETATM   25  C   UNL     1     -40.110  58.781 -51.927  1.00  0.00     0.009 A 
ENDBRANCH   8  19
BRANCH   6  26
HETATM   26  N   UNL     1     -45.865  58.629 -55.536  1.00  0.00    -0.229 N 
HETATM   27  H   UNL     1     -46.209  59.475 -55.105  1.00  0.00     0.174 HD
HETATM   28  H   UNL     1     -46.579  57.985 -55.849  1.00  0.00     0.174 HD
ENDBRANCH   6  26
TORSDOF 4
ENDMDL
MODEL 6
REMARK VINA RESULT:      -7.8      2.744      4.438
REMARK  4 active torsions:
REMARK  status: ('A' for Active; 'I' for Inactive)
REMARK    1  A    between atoms: O_2  and  C_3 
REMARK    2  A    between atoms: C_6  and  C_7 
REMARK    3  A    between atoms: C_12  and  N_13 
REMARK    4  A    between atoms: C_15  and  C_16 
ROOT
HETATM    1  C   UNL     1     -41.886  54.929 -54.038  1.00  0.00     0.135 C 
HETATM    2  N   UNL     1     -42.282  54.624 -55.409  1.00  0.00    -0.214 N 
HETATM    3  C   UNL     1     -42.545  55.621 -56.276  1.00  0.00     0.736 A 
HETATM    4  N   UNL     1     -42.219  56.918 -55.989  1.00  0.00    -0.074 N 
HETATM    5  N   UNL     1     -42.532  57.744 -57.001  1.00  0.00     0.037 NA
HETATM    6  C   UNL     1     -43.051  56.879 -57.870  1.00  0.00     0.753 A 
HETATM    7  N   UNL     1     -43.104  55.580 -57.456  1.00  0.00     0.131 NA
HETATM    8  C   UNL     1     -41.625  57.359 -54.735  1.00  0.00     0.164 C 
HETATM    9  C   UNL     1     -40.968  56.168 -54.017  1.00  0.00     0.063 C 
HETATM   10  H   UNL     1     -42.754  53.735 -55.558  1.00  0.00     0.178 HD
ENDROOT
BRANCH   1  11
HETATM   11  C   UNL     1     -41.173  53.746 -53.406  1.00  0.00    -0.035 A 
HETATM   12  C   UNL     1     -40.656  52.692 -54.175  1.00  0.00     0.012 A 
HETATM   13  C   UNL     1     -39.960  51.643 -53.569  1.00  0.00     0.037 A 
HETATM   14  C   UNL     1     -39.742  51.634 -52.192  1.00  0.00     0.068 A 
HETATM   15  C   UNL     1     -40.254  52.673 -51.416  1.00  0.00     0.037 A 
HETATM   16  C   UNL     1     -40.962  53.720 -52.019  1.00  0.00     0.012 A 
BRANCH  14  17
HETATM   17  O   UNL     1     -39.029  50.563 -51.730  1.00  0.00    -0.356 OA
HETATM   18  C   UNL     1     -39.645  49.774 -50.720  1.00  0.00     0.210 C 
ENDBRANCH  14  17
ENDBRANCH   1  11
BRANCH   8  19
HETATM   19  C   UNL     1     -42.612  58.093 -53.831  1.00  0.00    -0.031 A 
HETATM   20  C   UNL     1     -42.210  58.933 -52.777  1.00  0.00     0.028 A 
HETATM   21  C   UNL     1     -43.160  59.595 -51.998  1.00  0.00     0.011 A 
HETATM   22 BR   UNL     1     -42.593  60.717 -50.584  1.00  0.00    -0.051 Br
HETATM   23  C   UNL     1     -44.520  59.442 -52.252  1.00  0.00     0.019 A 
HETATM   24  C   UNL     1     -44.935  58.618 -53.295  1.00  0.00     0.002 A 
HETATM   25  C   UNL     1     -43.990  57.951 -54.079  1.00  0.00     0.009 A 
ENDBRANCH   8  19
BRANCH   6  26
HETATM   26  N   UNL     1     -43.542  57.188 -59.066  1.00  0.00    -0.229 N 
HETATM   27  H   UNL     1     -42.917  57.647 -59.712  1.00  0.00     0.174 HD
HETATM   28  H   UNL     1     -44.500  57.509 -59.094  1.00  0.00     0.174 HD
ENDBRANCH   6  26
TORSDOF 4
ENDMDL
MODEL 7
REMARK VINA RESULT:      -7.7      2.213      2.761
REMARK  4 active torsions:
REMARK  status: ('A' for Active; 'I' for Inactive)
REMARK    1  A    between atoms: O_2  and  C_3 
REMARK    2  A    between atoms: C_6  and  C_7 
REMARK    3  A    between atoms: C_12  and  N_13 
REMARK    4  A    between atoms: C_15  and  C_16 
ROOT
HETATM    1  C   UNL     1     -41.688  55.466 -53.215  1.00  0.00     0.135 C 
HETATM    2  N   UNL     1     -41.143  56.351 -52.191  1.00  0.00    -0.214 N 
HETATM    3  C   UNL     1     -41.838  57.434 -51.792  1.00  0.00     0.736 A 
HETATM    4  N   UNL     1     -43.150  57.606 -52.138  1.00  0.00    -0.074 N 
HETATM    5  N   UNL     1     -43.661  58.729 -51.607  1.00  0.00     0.037 NA
HETATM    6  C   UNL     1     -42.598  59.194 -50.953  1.00  0.00     0.753 A 
HETATM    7  N   UNL     1     -41.459  58.451 -51.063  1.00  0.00     0.131 NA
HETATM    8  C   UNL     1     -43.900  56.698 -52.994  1.00  0.00     0.164 C 
HETATM    9  C   UNL     1     -43.213  55.323 -53.032  1.00  0.00     0.063 C 
HETATM   10  H   UNL     1     -40.130  56.390 -52.116  1.00  0.00     0.178 HD
ENDROOT
BRANCH   1  11
HETATM   11  C   UNL     1     -41.029  54.099 -53.154  1.00  0.00    -0.035 A 
HETATM   12  C   UNL     1     -40.569  53.548 -51.948  1.00  0.00     0.012 A 
HETATM   13  C   UNL     1     -40.013  52.267 -51.916  1.00  0.00     0.037 A 
HETATM   14  C   UNL     1     -39.927  51.499 -53.077  1.00  0.00     0.068 A 
HETATM   15  C   UNL     1     -40.375  52.036 -54.283  1.00  0.00     0.037 A 
HETATM   16  C   UNL     1     -40.923  53.325 -54.320  1.00  0.00     0.012 A 
BRANCH  14  17
HETATM   17  O   UNL     1     -39.383  50.257 -52.905  1.00  0.00    -0.356 OA
HETATM   18  C   UNL     1     -39.513  49.677 -51.613  1.00  0.00     0.210 C 
ENDBRANCH  14  17
ENDBRANCH   1  11
BRANCH   8  19
HETATM   19  C   UNL     1     -44.135  57.254 -54.396  1.00  0.00    -0.031 A 
HETATM   20  C   UNL     1     -43.553  56.698 -55.550  1.00  0.00     0.028 A 
HETATM   21  C   UNL     1     -43.824  57.237 -56.809  1.00  0.00     0.011 A 
HETATM   22 BR   UNL     1     -43.026  56.474 -58.344  1.00  0.00    -0.051 Br
HETATM   23  C   UNL     1     -44.677  58.329 -56.946  1.00  0.00     0.019 A 
HETATM   24  C   UNL     1     -45.266  58.887 -55.815  1.00  0.00     0.002 A 
HETATM   25  C   UNL     1     -45.000  58.354 -54.551  1.00  0.00     0.009 A 
ENDBRANCH   8  19
BRANCH   6  26
HETATM   26  N   UNL     1     -42.559  60.321 -50.249  1.00  0.00    -0.229 N 
HETATM   27  H   UNL     1     -41.812  60.966 -50.461  1.00  0.00     0.174 HD
HETATM   28  H   UNL     1     -42.804  60.254 -49.270  1.00  0.00     0.174 HD
ENDBRANCH   6  26
TORSDOF 4
ENDMDL
MODEL 8
REMARK VINA RESULT:      -7.6      4.163      7.170
REMARK  4 active torsions:
REMARK  status: ('A' for Active; 'I' for Inactive)
REMARK    1  A    between atoms: O_2  and  C_3 
REMARK    2  A    between atoms: C_6  and  C_7 
REMARK    3  A    between atoms: C_12  and  N_13 
REMARK    4  A    between atoms: C_15  and  C_16 
ROOT
HETATM    1  C   UNL     1     -42.419  54.980 -54.448  1.00  0.00     0.135 C 
HETATM    2  N   UNL     1     -42.924  55.582 -53.219  1.00  0.00    -0.214 N 
HETATM    3  C   UNL     1     -42.255  55.420 -52.061  1.00  0.00     0.736 A 
HETATM    4  N   UNL     1     -40.985  54.913 -52.037  1.00  0.00    -0.074 N 
HETATM    5  N   UNL     1     -40.490  54.872 -50.789  1.00  0.00     0.037 NA
HETATM    6  C   UNL     1     -41.520  55.365 -50.103  1.00  0.00     0.753 A 
HETATM    7  N   UNL     1     -42.625  55.684 -50.835  1.00  0.00     0.131 NA
HETATM    8  C   UNL     1     -40.260  54.455 -53.213  1.00  0.00     0.164 C 
HETATM    9  C   UNL     1     -40.879  55.064 -54.483  1.00  0.00     0.063 C 
HETATM   10  H   UNL     1     -43.930  55.727 -53.164  1.00  0.00     0.178 HD
ENDROOT
BRANCH   1  11
HETATM   11  C   UNL     1     -43.002  55.673 -55.668  1.00  0.00    -0.035 A 
HETATM   12  C   UNL     1     -43.686  56.894 -55.574  1.00  0.00     0.012 A 
HETATM   13  C   UNL     1     -44.167  57.533 -56.720  1.00  0.00     0.037 A 
HETATM   14  C   UNL     1     -43.954  56.981 -57.983  1.00  0.00     0.068 A 
HETATM   15  C   UNL     1     -43.280  55.766 -58.091  1.00  0.00     0.037 A 
HETATM   16  C   UNL     1     -42.807  55.119 -56.942  1.00  0.00     0.012 A 
BRANCH  14  17
HETATM   17  O   UNL     1     -44.456  57.716 -59.021  1.00  0.00    -0.356 OA
HETATM   18  C   UNL     1     -44.452  57.097 -60.301  1.00  0.00     0.210 C 
ENDBRANCH  14  17
ENDBRANCH   1  11
BRANCH   8  19
HETATM   19  C   UNL     1     -40.165  52.934 -53.302  1.00  0.00    -0.031 A 
HETATM   20  C   UNL     1     -39.896  52.115 -52.190  1.00  0.00     0.028 A 
HETATM   21  C   UNL     1     -39.844  50.727 -52.330  1.00  0.00     0.011 A 
HETATM   22 BR   UNL     1     -39.476  49.648 -50.821  1.00  0.00    -0.051 Br
HETATM   23  C   UNL     1     -40.063  50.128 -53.568  1.00  0.00     0.019 A 
HETATM   24  C   UNL     1     -40.337  50.924 -54.677  1.00  0.00     0.002 A 
HETATM   25  C   UNL     1     -40.390  52.314 -54.546  1.00  0.00     0.009 A 
ENDBRANCH   8  19
BRANCH   6  26
HETATM   26  N   UNL     1     -41.559  55.528 -48.784  1.00  0.00    -0.229 N 
HETATM   27  H   UNL     1     -41.876  56.425 -48.444  1.00  0.00     0.174 HD
HETATM   28  H   UNL     1     -40.811  55.107 -48.251  1.00  0.00     0.174 HD
ENDBRANCH   6  26
TORSDOF 4
ENDMDL
MODEL 9
REMARK VINA RESULT:      -7.6      4.764      7.643
REMARK  4 active torsions:
REMARK  status: ('A' for Active; 'I' for Inactive)
REMARK    1  A    between atoms: O_2  and  C_3 
REMARK    2  A    between atoms: C_6  and  C_7 
REMARK    3  A    between atoms: C_12  and  N_13 
REMARK    4  A    between atoms: C_15  and  C_16 
ROOT
HETATM    1  C   UNL     1     -42.525  55.093 -52.400  1.00  0.00     0.135 C 
HETATM    2  N   UNL     1     -42.692  55.256 -50.960  1.00  0.00    -0.214 N 
HETATM    3  C   UNL     1     -41.747  54.803 -50.113  1.00  0.00     0.736 A 
HETATM    4  N   UNL     1     -40.518  54.409 -50.563  1.00  0.00    -0.074 N 
HETATM    5  N   UNL     1     -39.717  54.030 -49.553  1.00  0.00     0.037 NA
HETATM    6  C   UNL     1     -40.532  54.214 -48.515  1.00  0.00     0.753 A 
HETATM    7  N   UNL     1     -41.787  54.657 -48.815  1.00  0.00     0.131 NA
HETATM    8  C   UNL     1     -40.124  54.382 -51.964  1.00  0.00     0.164 C 
HETATM    9  C   UNL     1     -41.047  55.298 -52.787  1.00  0.00     0.063 C 
HETATM   10  H   UNL     1     -43.648  55.303 -50.616  1.00  0.00     0.178 HD
ENDROOT
BRANCH   1  11
HETATM   11  C   UNL     1     -43.399  56.076 -53.160  1.00  0.00    -0.035 A 
HETATM   12  C   UNL     1     -44.061  57.133 -52.518  1.00  0.00     0.012 A 
HETATM   13  C   UNL     1     -44.817  58.051 -53.251  1.00  0.00     0.037 A 
HETATM   14  C   UNL     1     -44.909  57.951 -54.639  1.00  0.00     0.068 A 
HETATM   15  C   UNL     1     -44.260  56.902 -55.289  1.00  0.00     0.037 A 
HETATM   16  C   UNL     1     -43.510  55.974 -54.555  1.00  0.00     0.012 A 
BRANCH  14  17
HETATM   17  O   UNL     1     -45.660  58.923 -55.236  1.00  0.00    -0.356 OA
HETATM   18  C   UNL     1     -45.603  58.993 -56.656  1.00  0.00     0.210 C 
ENDBRANCH  14  17
ENDBRANCH   1  11
BRANCH   8  19
HETATM   19  C   UNL     1     -40.065  52.970 -52.542  1.00  0.00    -0.031 A 
HETATM   20  C   UNL     1     -39.793  51.831 -51.762  1.00  0.00     0.028 A 
HETATM   21  C   UNL     1     -39.775  50.563 -52.344  1.00  0.00     0.011 A 
HETATM   22 BR   UNL     1     -39.402  49.049 -51.274  1.00  0.00    -0.051 Br
HETATM   23  C   UNL     1     -40.031  50.400 -53.702  1.00  0.00     0.019 A 
HETATM   24  C   UNL     1     -40.308  51.516 -54.487  1.00  0.00     0.002 A 
HETATM   25  C   UNL     1     -40.327  52.789 -53.913  1.00  0.00     0.009 A 
ENDBRANCH   8  19
BRANCH   6  26
HETATM   26  N   UNL     1     -40.228  53.968 -47.244  1.00  0.00    -0.229 N 
HETATM   27  H   UNL     1     -39.511  54.543 -46.827  1.00  0.00     0.174 HD
HETATM   28  H   UNL     1     -40.223  52.999 -46.958  1.00  0.00     0.174 HD
ENDBRANCH   6  26
TORSDOF 4
ENDMDL
MODEL 10
REMARK VINA RESULT:      -7.5      4.246      7.179
REMARK  4 active torsions:
REMARK  status: ('A' for Active; 'I' for Inactive)
REMARK    1  A    between atoms: O_2  and  C_3 
REMARK    2  A    between atoms: C_6  and  C_7 
REMARK    3  A    between atoms: C_12  and  N_13 
REMARK    4  A    between atoms: C_15  and  C_16 
ROOT
HETATM    1  C   UNL     1     -42.543  57.489 -52.683  1.00  0.00     0.135 C 
HETATM    2  N   UNL     1     -42.507  57.946 -54.068  1.00  0.00    -0.214 N 
HETATM    3  C   UNL     1     -42.586  57.056 -55.077  1.00  0.00     0.736 A 
HETATM    4  N   UNL     1     -42.943  55.755 -54.852  1.00  0.00    -0.074 N 
HETATM    5  N   UNL     1     -42.997  55.051 -55.995  1.00  0.00     0.037 NA
HETATM    6  C   UNL     1     -42.654  55.989 -56.875  1.00  0.00     0.753 A 
HETATM    7  N   UNL     1     -42.367  57.218 -56.355  1.00  0.00     0.131 NA
HETATM    8  C   UNL     1     -43.212  55.191 -53.538  1.00  0.00     0.164 C 
HETATM    9  C   UNL     1     -43.533  56.316 -52.539  1.00  0.00     0.063 C 
HETATM   10  H   UNL     1     -42.012  58.817 -54.247  1.00  0.00     0.178 HD
ENDROOT
BRANCH   1  11
HETATM   11  C   UNL     1     -42.943  58.621 -51.752  1.00  0.00    -0.035 A 
HETATM   12  C   UNL     1     -41.999  59.506 -51.208  1.00  0.00     0.012 A 
HETATM   13  C   UNL     1     -42.403  60.568 -50.395  1.00  0.00     0.037 A 
HETATM   14  C   UNL     1     -43.755  60.785 -50.128  1.00  0.00     0.068 A 
HETATM   15  C   UNL     1     -44.702  59.911 -50.658  1.00  0.00     0.037 A 
HETATM   16  C   UNL     1     -44.299  58.839 -51.464  1.00  0.00     0.012 A 
BRANCH  14  17
HETATM   17  O   UNL     1     -44.016  61.870 -49.338  1.00  0.00    -0.356 OA
HETATM   18  C   UNL     1     -44.737  61.626 -48.137  1.00  0.00     0.210 C 
ENDBRANCH  14  17
ENDBRANCH   1  11
BRANCH   8  19
HETATM   19  C   UNL     1     -42.090  54.288 -53.033  1.00  0.00    -0.031 A 
HETATM   20  C   UNL     1     -41.605  53.186 -53.760  1.00  0.00     0.028 A 
HETATM   21  C   UNL     1     -40.561  52.409 -53.256  1.00  0.00     0.011 A 
HETATM   22 BR   UNL     1     -39.930  50.931 -54.251  1.00  0.00    -0.051 Br
HETATM   23  C   UNL     1     -39.977  52.713 -52.029  1.00  0.00     0.019 A 
HETATM   24  C   UNL     1     -40.441  53.805 -51.300  1.00  0.00     0.002 A 
HETATM   25  C   UNL     1     -41.487  54.586 -51.797  1.00  0.00     0.009 A 
ENDBRANCH   8  19
BRANCH   6  26
HETATM   26  N   UNL     1     -42.537  55.809 -58.188  1.00  0.00    -0.229 N 
HETATM   27  H   UNL     1     -42.712  56.611 -58.776  1.00  0.00     0.174 HD
HETATM   28  H   UNL     1     -42.865  54.927 -58.556  1.00  0.00     0.174 HD
ENDBRANCH   6  26
TORSDOF 4
ENDMDL
