MODEL 1
REMARK VINA RESULT:      -8.5      0.000      0.000
REMARK  4 active torsions:
REMARK  status: ('A' for Active; 'I' for Inactive)
REMARK    1  A    between atoms: C_2  and  C_3 
REMARK    2  A    between atoms: C_4  and  C_5 
REMARK       I    between atoms: C_5  and  N_6 
REMARK    3  A    between atoms: N_6  and  C_7 
REMARK    4  A    between atoms: C_14  and  C_15 
REMARK       I    between atoms: C_15  and  N_16 
ROOT
HETATM    1  C   UNL     1     -43.148  56.386 -58.036  1.00  0.00     0.035 A 
HETATM    2  C   UNL     1     -44.132  57.325 -57.697  1.00  0.00     0.046 A 
HETATM    3  C   UNL     1     -45.034  57.777 -58.687  1.00  0.00     0.030 A 
HETATM    4  C   UNL     1     -44.923  57.272 -59.976  1.00  0.00     0.063 A 
HETATM    5  N   UNL     1     -45.909  57.890 -60.693  1.00  0.00    -0.277 N 
HETATM    6  H   UNL     1     -46.123  57.764 -61.677  1.00  0.00     0.189 HD
HETATM    7  N   UNL     1     -46.657  58.751 -59.987  1.00  0.00    -0.168 NA
HETATM    8  C   UNL     1     -46.130  58.692 -58.742  1.00  0.00     0.156 A 
HETATM    9  C   UNL     1     -43.962  56.331 -60.347  1.00  0.00     0.034 A 
HETATM   10  C   UNL     1     -43.080  55.899 -59.348  1.00  0.00     0.032 A 
ENDROOT
BRANCH   1  11
HETATM   11  N   UNL     1     -42.190  55.886 -57.127  1.00  0.00    -0.327 N 
HETATM   12  C   UNL     1     -42.345  54.866 -56.212  1.00  0.00     0.227 C 
HETATM   13  O   UNL     1     -43.347  54.191 -56.028  1.00  0.00    -0.273 OA
HETATM   14  H   UNL     1     -41.303  56.363 -57.126  1.00  0.00     0.169 HD
BRANCH  12  15
HETATM   15  C   UNL     1     -41.163  54.587 -55.340  1.00  0.00     0.087 A 
HETATM   16  C   UNL     1     -41.378  54.447 -53.839  1.00  0.00     0.032 A 
HETATM   17  C   UNL     1     -40.507  55.553 -54.390  1.00  0.00     0.025 A 
BRANCH  16  18
HETATM   18  C   UNL     1     -40.759  53.289 -53.096  1.00  0.00    -0.053 A 
HETATM   19  C   UNL     1     -40.646  53.300 -51.695  1.00  0.00     0.009 A 
HETATM   20  C   UNL     1     -40.100  52.217 -50.999  1.00  0.00     0.024 A 
HETATM   21  C   UNL     1     -39.661  51.097 -51.699  1.00  0.00     0.034 A 
HETATM   22  C   UNL     1     -39.765  51.054 -53.085  1.00  0.00     0.024 A 
HETATM   23 CL   UNL     1     -38.994  49.762 -50.846  1.00  0.00    -0.084 Cl
HETATM   24  C   UNL     1     -40.314  52.140 -53.774  1.00  0.00     0.009 A 
ENDBRANCH  16  18
ENDBRANCH  12  15
ENDBRANCH   1  11
BRANCH   8  25
HETATM   25  C   UNL     1     -46.679  59.502 -57.645  1.00  0.00     0.270 C 
HETATM   26  N   UNL     1     -48.041  59.436 -57.532  1.00  0.00    -0.365 N 
HETATM   27  H   UNL     1     -48.555  58.856 -58.185  1.00  0.00     0.159 HD
HETATM   28  H   UNL     1     -48.508  59.957 -56.807  1.00  0.00     0.159 HD
HETATM   29  O   UNL     1     -46.012  60.187 -56.878  1.00  0.00    -0.266 OA
ENDBRANCH   8  25
TORSDOF 4
ENDMDL
MODEL 2
REMARK VINA RESULT:      -8.3      4.690      9.607
REMARK  4 active torsions:
REMARK  status: ('A' for Active; 'I' for Inactive)
REMARK    1  A    between atoms: C_2  and  C_3 
REMARK    2  A    between atoms: C_4  and  C_5 
REMARK       I    between atoms: C_5  and  N_6 
REMARK    3  A    between atoms: N_6  and  C_7 
REMARK    4  A    between atoms: C_14  and  C_15 
REMARK       I    between atoms: C_15  and  N_16 
ROOT
HETATM    1  C   UNL     1     -41.030  54.487 -54.459  1.00  0.00     0.035 A 
HETATM    2  C   UNL     1     -40.609  53.154 -54.356  1.00  0.00     0.046 A 
HETATM    3  C   UNL     1     -40.304  52.615 -53.084  1.00  0.00     0.030 A 
HETATM    4  C   UNL     1     -40.435  53.427 -51.965  1.00  0.00     0.063 A 
HETATM    5  N   UNL     1     -40.070  52.644 -50.905  1.00  0.00    -0.277 N 
HETATM    6  H   UNL     1     -40.042  52.909 -49.927  1.00  0.00     0.189 HD
HETATM    7  N   UNL     1     -39.717  51.392 -51.233  1.00  0.00    -0.168 NA
HETATM    8  C   UNL     1     -39.858  51.357 -52.578  1.00  0.00     0.156 A 
HETATM    9  C   UNL     1     -40.858  54.755 -52.030  1.00  0.00     0.034 A 
HETATM   10  C   UNL     1     -41.154  55.264 -53.300  1.00  0.00     0.032 A 
ENDROOT
BRANCH   1  11
HETATM   11  N   UNL     1     -41.340  55.122 -55.681  1.00  0.00    -0.327 N 
HETATM   12  C   UNL     1     -42.529  55.079 -56.378  1.00  0.00     0.227 C 
HETATM   13  O   UNL     1     -43.548  54.487 -56.054  1.00  0.00    -0.273 OA
HETATM   14  H   UNL     1     -40.584  55.634 -56.108  1.00  0.00     0.169 HD
BRANCH  12  15
HETATM   15  C   UNL     1     -42.550  55.815 -57.680  1.00  0.00     0.087 A 
HETATM   16  C   UNL     1     -43.370  57.092 -57.786  1.00  0.00     0.032 A 
HETATM   17  C   UNL     1     -43.704  55.893 -58.643  1.00  0.00     0.025 A 
BRANCH  16  18
HETATM   18  C   UNL     1     -42.763  58.326 -58.406  1.00  0.00    -0.053 A 
HETATM   19  C   UNL     1     -42.859  58.568 -59.787  1.00  0.00     0.009 A 
HETATM   20  C   UNL     1     -42.324  59.725 -60.363  1.00  0.00     0.024 A 
HETATM   21  C   UNL     1     -41.686  60.665 -59.559  1.00  0.00     0.034 A 
HETATM   22  C   UNL     1     -41.580  60.457 -58.188  1.00  0.00     0.024 A 
HETATM   23 CL   UNL     1     -41.031  62.090 -60.264  1.00  0.00    -0.084 Cl
HETATM   24  C   UNL     1     -42.120  59.299 -57.620  1.00  0.00     0.009 A 
ENDBRANCH  16  18
ENDBRANCH  12  15
ENDBRANCH   1  11
BRANCH   8  25
HETATM   25  C   UNL     1     -39.566  50.135 -53.341  1.00  0.00     0.270 C 
HETATM   26  N   UNL     1     -39.399  49.020 -52.566  1.00  0.00    -0.365 N 
HETATM   27  H   UNL     1     -39.486  49.111 -51.560  1.00  0.00     0.159 HD
HETATM   28  H   UNL     1     -39.197  48.135 -53.001  1.00  0.00     0.159 HD
HETATM   29  O   UNL     1     -39.473  50.077 -54.562  1.00  0.00    -0.266 OA
ENDBRANCH   8  25
TORSDOF 4
ENDMDL
MODEL 3
REMARK VINA RESULT:      -8.3      2.504      3.003
REMARK  4 active torsions:
REMARK  status: ('A' for Active; 'I' for Inactive)
REMARK    1  A    between atoms: C_2  and  C_3 
REMARK    2  A    between atoms: C_4  and  C_5 
REMARK       I    between atoms: C_5  and  N_6 
REMARK    3  A    between atoms: N_6  and  C_7 
REMARK    4  A    between atoms: C_14  and  C_15 
REMARK       I    between atoms: C_15  and  N_16 
ROOT
HETATM    1  C   UNL     1     -42.850  56.040 -57.662  1.00  0.00     0.035 A 
HETATM    2  C   UNL     1     -42.538  57.405 -57.729  1.00  0.00     0.046 A 
HETATM    3  C   UNL     1     -42.951  58.160 -58.852  1.00  0.00     0.030 A 
HETATM    4  C   UNL     1     -43.661  57.524 -59.862  1.00  0.00     0.063 A 
HETATM    5  N   UNL     1     -43.909  58.491 -60.795  1.00  0.00    -0.277 N 
HETATM    6  H   UNL     1     -44.406  58.384 -61.673  1.00  0.00     0.189 HD
HETATM    7  N   UNL     1     -43.427  59.704 -60.482  1.00  0.00    -0.168 NA
HETATM    8  C   UNL     1     -42.833  59.516 -59.281  1.00  0.00     0.156 A 
HETATM    9  C   UNL     1     -43.994  56.169 -59.825  1.00  0.00     0.034 A 
HETATM   10  C   UNL     1     -43.575  55.445 -58.703  1.00  0.00     0.032 A 
ENDROOT
BRANCH   1  11
HETATM   11  N   UNL     1     -42.469  55.198 -56.595  1.00  0.00    -0.327 N 
HETATM   12  C   UNL     1     -42.942  55.208 -55.300  1.00  0.00     0.227 C 
HETATM   13  O   UNL     1     -43.797  55.947 -54.837  1.00  0.00    -0.273 OA
HETATM   14  H   UNL     1     -41.735  54.539 -56.803  1.00  0.00     0.169 HD
BRANCH  12  15
HETATM   15  C   UNL     1     -42.310  54.224 -54.367  1.00  0.00     0.087 A 
HETATM   16  C   UNL     1     -41.023  54.613 -53.655  1.00  0.00     0.032 A 
HETATM   17  C   UNL     1     -41.047  53.444 -54.614  1.00  0.00     0.025 A 
BRANCH  16  18
HETATM   18  C   UNL     1     -40.883  54.378 -52.171  1.00  0.00    -0.053 A 
HETATM   19  C   UNL     1     -40.367  53.169 -51.672  1.00  0.00     0.009 A 
HETATM   20  C   UNL     1     -40.209  52.957 -50.298  1.00  0.00     0.024 A 
HETATM   21  C   UNL     1     -40.561  53.960 -49.400  1.00  0.00     0.034 A 
HETATM   22  C   UNL     1     -41.068  55.169 -49.864  1.00  0.00     0.024 A 
HETATM   23 CL   UNL     1     -40.363  53.704 -47.711  1.00  0.00    -0.084 Cl
HETATM   24  C   UNL     1     -41.222  55.374 -51.239  1.00  0.00     0.009 A 
ENDBRANCH  16  18
ENDBRANCH  12  15
ENDBRANCH   1  11
BRANCH   8  25
HETATM   25  C   UNL     1     -42.173  60.626 -58.579  1.00  0.00     0.270 C 
HETATM   26  N   UNL     1     -42.821  61.826 -58.700  1.00  0.00    -0.365 N 
HETATM   27  H   UNL     1     -43.676  61.863 -59.242  1.00  0.00     0.159 HD
HETATM   28  H   UNL     1     -42.443  62.644 -58.250  1.00  0.00     0.159 HD
HETATM   29  O   UNL     1     -41.137  60.528 -57.932  1.00  0.00    -0.266 OA
ENDBRANCH   8  25
TORSDOF 4
ENDMDL
MODEL 4
REMARK VINA RESULT:      -8.3      2.032      2.610
REMARK  4 active torsions:
REMARK  status: ('A' for Active; 'I' for Inactive)
REMARK    1  A    between atoms: C_2  and  C_3 
REMARK    2  A    between atoms: C_4  and  C_5 
REMARK       I    between atoms: C_5  and  N_6 
REMARK    3  A    between atoms: N_6  and  C_7 
REMARK    4  A    between atoms: C_14  and  C_15 
REMARK       I    between atoms: C_15  and  N_16 
ROOT
HETATM    1  C   UNL     1     -42.550  57.470 -57.170  1.00  0.00     0.035 A 
HETATM    2  C   UNL     1     -43.532  56.900 -57.992  1.00  0.00     0.046 A 
HETATM    3  C   UNL     1     -44.151  57.689 -58.989  1.00  0.00     0.030 A 
HETATM    4  C   UNL     1     -43.765  59.016 -59.128  1.00  0.00     0.063 A 
HETATM    5  N   UNL     1     -44.530  59.510 -60.148  1.00  0.00    -0.277 N 
HETATM    6  H   UNL     1     -44.518  60.453 -60.522  1.00  0.00     0.189 HD
HETATM    7  N   UNL     1     -45.378  58.623 -60.689  1.00  0.00    -0.168 NA
HETATM    8  C   UNL     1     -45.155  57.490 -59.984  1.00  0.00     0.156 A 
HETATM    9  C   UNL     1     -42.787  59.614 -58.332  1.00  0.00     0.034 A 
HETATM   10  C   UNL     1     -42.189  58.812 -57.354  1.00  0.00     0.032 A 
ENDROOT
BRANCH   1  11
HETATM   11  N   UNL     1     -41.886  56.774 -56.137  1.00  0.00    -0.327 N 
HETATM   12  C   UNL     1     -42.120  56.852 -54.780  1.00  0.00     0.227 C 
HETATM   13  O   UNL     1     -42.962  57.536 -54.219  1.00  0.00    -0.273 OA
HETATM   14  H   UNL     1     -41.127  56.181 -56.431  1.00  0.00     0.169 HD
BRANCH  12  15
HETATM   15  C   UNL     1     -41.218  56.029 -53.914  1.00  0.00     0.087 A 
HETATM   16  C   UNL     1     -41.806  54.838 -53.171  1.00  0.00     0.032 A 
HETATM   17  C   UNL     1     -41.210  56.000 -52.410  1.00  0.00     0.025 A 
BRANCH  16  18
HETATM   18  C   UNL     1     -41.097  53.506 -53.206  1.00  0.00    -0.053 A 
HETATM   19  C   UNL     1     -40.340  53.057 -52.111  1.00  0.00     0.009 A 
HETATM   20  C   UNL     1     -39.705  51.810 -52.126  1.00  0.00     0.024 A 
HETATM   21  C   UNL     1     -39.824  50.989 -53.244  1.00  0.00     0.034 A 
HETATM   22  C   UNL     1     -40.572  51.404 -54.340  1.00  0.00     0.024 A 
HETATM   23 CL   UNL     1     -39.049  49.454 -53.264  1.00  0.00    -0.084 Cl
HETATM   24  C   UNL     1     -41.205  52.650 -54.316  1.00  0.00     0.009 A 
ENDBRANCH  16  18
ENDBRANCH  12  15
ENDBRANCH   1  11
BRANCH   8  25
HETATM   25  C   UNL     1     -45.898  56.256 -60.275  1.00  0.00     0.270 C 
HETATM   26  N   UNL     1     -47.085  56.149 -59.602  1.00  0.00    -0.365 N 
HETATM   27  H   UNL     1     -47.357  56.898 -58.976  1.00  0.00     0.159 HD
HETATM   28  H   UNL     1     -47.665  55.337 -59.739  1.00  0.00     0.159 HD
HETATM   29  O   UNL     1     -45.525  55.378 -61.045  1.00  0.00    -0.266 OA
ENDBRANCH   8  25
TORSDOF 4
ENDMDL
MODEL 5
REMARK VINA RESULT:      -8.2      4.405      9.486
REMARK  4 active torsions:
REMARK  status: ('A' for Active; 'I' for Inactive)
REMARK    1  A    between atoms: C_2  and  C_3 
REMARK    2  A    between atoms: C_4  and  C_5 
REMARK       I    between atoms: C_5  and  N_6 
REMARK    3  A    between atoms: N_6  and  C_7 
REMARK    4  A    between atoms: C_14  and  C_15 
REMARK       I    between atoms: C_15  and  N_16 
ROOT
HETATM    1  C   UNL     1     -41.332  54.570 -54.194  1.00  0.00     0.035 A 
HETATM    2  C   UNL     1     -40.982  53.228 -54.394  1.00  0.00     0.046 A 
HETATM    3  C   UNL     1     -40.422  52.487 -53.328  1.00  0.00     0.030 A 
HETATM    4  C   UNL     1     -40.234  53.113 -52.103  1.00  0.00     0.063 A 
HETATM    5  N   UNL     1     -39.681  52.163 -51.291  1.00  0.00    -0.277 N 
HETATM    6  H   UNL     1     -39.407  52.269 -50.320  1.00  0.00     0.189 HD
HETATM    7  N   UNL     1     -39.494  50.970 -51.876  1.00  0.00    -0.168 NA
HETATM    8  C   UNL     1     -39.949  51.153 -53.137  1.00  0.00     0.156 A 
HETATM    9  C   UNL     1     -40.577  54.445 -51.866  1.00  0.00     0.034 A 
HETATM   10  C   UNL     1     -41.131  55.157 -52.937  1.00  0.00     0.032 A 
ENDROOT
BRANCH   1  11
HETATM   11  N   UNL     1     -41.880  55.399 -55.197  1.00  0.00    -0.327 N 
HETATM   12  C   UNL     1     -43.151  55.929 -55.253  1.00  0.00     0.227 C 
HETATM   13  O   UNL     1     -44.042  55.788 -54.429  1.00  0.00    -0.273 OA
HETATM   14  H   UNL     1     -41.276  55.589 -55.981  1.00  0.00     0.169 HD
BRANCH  12  15
HETATM   15  C   UNL     1     -43.469  56.736 -56.472  1.00  0.00     0.087 A 
HETATM   16  C   UNL     1     -43.305  56.089 -57.840  1.00  0.00     0.032 A 
HETATM   17  C   UNL     1     -42.476  57.294 -57.456  1.00  0.00     0.025 A 
BRANCH  16  18
HETATM   18  C   UNL     1     -44.402  56.216 -58.868  1.00  0.00    -0.053 A 
HETATM   19  C   UNL     1     -44.582  55.240 -59.863  1.00  0.00     0.009 A 
HETATM   20  C   UNL     1     -45.616  55.337 -60.800  1.00  0.00     0.024 A 
HETATM   21  C   UNL     1     -46.492  56.417 -60.751  1.00  0.00     0.034 A 
HETATM   22  C   UNL     1     -46.343  57.395 -59.775  1.00  0.00     0.024 A 
HETATM   23 CL   UNL     1     -47.767  56.537 -61.899  1.00  0.00    -0.084 Cl
HETATM   24  C   UNL     1     -45.309  57.290 -58.840  1.00  0.00     0.009 A 
ENDBRANCH  16  18
ENDBRANCH  12  15
ENDBRANCH   1  11
BRANCH   8  25
HETATM   25  C   UNL     1     -39.921  50.061 -54.120  1.00  0.00     0.270 C 
HETATM   26  N   UNL     1     -41.132  49.808 -54.706  1.00  0.00    -0.365 N 
HETATM   27  H   UNL     1     -41.930  50.369 -54.432  1.00  0.00     0.159 HD
HETATM   28  H   UNL     1     -41.210  49.077 -55.395  1.00  0.00     0.159 HD
HETATM   29  O   UNL     1     -38.925  49.412 -54.419  1.00  0.00    -0.266 OA
ENDBRANCH   8  25
TORSDOF 4
ENDMDL
MODEL 6
REMARK VINA RESULT:      -8.1      2.346      3.106
REMARK  4 active torsions:
REMARK  status: ('A' for Active; 'I' for Inactive)
REMARK    1  A    between atoms: C_2  and  C_3 
REMARK    2  A    between atoms: C_4  and  C_5 
REMARK       I    between atoms: C_5  and  N_6 
REMARK    3  A    between atoms: N_6  and  C_7 
REMARK    4  A    between atoms: C_14  and  C_15 
REMARK       I    between atoms: C_15  and  N_16 
ROOT
HETATM    1  C   UNL     1     -42.734  56.608 -57.210  1.00  0.00     0.035 A 
HETATM    2  C   UNL     1     -43.686  56.211 -58.160  1.00  0.00     0.046 A 
HETATM    3  C   UNL     1     -44.191  57.159 -59.079  1.00  0.00     0.030 A 
HETATM    4  C   UNL     1     -43.724  58.466 -59.018  1.00  0.00     0.063 A 
HETATM    5  N   UNL     1     -44.388  59.134 -60.009  1.00  0.00    -0.277 N 
HETATM    6  H   UNL     1     -44.298  60.114 -60.254  1.00  0.00     0.189 HD
HETATM    7  N   UNL     1     -45.244  58.379 -60.714  1.00  0.00    -0.168 NA
HETATM    8  C   UNL     1     -45.133  57.153 -60.153  1.00  0.00     0.156 A 
HETATM    9  C   UNL     1     -42.772  58.894 -58.092  1.00  0.00     0.034 A 
HETATM   10  C   UNL     1     -42.288  57.936 -57.193  1.00  0.00     0.032 A 
ENDROOT
BRANCH   1  11
HETATM   11  N   UNL     1     -42.183  55.744 -56.239  1.00  0.00    -0.327 N 
HETATM   12  C   UNL     1     -42.805  55.217 -55.127  1.00  0.00     0.227 C 
HETATM   13  O   UNL     1     -43.964  55.392 -54.782  1.00  0.00    -0.273 OA
HETATM   14  H   UNL     1     -41.207  55.522 -56.359  1.00  0.00     0.169 HD
BRANCH  12  15
HETATM   15  C   UNL     1     -41.949  54.366 -54.243  1.00  0.00     0.087 A 
HETATM   16  C   UNL     1     -40.896  55.041 -53.375  1.00  0.00     0.032 A 
HETATM   17  C   UNL     1     -40.491  54.053 -54.446  1.00  0.00     0.025 A 
BRANCH  16  18
HETATM   18  C   UNL     1     -40.776  54.675 -51.917  1.00  0.00    -0.053 A 
HETATM   19  C   UNL     1     -40.234  53.441 -51.519  1.00  0.00     0.009 A 
HETATM   20  C   UNL     1     -40.094  53.109 -50.168  1.00  0.00     0.024 A 
HETATM   21  C   UNL     1     -40.491  54.015 -49.189  1.00  0.00     0.034 A 
HETATM   22  C   UNL     1     -41.025  55.247 -49.551  1.00  0.00     0.024 A 
HETATM   23 CL   UNL     1     -40.315  53.611 -47.527  1.00  0.00    -0.084 Cl
HETATM   24  C   UNL     1     -41.161  55.573 -50.905  1.00  0.00     0.009 A 
ENDBRANCH  16  18
ENDBRANCH  12  15
ENDBRANCH   1  11
BRANCH   8  25
HETATM   25  C   UNL     1     -45.921  56.016 -60.649  1.00  0.00     0.270 C 
HETATM   26  N   UNL     1     -47.189  55.952 -60.139  1.00  0.00    -0.365 N 
HETATM   27  H   UNL     1     -47.484  56.666 -59.482  1.00  0.00     0.159 HD
HETATM   28  H   UNL     1     -47.805  55.208 -60.423  1.00  0.00     0.159 HD
HETATM   29  O   UNL     1     -45.517  55.179 -61.449  1.00  0.00    -0.266 OA
ENDBRANCH   8  25
TORSDOF 4
ENDMDL
MODEL 7
REMARK VINA RESULT:      -8.1      4.708      9.055
REMARK  4 active torsions:
REMARK  status: ('A' for Active; 'I' for Inactive)
REMARK    1  A    between atoms: C_2  and  C_3 
REMARK    2  A    between atoms: C_4  and  C_5 
REMARK       I    between atoms: C_5  and  N_6 
REMARK    3  A    between atoms: N_6  and  C_7 
REMARK    4  A    between atoms: C_14  and  C_15 
REMARK       I    between atoms: C_15  and  N_16 
ROOT
HETATM    1  C   UNL     1     -40.892  54.173 -54.387  1.00  0.00     0.035 A 
HETATM    2  C   UNL     1     -41.221  54.560 -53.080  1.00  0.00     0.046 A 
HETATM    3  C   UNL     1     -40.859  53.728 -51.995  1.00  0.00     0.030 A 
HETATM    4  C   UNL     1     -40.180  52.545 -52.256  1.00  0.00     0.063 A 
HETATM    5  N   UNL     1     -39.978  51.966 -51.034  1.00  0.00    -0.277 N 
HETATM    6  H   UNL     1     -39.513  51.086 -50.841  1.00  0.00     0.189 HD
HETATM    7  N   UNL     1     -40.461  52.669 -49.998  1.00  0.00    -0.168 NA
HETATM    8  C   UNL     1     -41.008  53.764 -50.576  1.00  0.00     0.156 A 
HETATM    9  C   UNL     1     -39.830  52.133 -53.543  1.00  0.00     0.034 A 
HETATM   10  C   UNL     1     -40.200  52.974 -54.599  1.00  0.00     0.032 A 
ENDROOT
BRANCH   1  11
HETATM   11  N   UNL     1     -41.224  54.922 -55.536  1.00  0.00    -0.327 N 
HETATM   12  C   UNL     1     -42.432  54.959 -56.202  1.00  0.00     0.227 C 
HETATM   13  O   UNL     1     -43.451  54.353 -55.906  1.00  0.00    -0.273 OA
HETATM   14  H   UNL     1     -40.472  55.462 -55.935  1.00  0.00     0.169 HD
BRANCH  12  15
HETATM   15  C   UNL     1     -42.474  55.812 -57.430  1.00  0.00     0.087 A 
HETATM   16  C   UNL     1     -43.288  57.098 -57.399  1.00  0.00     0.032 A 
HETATM   17  C   UNL     1     -43.648  55.984 -58.356  1.00  0.00     0.025 A 
BRANCH  16  18
HETATM   18  C   UNL     1     -42.686  58.381 -57.916  1.00  0.00    -0.053 A 
HETATM   19  C   UNL     1     -42.624  58.652 -59.294  1.00  0.00     0.009 A 
HETATM   20  C   UNL     1     -42.093  59.852 -59.778  1.00  0.00     0.024 A 
HETATM   21  C   UNL     1     -41.619  60.807 -58.883  1.00  0.00     0.034 A 
HETATM   22  C   UNL     1     -41.673  60.571 -57.514  1.00  0.00     0.024 A 
HETATM   23 CL   UNL     1     -40.971  62.286 -59.475  1.00  0.00    -0.084 Cl
HETATM   24  C   UNL     1     -42.206  59.369 -57.038  1.00  0.00     0.009 A 
ENDBRANCH  16  18
ENDBRANCH  12  15
ENDBRANCH   1  11
BRANCH   8  25
HETATM   25  C   UNL     1     -41.654  54.806 -49.767  1.00  0.00     0.270 C 
HETATM   26  N   UNL     1     -42.964  55.033 -50.093  1.00  0.00    -0.365 N 
HETATM   27  H   UNL     1     -43.380  54.487 -50.838  1.00  0.00     0.159 HD
HETATM   28  H   UNL     1     -43.490  55.730 -49.590  1.00  0.00     0.159 HD
HETATM   29  O   UNL     1     -41.105  55.439 -48.871  1.00  0.00    -0.266 OA
ENDBRANCH   8  25
TORSDOF 4
ENDMDL
MODEL 8
REMARK VINA RESULT:      -8.1      4.562      9.134
REMARK  4 active torsions:
REMARK  status: ('A' for Active; 'I' for Inactive)
REMARK    1  A    between atoms: C_2  and  C_3 
REMARK    2  A    between atoms: C_4  and  C_5 
REMARK       I    between atoms: C_5  and  N_6 
REMARK    3  A    between atoms: N_6  and  C_7 
REMARK    4  A    between atoms: C_14  and  C_15 
REMARK       I    between atoms: C_15  and  N_16 
ROOT
HETATM    1  C   UNL     1     -41.510  54.439 -54.115  1.00  0.00     0.035 A 
HETATM    2  C   UNL     1     -41.550  54.479 -52.715  1.00  0.00     0.046 A 
HETATM    3  C   UNL     1     -40.884  53.479 -51.970  1.00  0.00     0.030 A 
HETATM    4  C   UNL     1     -40.202  52.479 -52.650  1.00  0.00     0.063 A 
HETATM    5  N   UNL     1     -39.677  51.672 -51.679  1.00  0.00    -0.277 N 
HETATM    6  H   UNL     1     -39.117  50.837 -51.812  1.00  0.00     0.189 HD
HETATM    7  N   UNL     1     -39.952  52.059 -50.425  1.00  0.00    -0.168 NA
HETATM    8  C   UNL     1     -40.697  53.178 -50.586  1.00  0.00     0.156 A 
HETATM    9  C   UNL     1     -40.136  52.412 -54.043  1.00  0.00     0.034 A 
HETATM   10  C   UNL     1     -40.802  53.414 -54.757  1.00  0.00     0.032 A 
ENDROOT
BRANCH   1  11
HETATM   11  N   UNL     1     -42.156  55.378 -54.948  1.00  0.00    -0.327 N 
HETATM   12  C   UNL     1     -41.981  56.746 -54.974  1.00  0.00     0.227 C 
HETATM   13  O   UNL     1     -41.216  57.401 -54.282  1.00  0.00    -0.273 OA
HETATM   14  H   UNL     1     -42.855  55.000 -55.568  1.00  0.00     0.169 HD
BRANCH  12  15
HETATM   15  C   UNL     1     -42.847  57.496 -55.935  1.00  0.00     0.087 A 
HETATM   16  C   UNL     1     -42.596  57.332 -57.428  1.00  0.00     0.032 A 
HETATM   17  C   UNL     1     -42.438  58.682 -56.766  1.00  0.00     0.025 A 
BRANCH  16  18
HETATM   18  C   UNL     1     -43.753  57.072 -58.361  1.00  0.00    -0.053 A 
HETATM   19  C   UNL     1     -43.867  55.856 -59.056  1.00  0.00     0.009 A 
HETATM   20  C   UNL     1     -44.953  55.598 -59.899  1.00  0.00     0.024 A 
HETATM   21  C   UNL     1     -45.949  56.557 -60.055  1.00  0.00     0.034 A 
HETATM   22  C   UNL     1     -45.868  57.768 -59.375  1.00  0.00     0.024 A 
HETATM   23 CL   UNL     1     -47.288  56.241 -61.087  1.00  0.00    -0.084 Cl
HETATM   24  C   UNL     1     -44.780  58.017 -58.532  1.00  0.00     0.009 A 
ENDBRANCH  16  18
ENDBRANCH  12  15
ENDBRANCH   1  11
BRANCH   8  25
HETATM   25  C   UNL     1     -41.208  53.924 -49.428  1.00  0.00     0.270 C 
HETATM   26  N   UNL     1     -40.382  53.894 -48.337  1.00  0.00    -0.365 N 
HETATM   27  H   UNL     1     -39.510  53.382 -48.403  1.00  0.00     0.159 HD
HETATM   28  H   UNL     1     -40.648  54.380 -47.496  1.00  0.00     0.159 HD
HETATM   29  O   UNL     1     -42.273  54.531 -49.400  1.00  0.00    -0.266 OA
ENDBRANCH   8  25
TORSDOF 4
ENDMDL
MODEL 9
REMARK VINA RESULT:      -7.9      1.503      2.482
REMARK  4 active torsions:
REMARK  status: ('A' for Active; 'I' for Inactive)
REMARK    1  A    between atoms: C_2  and  C_3 
REMARK    2  A    between atoms: C_4  and  C_5 
REMARK       I    between atoms: C_5  and  N_6 
REMARK    3  A    between atoms: N_6  and  C_7 
REMARK    4  A    between atoms: C_14  and  C_15 
REMARK       I    between atoms: C_15  and  N_16 
ROOT
HETATM    1  C   UNL     1     -43.632  57.144 -56.171  1.00  0.00     0.035 A 
HETATM    2  C   UNL     1     -44.166  57.263 -57.462  1.00  0.00     0.046 A 
HETATM    3  C   UNL     1     -45.246  58.147 -57.690  1.00  0.00     0.030 A 
HETATM    4  C   UNL     1     -45.749  58.880 -56.623  1.00  0.00     0.063 A 
HETATM    5  N   UNL     1     -46.771  59.623 -57.144  1.00  0.00    -0.277 N 
HETATM    6  H   UNL     1     -47.369  60.277 -56.649  1.00  0.00     0.189 HD
HETATM    7  N   UNL     1     -46.977  59.444 -58.457  1.00  0.00    -0.168 NA
HETATM    8  C   UNL     1     -46.040  58.535 -58.811  1.00  0.00     0.156 A 
HETATM    9  C   UNL     1     -45.238  58.791 -55.327  1.00  0.00     0.034 A 
HETATM   10  C   UNL     1     -44.169  57.910 -55.127  1.00  0.00     0.032 A 
ENDROOT
BRANCH   1  11
HETATM   11  N   UNL     1     -42.568  56.279 -55.836  1.00  0.00    -0.327 N 
HETATM   12  C   UNL     1     -42.603  54.906 -55.710  1.00  0.00     0.227 C 
HETATM   13  O   UNL     1     -43.569  54.178 -55.881  1.00  0.00    -0.273 OA
HETATM   14  H   UNL     1     -41.691  56.729 -55.628  1.00  0.00     0.169 HD
BRANCH  12  15
HETATM   15  C   UNL     1     -41.323  54.256 -55.291  1.00  0.00     0.087 A 
HETATM   16  C   UNL     1     -40.869  54.398 -53.845  1.00  0.00     0.032 A 
HETATM   17  C   UNL     1     -40.030  54.957 -54.971  1.00  0.00     0.025 A 
BRANCH  16  18
HETATM   18  C   UNL     1     -40.406  53.183 -53.080  1.00  0.00    -0.053 A 
HETATM   19  C   UNL     1     -40.405  53.166 -51.675  1.00  0.00     0.009 A 
HETATM   20  C   UNL     1     -40.005  52.032 -50.960  1.00  0.00     0.024 A 
HETATM   21  C   UNL     1     -39.602  50.890 -51.647  1.00  0.00     0.034 A 
HETATM   22  C   UNL     1     -39.598  50.875 -53.037  1.00  0.00     0.024 A 
HETATM   23 CL   UNL     1     -39.113  49.493 -50.772  1.00  0.00    -0.084 Cl
HETATM   24  C   UNL     1     -40.002  52.012 -53.744  1.00  0.00     0.009 A 
ENDBRANCH  16  18
ENDBRANCH  12  15
ENDBRANCH   1  11
BRANCH   8  25
HETATM   25  C   UNL     1     -45.927  58.062 -60.198  1.00  0.00     0.270 C 
HETATM   26  N   UNL     1     -45.005  58.743 -60.946  1.00  0.00    -0.365 N 
HETATM   27  H   UNL     1     -44.486  59.496 -60.508  1.00  0.00     0.159 HD
HETATM   28  H   UNL     1     -44.856  58.488 -61.909  1.00  0.00     0.159 HD
HETATM   29  O   UNL     1     -46.579  57.143 -60.681  1.00  0.00    -0.266 OA
ENDBRANCH   8  25
TORSDOF 4
ENDMDL
MODEL 10
REMARK VINA RESULT:      -7.9      4.649      5.478
REMARK  4 active torsions:
REMARK  status: ('A' for Active; 'I' for Inactive)
REMARK    1  A    between atoms: C_2  and  C_3 
REMARK    2  A    between atoms: C_4  and  C_5 
REMARK       I    between atoms: C_5  and  N_6 
REMARK    3  A    between atoms: N_6  and  C_7 
REMARK    4  A    between atoms: C_14  and  C_15 
REMARK       I    between atoms: C_15  and  N_16 
ROOT
HETATM    1  C   UNL     1     -43.535  57.743 -51.896  1.00  0.00     0.035 A 
HETATM    2  C   UNL     1     -43.386  58.747 -52.863  1.00  0.00     0.046 A 
HETATM    3  C   UNL     1     -44.424  59.686 -53.057  1.00  0.00     0.030 A 
HETATM    4  C   UNL     1     -45.570  59.590 -52.278  1.00  0.00     0.063 A 
HETATM    5  N   UNL     1     -46.378  60.611 -52.694  1.00  0.00    -0.277 N 
HETATM    6  H   UNL     1     -47.302  60.843 -52.345  1.00  0.00     0.189 HD
HETATM    7  N   UNL     1     -45.860  61.368 -53.673  1.00  0.00    -0.168 NA
HETATM    8  C   UNL     1     -44.650  60.811 -53.908  1.00  0.00     0.156 A 
HETATM    9  C   UNL     1     -45.749  58.608 -51.302  1.00  0.00     0.034 A 
HETATM   10  C   UNL     1     -44.706  57.691 -51.128  1.00  0.00     0.032 A 
ENDROOT
BRANCH   1  11
HETATM   11  N   UNL     1     -42.566  56.749 -51.637  1.00  0.00    -0.327 N 
HETATM   12  C   UNL     1     -41.465  56.836 -50.811  1.00  0.00     0.227 C 
HETATM   13  O   UNL     1     -41.131  57.796 -50.133  1.00  0.00    -0.273 OA
HETATM   14  H   UNL     1     -42.678  55.890 -52.152  1.00  0.00     0.169 HD
BRANCH  12  15
HETATM   15  C   UNL     1     -40.580  55.631 -50.774  1.00  0.00     0.087 A 
HETATM   16  C   UNL     1     -41.223  54.251 -50.767  1.00  0.00     0.032 A 
HETATM   17  C   UNL     1     -40.376  54.710 -49.601  1.00  0.00     0.025 A 
BRANCH  16  18
HETATM   18  C   UNL     1     -40.717  53.181 -51.701  1.00  0.00    -0.053 A 
HETATM   19  C   UNL     1     -39.984  52.082 -51.220  1.00  0.00     0.009 A 
HETATM   20  C   UNL     1     -39.538  51.072 -52.078  1.00  0.00     0.024 A 
HETATM   21  C   UNL     1     -39.824  51.145 -53.438  1.00  0.00     0.034 A 
HETATM   22  C   UNL     1     -40.552  52.217 -53.943  1.00  0.00     0.024 A 
HETATM   23 CL   UNL     1     -39.281  49.902 -54.495  1.00  0.00    -0.084 Cl
HETATM   24  C   UNL     1     -40.997  53.222 -53.079  1.00  0.00     0.009 A 
ENDBRANCH  16  18
ENDBRANCH  12  15
ENDBRANCH   1  11
BRANCH   8  25
HETATM   25  C   UNL     1     -43.747  61.359 -54.930  1.00  0.00     0.270 C 
HETATM   26  N   UNL     1     -42.905  62.333 -54.466  1.00  0.00    -0.365 N 
HETATM   27  H   UNL     1     -42.960  62.596 -53.488  1.00  0.00     0.159 HD
HETATM   28  H   UNL     1     -42.248  62.766 -55.094  1.00  0.00     0.159 HD
HETATM   29  O   UNL     1     -43.718  61.003 -56.103  1.00  0.00    -0.266 OA
ENDBRANCH   8  25
TORSDOF 4
ENDMDL
