MODEL 1
REMARK VINA RESULT:      -7.6      0.000      0.000
REMARK  6 active torsions:
REMARK  status: ('A' for Active; 'I' for Inactive)
REMARK    1  A    between atoms: C_2  and  C_3 
REMARK    2  A    between atoms: C_8  and  C_9 
REMARK    3  A    between atoms: C_9  and  N_10 
REMARK    4  A    between atoms: N_10  and  C_12 
REMARK    5  A    between atoms: C_12  and  C_13 
REMARK       I    between atoms: C_13  and  N_14 
REMARK    6  A    between atoms: N_14  and  C_15 
ROOT
HETATM    1  N   UNL     1     -42.077  56.590 -52.132  1.00  0.00    -0.063 N 
HETATM    2  H   UNL     1     -42.615  56.020 -52.797  1.00  0.00     0.280 HD
HETATM    3  C   UNL     1     -43.039  57.450 -51.367  1.00  0.00     0.270 C 
ENDROOT
BRANCH   1   4
HETATM    4  C   UNL     1     -41.117  57.400 -53.009  1.00  0.00     0.277 C 
BRANCH   4   5
HETATM    5  C   UNL     1     -41.736  57.795 -54.310  1.00  0.00     0.012 A 
HETATM    6  C   UNL     1     -42.298  57.005 -55.379  1.00  0.00     0.071 A 
HETATM    7  N   UNL     1     -42.772  57.806 -56.346  1.00  0.00    -0.178 NA
HETATM    8  N   UNL     1     -42.454  59.043 -55.991  1.00  0.00    -0.288 N 
HETATM    9  H   UNL     1     -42.684  59.802 -56.629  1.00  0.00     0.188 HD
HETATM   10  C   UNL     1     -41.844  59.098 -54.776  1.00  0.00     0.120 A 
BRANCH   6  11
HETATM   11  C   UNL     1     -42.451  55.498 -55.637  1.00  0.00    -0.004 C 
HETATM   12  C   UNL     1     -41.090  54.796 -55.420  1.00  0.00     0.021 C 
HETATM   13  C   UNL     1     -42.902  55.260 -57.097  1.00  0.00     0.021 C 
HETATM   14  C   UNL     1     -43.462  54.793 -54.727  1.00  0.00     0.021 C 
ENDBRANCH   6  11
ENDBRANCH   4   5
ENDBRANCH   1   4
BRANCH   1  15
HETATM   15  C   UNL     1     -41.350  55.628 -51.186  1.00  0.00     0.337 C 
BRANCH  15  16
HETATM   16  C   UNL     1     -41.490  54.169 -51.617  1.00  0.00     0.248 C 
HETATM   17  N   UNL     1     -40.318  53.649 -52.145  1.00  0.00    -0.326 N 
HETATM   18  H   UNL     1     -39.600  54.294 -52.458  1.00  0.00     0.169 HD
HETATM   19  O   UNL     1     -42.532  53.564 -51.394  1.00  0.00    -0.271 OA
BRANCH  17  20
HETATM   20  C   UNL     1     -40.029  52.286 -52.380  1.00  0.00     0.040 A 
HETATM   21  C   UNL     1     -40.074  51.678 -53.635  1.00  0.00     0.072 A 
HETATM   22  C   UNL     1     -39.837  50.307 -53.756  1.00  0.00     0.121 A 
HETATM   23  F   UNL     1     -39.904  49.739 -54.966  1.00  0.00    -0.206 F 
HETATM   24  C   UNL     1     -39.549  49.522 -52.651  1.00  0.00     0.084 A 
HETATM   25  C   UNL     1     -39.492  50.132 -51.409  1.00  0.00     0.121 A 
HETATM   26  F   UNL     1     -39.220  49.399 -50.322  1.00  0.00    -0.206 F 
HETATM   27  C   UNL     1     -39.726  51.498 -51.262  1.00  0.00     0.072 A 
ENDBRANCH  17  20
ENDBRANCH  15  16
ENDBRANCH   1  15
TORSDOF 6
ENDMDL
MODEL 2
REMARK VINA RESULT:      -7.2      1.786      3.124
REMARK  6 active torsions:
REMARK  status: ('A' for Active; 'I' for Inactive)
REMARK    1  A    between atoms: C_2  and  C_3 
REMARK    2  A    between atoms: C_8  and  C_9 
REMARK    3  A    between atoms: C_9  and  N_10 
REMARK    4  A    between atoms: N_10  and  C_12 
REMARK    5  A    between atoms: C_12  and  C_13 
REMARK       I    between atoms: C_13  and  N_14 
REMARK    6  A    between atoms: N_14  and  C_15 
ROOT
HETATM    1  N   UNL     1     -42.536  56.453 -53.658  1.00  0.00    -0.063 N 
HETATM    2  H   UNL     1     -43.171  55.708 -53.974  1.00  0.00     0.280 HD
HETATM    3  C   UNL     1     -43.357  57.517 -52.992  1.00  0.00     0.270 C 
ENDROOT
BRANCH   1   4
HETATM    4  C   UNL     1     -41.849  56.939 -54.939  1.00  0.00     0.277 C 
BRANCH   4   5
HETATM    5  C   UNL     1     -42.562  56.484 -56.171  1.00  0.00     0.012 A 
HETATM    6  C   UNL     1     -43.146  57.224 -57.265  1.00  0.00     0.071 A 
HETATM    7  N   UNL     1     -43.654  56.379 -58.175  1.00  0.00    -0.178 NA
HETATM    8  N   UNL     1     -43.510  55.160 -57.671  1.00  0.00    -0.288 N 
HETATM    9  H   UNL     1     -43.886  54.374 -58.195  1.00  0.00     0.188 HD
HETATM   10  C   UNL     1     -42.852  55.162 -56.480  1.00  0.00     0.120 A 
BRANCH   6  11
HETATM   11  C   UNL     1     -43.309  58.716 -57.587  1.00  0.00    -0.004 C 
HETATM   12  C   UNL     1     -44.192  58.880 -58.848  1.00  0.00     0.021 C 
HETATM   13  C   UNL     1     -41.925  59.346 -57.869  1.00  0.00     0.021 C 
HETATM   14  C   UNL     1     -43.967  59.542 -56.478  1.00  0.00     0.021 C 
ENDBRANCH   6  11
ENDBRANCH   4   5
ENDBRANCH   1   4
BRANCH   1  15
HETATM   15  C   UNL     1     -41.555  55.829 -52.660  1.00  0.00     0.337 C 
BRANCH  15  16
HETATM   16  C   UNL     1     -41.676  54.307 -52.597  1.00  0.00     0.248 C 
HETATM   17  N   UNL     1     -40.557  53.657 -53.094  1.00  0.00    -0.326 N 
HETATM   18  H   UNL     1     -39.917  54.178 -53.686  1.00  0.00     0.169 HD
HETATM   19  O   UNL     1     -42.649  53.794 -52.058  1.00  0.00    -0.271 OA
BRANCH  17  20
HETATM   20  C   UNL     1     -40.232  52.291 -52.934  1.00  0.00     0.040 A 
HETATM   21  C   UNL     1     -39.877  51.705 -51.719  1.00  0.00     0.072 A 
HETATM   22  C   UNL     1     -39.508  50.358 -51.675  1.00  0.00     0.121 A 
HETATM   23  F   UNL     1     -39.151  49.820 -50.503  1.00  0.00    -0.206 F 
HETATM   24  C   UNL     1     -39.489  49.575 -52.817  1.00  0.00     0.084 A 
HETATM   25  C   UNL     1     -39.856  50.157 -54.019  1.00  0.00     0.121 A 
HETATM   26  F   UNL     1     -39.843  49.427 -55.141  1.00  0.00    -0.206 F 
HETATM   27  C   UNL     1     -40.227  51.499 -54.089  1.00  0.00     0.072 A 
ENDBRANCH  17  20
ENDBRANCH  15  16
ENDBRANCH   1  15
TORSDOF 6
ENDMDL
MODEL 3
REMARK VINA RESULT:      -7.1      3.293      4.909
REMARK  6 active torsions:
REMARK  status: ('A' for Active; 'I' for Inactive)
REMARK    1  A    between atoms: C_2  and  C_3 
REMARK    2  A    between atoms: C_8  and  C_9 
REMARK    3  A    between atoms: C_9  and  N_10 
REMARK    4  A    between atoms: N_10  and  C_12 
REMARK    5  A    between atoms: C_12  and  C_13 
REMARK       I    between atoms: C_13  and  N_14 
REMARK    6  A    between atoms: N_14  and  C_15 
ROOT
HETATM    1  N   UNL     1     -43.465  56.396 -56.629  1.00  0.00    -0.063 N 
HETATM    2  H   UNL     1     -43.950  55.490 -56.654  1.00  0.00     0.280 HD
HETATM    3  C   UNL     1     -44.336  57.372 -55.894  1.00  0.00     0.270 C 
ENDROOT
BRANCH   1   4
HETATM    4  C   UNL     1     -43.264  56.764 -58.102  1.00  0.00     0.277 C 
BRANCH   4   5
HETATM    5  C   UNL     1     -44.112  55.936 -59.013  1.00  0.00     0.012 A 
HETATM    6  C   UNL     1     -45.324  56.247 -59.733  1.00  0.00     0.071 A 
HETATM    7  N   UNL     1     -45.714  55.188 -60.461  1.00  0.00    -0.178 NA
HETATM    8  N   UNL     1     -44.873  54.206 -60.164  1.00  0.00    -0.288 N 
HETATM    9  H   UNL     1     -45.034  53.292 -60.581  1.00  0.00     0.188 HD
HETATM   10  C   UNL     1     -43.887  54.600 -59.314  1.00  0.00     0.120 A 
BRANCH   6  11
HETATM   11  C   UNL     1     -46.232  57.482 -59.827  1.00  0.00    -0.004 C 
HETATM   12  C   UNL     1     -47.349  57.225 -60.866  1.00  0.00     0.021 C 
HETATM   13  C   UNL     1     -45.405  58.706 -60.286  1.00  0.00     0.021 C 
HETATM   14  C   UNL     1     -46.927  57.867 -58.518  1.00  0.00     0.021 C 
ENDBRANCH   6  11
ENDBRANCH   4   5
ENDBRANCH   1   4
BRANCH   1  15
HETATM   15  C   UNL     1     -42.143  56.190 -55.883  1.00  0.00     0.337 C 
BRANCH  15  16
HETATM   16  C   UNL     1     -42.016  54.784 -55.298  1.00  0.00     0.248 C 
HETATM   17  N   UNL     1     -40.790  54.562 -54.690  1.00  0.00    -0.326 N 
HETATM   18  H   UNL     1     -40.020  55.184 -54.913  1.00  0.00     0.169 HD
HETATM   19  O   UNL     1     -42.979  54.026 -55.318  1.00  0.00    -0.271 OA
BRANCH  17  20
HETATM   20  C   UNL     1     -40.454  53.492 -53.830  1.00  0.00     0.040 A 
HETATM   21  C   UNL     1     -40.448  53.576 -52.437  1.00  0.00     0.072 A 
HETATM   22  C   UNL     1     -40.036  52.481 -51.674  1.00  0.00     0.121 A 
HETATM   23  F   UNL     1     -40.018  52.587 -50.340  1.00  0.00    -0.206 F 
HETATM   24  C   UNL     1     -39.633  51.296 -52.267  1.00  0.00     0.084 A 
HETATM   25  C   UNL     1     -39.654  51.212 -53.649  1.00  0.00     0.121 A 
HETATM   26  F   UNL     1     -39.266  50.081 -54.252  1.00  0.00    -0.206 F 
HETATM   27  C   UNL     1     -40.060  52.291 -54.433  1.00  0.00     0.072 A 
ENDBRANCH  17  20
ENDBRANCH  15  16
ENDBRANCH   1  15
TORSDOF 6
ENDMDL
MODEL 4
REMARK VINA RESULT:      -7.1      1.209      2.212
REMARK  6 active torsions:
REMARK  status: ('A' for Active; 'I' for Inactive)
REMARK    1  A    between atoms: C_2  and  C_3 
REMARK    2  A    between atoms: C_8  and  C_9 
REMARK    3  A    between atoms: C_9  and  N_10 
REMARK    4  A    between atoms: N_10  and  C_12 
REMARK    5  A    between atoms: C_12  and  C_13 
REMARK       I    between atoms: C_13  and  N_14 
REMARK    6  A    between atoms: N_14  and  C_15 
ROOT
HETATM    1  N   UNL     1     -42.217  56.538 -52.482  1.00  0.00    -0.063 N 
HETATM    2  H   UNL     1     -42.874  55.893 -52.941  1.00  0.00     0.280 HD
HETATM    3  C   UNL     1     -43.013  57.560 -51.728  1.00  0.00     0.270 C 
ENDROOT
BRANCH   1   4
HETATM    4  C   UNL     1     -41.404  57.140 -53.633  1.00  0.00     0.277 C 
BRANCH   4   5
HETATM    5  C   UNL     1     -41.889  56.679 -54.970  1.00  0.00     0.012 A 
HETATM    6  C   UNL     1     -42.667  57.347 -55.986  1.00  0.00     0.071 A 
HETATM    7  N   UNL     1     -42.833  56.541 -57.046  1.00  0.00    -0.178 NA
HETATM    8  N   UNL     1     -42.289  55.377 -56.715  1.00  0.00    -0.288 N 
HETATM    9  H   UNL     1     -42.360  54.607 -57.376  1.00  0.00     0.188 HD
HETATM   10  C   UNL     1     -41.699  55.406 -55.489  1.00  0.00     0.120 A 
BRANCH   6  11
HETATM   11  C   UNL     1     -43.327  58.729 -56.098  1.00  0.00    -0.004 C 
HETATM   12  C   UNL     1     -42.248  59.831 -55.968  1.00  0.00     0.021 C 
HETATM   13  C   UNL     1     -44.358  58.911 -54.959  1.00  0.00     0.021 C 
HETATM   14  C   UNL     1     -44.059  58.983 -57.419  1.00  0.00     0.021 C 
ENDBRANCH   6  11
ENDBRANCH   4   5
ENDBRANCH   1   4
BRANCH   1  15
HETATM   15  C   UNL     1     -41.358  55.710 -51.519  1.00  0.00     0.337 C 
BRANCH  15  16
HETATM   16  C   UNL     1     -41.487  54.208 -51.767  1.00  0.00     0.248 C 
HETATM   17  N   UNL     1     -40.402  53.680 -52.450  1.00  0.00    -0.326 N 
HETATM   18  H   UNL     1     -39.792  54.315 -52.956  1.00  0.00     0.169 HD
HETATM   19  O   UNL     1     -42.432  53.590 -51.293  1.00  0.00    -0.271 OA
BRANCH  17  20
HETATM   20  C   UNL     1     -40.079  52.312 -52.596  1.00  0.00     0.040 A 
HETATM   21  C   UNL     1     -40.112  51.622 -53.809  1.00  0.00     0.072 A 
HETATM   22  C   UNL     1     -39.840  50.253 -53.840  1.00  0.00     0.121 A 
HETATM   23  F   UNL     1     -39.896  49.605 -55.010  1.00  0.00    -0.206 F 
HETATM   24  C   UNL     1     -39.529  49.550 -52.688  1.00  0.00     0.084 A 
HETATM   25  C   UNL     1     -39.485  50.241 -51.489  1.00  0.00     0.121 A 
HETATM   26  F   UNL     1     -39.192  49.588 -50.357  1.00  0.00    -0.206 F 
HETATM   27  C   UNL     1     -39.752  51.607 -51.431  1.00  0.00     0.072 A 
ENDBRANCH  17  20
ENDBRANCH  15  16
ENDBRANCH   1  15
TORSDOF 6
ENDMDL
MODEL 5
REMARK VINA RESULT:      -7.1      1.942      4.346
REMARK  6 active torsions:
REMARK  status: ('A' for Active; 'I' for Inactive)
REMARK    1  A    between atoms: C_2  and  C_3 
REMARK    2  A    between atoms: C_8  and  C_9 
REMARK    3  A    between atoms: C_9  and  N_10 
REMARK    4  A    between atoms: N_10  and  C_12 
REMARK    5  A    between atoms: C_12  and  C_13 
REMARK       I    between atoms: C_13  and  N_14 
REMARK    6  A    between atoms: N_14  and  C_15 
ROOT
HETATM    1  N   UNL     1     -42.526  57.255 -55.072  1.00  0.00    -0.063 N 
HETATM    2  H   UNL     1     -41.659  57.088 -54.545  1.00  0.00     0.280 HD
HETATM    3  C   UNL     1     -42.376  58.544 -55.824  1.00  0.00     0.270 C 
ENDROOT
BRANCH   1   4
HETATM    4  C   UNL     1     -43.620  57.309 -54.002  1.00  0.00     0.277 C 
BRANCH   4   5
HETATM    5  C   UNL     1     -43.100  56.970 -52.643  1.00  0.00     0.012 A 
HETATM    6  C   UNL     1     -42.134  57.630 -51.798  1.00  0.00     0.071 A 
HETATM    7  N   UNL     1     -42.008  56.971 -50.636  1.00  0.00    -0.178 NA
HETATM    8  N   UNL     1     -42.765  55.886 -50.742  1.00  0.00    -0.288 N 
HETATM    9  H   UNL     1     -42.763  55.220 -49.972  1.00  0.00     0.188 HD
HETATM   10  C   UNL     1     -43.451  55.840 -51.916  1.00  0.00     0.120 A 
BRANCH   6  11
HETATM   11  C   UNL     1     -41.246  58.874 -51.949  1.00  0.00    -0.004 C 
HETATM   12  C   UNL     1     -40.601  59.218 -50.586  1.00  0.00     0.021 C 
HETATM   13  C   UNL     1     -42.104  60.078 -52.406  1.00  0.00     0.021 C 
HETATM   14  C   UNL     1     -40.100  58.725 -52.954  1.00  0.00     0.021 C 
ENDBRANCH   6  11
ENDBRANCH   4   5
ENDBRANCH   1   4
BRANCH   1  15
HETATM   15  C   UNL     1     -42.705  56.084 -56.045  1.00  0.00     0.337 C 
BRANCH  15  16
HETATM   16  C   UNL     1     -42.420  54.733 -55.390  1.00  0.00     0.248 C 
HETATM   17  N   UNL     1     -41.145  54.655 -54.851  1.00  0.00    -0.326 N 
HETATM   18  H   UNL     1     -40.447  55.324 -55.160  1.00  0.00     0.169 HD
HETATM   19  O   UNL     1     -43.311  53.897 -55.304  1.00  0.00    -0.271 OA
BRANCH  17  20
HETATM   20  C   UNL     1     -40.665  53.673 -53.955  1.00  0.00     0.040 A 
HETATM   21  C   UNL     1     -40.570  53.849 -52.574  1.00  0.00     0.072 A 
HETATM   22  C   UNL     1     -40.020  52.842 -51.778  1.00  0.00     0.121 A 
HETATM   23  F   UNL     1     -39.919  53.038 -50.458  1.00  0.00    -0.206 F 
HETATM   24  C   UNL     1     -39.564  51.655 -52.327  1.00  0.00     0.084 A 
HETATM   25  C   UNL     1     -39.673  51.478 -53.695  1.00  0.00     0.121 A 
HETATM   26  F   UNL     1     -39.237  50.343 -54.255  1.00  0.00    -0.206 F 
HETATM   27  C   UNL     1     -40.218  52.469 -54.511  1.00  0.00     0.072 A 
ENDBRANCH  17  20
ENDBRANCH  15  16
ENDBRANCH   1  15
TORSDOF 6
ENDMDL
MODEL 6
REMARK VINA RESULT:      -7.0      1.737      2.744
REMARK  6 active torsions:
REMARK  status: ('A' for Active; 'I' for Inactive)
REMARK    1  A    between atoms: C_2  and  C_3 
REMARK    2  A    between atoms: C_8  and  C_9 
REMARK    3  A    between atoms: C_9  and  N_10 
REMARK    4  A    between atoms: N_10  and  C_12 
REMARK    5  A    between atoms: C_12  and  C_13 
REMARK       I    between atoms: C_13  and  N_14 
REMARK    6  A    between atoms: N_14  and  C_15 
ROOT
HETATM    1  N   UNL     1     -42.822  56.558 -53.281  1.00  0.00    -0.063 N 
HETATM    2  H   UNL     1     -43.393  55.929 -53.860  1.00  0.00     0.280 HD
HETATM    3  C   UNL     1     -43.523  56.753 -51.970  1.00  0.00     0.270 C 
ENDROOT
BRANCH   1   4
HETATM    4  C   UNL     1     -42.718  57.847 -54.104  1.00  0.00     0.277 C 
BRANCH   4   5
HETATM    5  C   UNL     1     -43.926  58.075 -54.954  1.00  0.00     0.012 A 
HETATM    6  C   UNL     1     -44.201  57.740 -56.331  1.00  0.00     0.071 A 
HETATM    7  N   UNL     1     -45.447  58.115 -56.658  1.00  0.00    -0.178 NA
HETATM    8  N   UNL     1     -45.933  58.750 -55.599  1.00  0.00    -0.288 N 
HETATM    9  H   UNL     1     -46.861  59.162 -55.667  1.00  0.00     0.188 HD
HETATM   10  C   UNL     1     -45.072  58.744 -54.546  1.00  0.00     0.120 A 
BRANCH   6  11
HETATM   11  C   UNL     1     -43.393  57.081 -57.459  1.00  0.00    -0.004 C 
HETATM   12  C   UNL     1     -44.300  56.884 -58.697  1.00  0.00     0.021 C 
HETATM   13  C   UNL     1     -42.883  55.696 -56.997  1.00  0.00     0.021 C 
HETATM   14  C   UNL     1     -42.175  57.883 -57.927  1.00  0.00     0.021 C 
ENDBRANCH   6  11
ENDBRANCH   4   5
ENDBRANCH   1   4
BRANCH   1  15
HETATM   15  C   UNL     1     -41.464  55.880 -53.068  1.00  0.00     0.337 C 
BRANCH  15  16
HETATM   16  C   UNL     1     -41.529  54.367 -53.273  1.00  0.00     0.248 C 
HETATM   17  N   UNL     1     -40.312  53.741 -53.052  1.00  0.00    -0.326 N 
HETATM   18  H   UNL     1     -39.469  54.306 -53.062  1.00  0.00     0.169 HD
HETATM   19  O   UNL     1     -42.605  53.829 -53.507  1.00  0.00    -0.271 OA
BRANCH  17  20
HETATM   20  C   UNL     1     -40.092  52.355 -52.890  1.00  0.00     0.040 A 
HETATM   21  C   UNL     1     -39.817  51.741 -51.667  1.00  0.00     0.072 A 
HETATM   22  C   UNL     1     -39.548  50.372 -51.618  1.00  0.00     0.121 A 
HETATM   23  F   UNL     1     -39.267  49.805 -50.438  1.00  0.00    -0.206 F 
HETATM   24  C   UNL     1     -39.549  49.593 -52.763  1.00  0.00     0.084 A 
HETATM   25  C   UNL     1     -39.836  50.203 -53.973  1.00  0.00     0.121 A 
HETATM   26  F   UNL     1     -39.841  49.477 -55.098  1.00  0.00    -0.206 F 
HETATM   27  C   UNL     1     -40.108  51.568 -54.048  1.00  0.00     0.072 A 
ENDBRANCH  17  20
ENDBRANCH  15  16
ENDBRANCH   1  15
TORSDOF 6
ENDMDL
MODEL 7
REMARK VINA RESULT:      -6.9      2.033      4.104
REMARK  6 active torsions:
REMARK  status: ('A' for Active; 'I' for Inactive)
REMARK    1  A    between atoms: C_2  and  C_3 
REMARK    2  A    between atoms: C_8  and  C_9 
REMARK    3  A    between atoms: C_9  and  N_10 
REMARK    4  A    between atoms: N_10  and  C_12 
REMARK    5  A    between atoms: C_12  and  C_13 
REMARK       I    between atoms: C_13  and  N_14 
REMARK    6  A    between atoms: N_14  and  C_15 
ROOT
HETATM    1  N   UNL     1     -43.624  57.579 -54.289  1.00  0.00    -0.063 N 
HETATM    2  H   UNL     1     -42.653  57.883 -54.142  1.00  0.00     0.280 HD
HETATM    3  C   UNL     1     -44.267  58.522 -55.262  1.00  0.00     0.270 C 
ENDROOT
BRANCH   1   4
HETATM    4  C   UNL     1     -44.258  57.632 -52.895  1.00  0.00     0.277 C 
BRANCH   4   5
HETATM    5  C   UNL     1     -43.300  57.223 -51.823  1.00  0.00     0.012 A 
HETATM    6  C   UNL     1     -42.038  57.786 -51.405  1.00  0.00     0.071 A 
HETATM    7  N   UNL     1     -41.546  57.094 -50.365  1.00  0.00    -0.178 NA
HETATM    8  N   UNL     1     -42.375  56.077 -50.171  1.00  0.00    -0.288 N 
HETATM    9  H   UNL     1     -42.143  55.397 -49.450  1.00  0.00     0.188 HD
HETATM   10  C   UNL     1     -43.448  56.111 -51.005  1.00  0.00     0.120 A 
BRANCH   6  11
HETATM   11  C   UNL     1     -41.170  58.957 -51.888  1.00  0.00    -0.004 C 
HETATM   12  C   UNL     1     -42.069  60.184 -52.174  1.00  0.00     0.021 C 
HETATM   13  C   UNL     1     -40.443  58.564 -53.196  1.00  0.00     0.021 C 
HETATM   14  C   UNL     1     -40.101  59.415 -50.893  1.00  0.00     0.021 C 
ENDBRANCH   6  11
ENDBRANCH   4   5
ENDBRANCH   1   4
BRANCH   1  15
HETATM   15  C   UNL     1     -43.579  56.160 -54.867  1.00  0.00     0.337 C 
BRANCH  15  16
HETATM   16  C   UNL     1     -42.253  55.456 -54.582  1.00  0.00     0.248 C 
HETATM   17  N   UNL     1     -42.389  54.381 -53.718  1.00  0.00    -0.326 N 
HETATM   18  H   UNL     1     -43.228  54.320 -53.150  1.00  0.00     0.169 HD
HETATM   19  O   UNL     1     -41.238  55.805 -55.174  1.00  0.00    -0.271 OA
BRANCH  17  20
HETATM   20  C   UNL     1     -41.433  53.370 -53.469  1.00  0.00     0.040 A 
HETATM   21  C   UNL     1     -41.066  52.392 -54.393  1.00  0.00     0.072 A 
HETATM   22  C   UNL     1     -40.159  51.394 -54.030  1.00  0.00     0.121 A 
HETATM   23  F   UNL     1     -39.834  50.453 -54.925  1.00  0.00    -0.206 F 
HETATM   24  C   UNL     1     -39.602  51.349 -52.762  1.00  0.00     0.084 A 
HETATM   25  C   UNL     1     -39.959  52.329 -51.853  1.00  0.00     0.121 A 
HETATM   26  F   UNL     1     -39.441  52.310 -50.618  1.00  0.00    -0.206 F 
HETATM   27  C   UNL     1     -40.863  53.336 -52.191  1.00  0.00     0.072 A 
ENDBRANCH  17  20
ENDBRANCH  15  16
ENDBRANCH   1  15
TORSDOF 6
ENDMDL
MODEL 8
REMARK VINA RESULT:      -6.9      2.988      4.428
REMARK  6 active torsions:
REMARK  status: ('A' for Active; 'I' for Inactive)
REMARK    1  A    between atoms: C_2  and  C_3 
REMARK    2  A    between atoms: C_8  and  C_9 
REMARK    3  A    between atoms: C_9  and  N_10 
REMARK    4  A    between atoms: N_10  and  C_12 
REMARK    5  A    between atoms: C_12  and  C_13 
REMARK       I    between atoms: C_13  and  N_14 
REMARK    6  A    between atoms: N_14  and  C_15 
ROOT
HETATM    1  N   UNL     1     -43.925  56.589 -55.826  1.00  0.00    -0.063 N 
HETATM    2  H   UNL     1     -44.371  55.704 -56.099  1.00  0.00     0.280 HD
HETATM    3  C   UNL     1     -44.541  57.046 -54.537  1.00  0.00     0.270 C 
ENDROOT
BRANCH   1   4
HETATM    4  C   UNL     1     -44.207  57.538 -56.995  1.00  0.00     0.277 C 
BRANCH   4   5
HETATM    5  C   UNL     1     -43.618  57.047 -58.277  1.00  0.00     0.012 A 
HETATM    6  C   UNL     1     -42.969  57.749 -59.360  1.00  0.00     0.071 A 
HETATM    7  N   UNL     1     -42.567  56.879 -60.299  1.00  0.00    -0.178 NA
HETATM    8  N   UNL     1     -43.010  55.688 -59.915  1.00  0.00    -0.288 N 
HETATM    9  H   UNL     1     -42.849  54.893 -60.530  1.00  0.00     0.188 HD
HETATM   10  C   UNL     1     -43.634  55.728 -58.707  1.00  0.00     0.120 A 
BRANCH   6  11
HETATM   11  C   UNL     1     -42.666  59.225 -59.656  1.00  0.00    -0.004 C 
HETATM   12  C   UNL     1     -41.777  59.806 -58.530  1.00  0.00     0.021 C 
HETATM   13  C   UNL     1     -43.986  60.031 -59.706  1.00  0.00     0.021 C 
HETATM   14  C   UNL     1     -41.929  59.475 -60.974  1.00  0.00     0.021 C 
ENDBRANCH   6  11
ENDBRANCH   4   5
ENDBRANCH   1   4
BRANCH   1  15
HETATM   15  C   UNL     1     -42.429  56.311 -55.636  1.00  0.00     0.337 C 
BRANCH  15  16
HETATM   16  C   UNL     1     -42.156  54.875 -55.190  1.00  0.00     0.248 C 
HETATM   17  N   UNL     1     -40.978  54.750 -54.470  1.00  0.00    -0.326 N 
HETATM   18  H   UNL     1     -40.289  55.493 -54.536  1.00  0.00     0.169 HD
HETATM   19  O   UNL     1     -42.989  54.001 -55.400  1.00  0.00    -0.271 OA
BRANCH  17  20
HETATM   20  C   UNL     1     -40.575  53.640 -53.693  1.00  0.00     0.040 A 
HETATM   21  C   UNL     1     -40.536  53.630 -52.298  1.00  0.00     0.072 A 
HETATM   22  C   UNL     1     -40.059  52.506 -51.622  1.00  0.00     0.121 A 
HETATM   23  F   UNL     1     -40.011  52.523 -50.284  1.00  0.00    -0.206 F 
HETATM   24  C   UNL     1     -39.623  51.382 -52.304  1.00  0.00     0.084 A 
HETATM   25  C   UNL     1     -39.676  51.391 -53.687  1.00  0.00     0.121 A 
HETATM   26  F   UNL     1     -39.257  50.321 -54.374  1.00  0.00    -0.206 F 
HETATM   27  C   UNL     1     -40.147  52.501 -54.386  1.00  0.00     0.072 A 
ENDBRANCH  17  20
ENDBRANCH  15  16
ENDBRANCH   1  15
TORSDOF 6
ENDMDL
MODEL 9
REMARK VINA RESULT:      -6.9      3.917      6.584
REMARK  6 active torsions:
REMARK  status: ('A' for Active; 'I' for Inactive)
REMARK    1  A    between atoms: C_2  and  C_3 
REMARK    2  A    between atoms: C_8  and  C_9 
REMARK    3  A    between atoms: C_9  and  N_10 
REMARK    4  A    between atoms: N_10  and  C_12 
REMARK    5  A    between atoms: C_12  and  C_13 
REMARK       I    between atoms: C_13  and  N_14 
REMARK    6  A    between atoms: N_14  and  C_15 
ROOT
HETATM    1  N   UNL     1     -41.429  58.409 -53.524  1.00  0.00    -0.063 N 
HETATM    2  H   UNL     1     -41.173  57.758 -54.278  1.00  0.00     0.280 HD
HETATM    3  C   UNL     1     -40.169  58.863 -52.850  1.00  0.00     0.270 C 
ENDROOT
BRANCH   1   4
HETATM    4  C   UNL     1     -42.340  57.589 -52.604  1.00  0.00     0.277 C 
BRANCH   4   5
HETATM    5  C   UNL     1     -43.101  56.541 -53.349  1.00  0.00     0.012 A 
HETATM    6  C   UNL     1     -42.714  55.232 -53.818  1.00  0.00     0.071 A 
HETATM    7  N   UNL     1     -43.754  54.628 -54.414  1.00  0.00    -0.178 NA
HETATM    8  N   UNL     1     -44.738  55.518 -54.432  1.00  0.00    -0.288 N 
HETATM    9  H   UNL     1     -45.608  55.265 -54.895  1.00  0.00     0.188 HD
HETATM   10  C   UNL     1     -44.408  56.675 -53.797  1.00  0.00     0.120 A 
BRANCH   6  11
HETATM   11  C   UNL     1     -41.410  54.422 -53.789  1.00  0.00    -0.004 C 
HETATM   12  C   UNL     1     -40.351  55.114 -54.680  1.00  0.00     0.021 C 
HETATM   13  C   UNL     1     -41.664  52.999 -54.341  1.00  0.00     0.021 C 
HETATM   14  C   UNL     1     -40.784  54.266 -52.400  1.00  0.00     0.021 C 
ENDBRANCH   6  11
ENDBRANCH   4   5
ENDBRANCH   1   4
BRANCH   1  15
HETATM   15  C   UNL     1     -42.151  59.597 -54.168  1.00  0.00     0.337 C 
BRANCH  15  16
HETATM   16  C   UNL     1     -42.273  59.454 -55.684  1.00  0.00     0.248 C 
HETATM   17  N   UNL     1     -41.952  58.182 -56.132  1.00  0.00    -0.326 N 
HETATM   18  H   UNL     1     -41.420  57.573 -55.518  1.00  0.00     0.169 HD
HETATM   19  O   UNL     1     -42.711  60.383 -56.352  1.00  0.00    -0.271 OA
BRANCH  17  20
HETATM   20  C   UNL     1     -42.217  57.644 -57.411  1.00  0.00     0.040 A 
HETATM   21  C   UNL     1     -41.852  58.255 -58.611  1.00  0.00     0.072 A 
HETATM   22  C   UNL     1     -42.219  57.677 -59.829  1.00  0.00     0.121 A 
HETATM   23  F   UNL     1     -41.876  58.289 -60.969  1.00  0.00    -0.206 F 
HETATM   24  C   UNL     1     -42.939  56.496 -59.881  1.00  0.00     0.084 A 
HETATM   25  C   UNL     1     -43.288  55.885 -58.688  1.00  0.00     0.121 A 
HETATM   26  F   UNL     1     -43.989  54.744 -58.706  1.00  0.00    -0.206 F 
HETATM   27  C   UNL     1     -42.935  56.442 -57.460  1.00  0.00     0.072 A 
ENDBRANCH  17  20
ENDBRANCH  15  16
ENDBRANCH   1  15
TORSDOF 6
ENDMDL
MODEL 10
REMARK VINA RESULT:      -6.8      1.696      3.390
REMARK  6 active torsions:
REMARK  status: ('A' for Active; 'I' for Inactive)
REMARK    1  A    between atoms: C_2  and  C_3 
REMARK    2  A    between atoms: C_8  and  C_9 
REMARK    3  A    between atoms: C_9  and  N_10 
REMARK    4  A    between atoms: N_10  and  C_12 
REMARK    5  A    between atoms: C_12  and  C_13 
REMARK       I    between atoms: C_13  and  N_14 
REMARK    6  A    between atoms: N_14  and  C_15 
ROOT
HETATM    1  N   UNL     1     -41.496  56.574 -53.815  1.00  0.00    -0.063 N 
HETATM    2  H   UNL     1     -40.751  56.165 -54.395  1.00  0.00     0.280 HD
HETATM    3  C   UNL     1     -42.814  56.264 -54.460  1.00  0.00     0.270 C 
ENDROOT
BRANCH   1   4
HETATM    4  C   UNL     1     -41.180  58.073 -53.788  1.00  0.00     0.277 C 
BRANCH   4   5
HETATM    5  C   UNL     1     -41.206  58.632 -52.402  1.00  0.00     0.012 A 
HETATM    6  C   UNL     1     -42.305  59.029 -51.554  1.00  0.00     0.071 A 
HETATM    7  N   UNL     1     -41.844  59.446 -50.364  1.00  0.00    -0.178 NA
HETATM    8  N   UNL     1     -40.520  59.425 -50.453  1.00  0.00    -0.288 N 
HETATM    9  H   UNL     1     -39.979  59.760 -49.659  1.00  0.00     0.188 HD
HETATM   10  C   UNL     1     -40.083  58.934 -51.644  1.00  0.00     0.120 A 
BRANCH   6  11
HETATM   11  C   UNL     1     -43.830  59.082 -51.725  1.00  0.00    -0.004 C 
HETATM   12  C   UNL     1     -44.429  57.678 -51.472  1.00  0.00     0.021 C 
HETATM   13  C   UNL     1     -44.181  59.515 -53.168  1.00  0.00     0.021 C 
HETATM   14  C   UNL     1     -44.548  60.046 -50.775  1.00  0.00     0.021 C 
ENDBRANCH   6  11
ENDBRANCH   4   5
ENDBRANCH   1   4
BRANCH   1  15
HETATM   15  C   UNL     1     -41.409  55.924 -52.430  1.00  0.00     0.337 C 
BRANCH  15  16
HETATM   16  C   UNL     1     -41.543  54.403 -52.491  1.00  0.00     0.248 C 
HETATM   17  N   UNL     1     -40.442  53.789 -53.067  1.00  0.00    -0.326 N 
HETATM   18  H   UNL     1     -39.813  54.352 -53.629  1.00  0.00     0.169 HD
HETATM   19  O   UNL     1     -42.508  53.854 -51.971  1.00  0.00    -0.271 OA
BRANCH  17  20
HETATM   20  C   UNL     1     -40.127  52.412 -53.029  1.00  0.00     0.040 A 
HETATM   21  C   UNL     1     -40.152  51.569 -54.141  1.00  0.00     0.072 A 
HETATM   22  C   UNL     1     -39.888  50.206 -53.990  1.00  0.00     0.121 A 
HETATM   23  F   UNL     1     -39.936  49.411 -55.065  1.00  0.00    -0.206 F 
HETATM   24  C   UNL     1     -39.594  49.659 -52.752  1.00  0.00     0.084 A 
HETATM   25  C   UNL     1     -39.556  50.500 -51.653  1.00  0.00     0.121 A 
HETATM   26  F   UNL     1     -39.279  50.000 -50.443  1.00  0.00    -0.206 F 
HETATM   27  C   UNL     1     -39.816  51.864 -51.778  1.00  0.00     0.072 A 
ENDBRANCH  17  20
ENDBRANCH  15  16
ENDBRANCH   1  15
TORSDOF 6
ENDMDL
