MODEL 1
REMARK VINA RESULT:      -7.8      0.000      0.000
REMARK  11 active torsions:
REMARK  status: ('A' for Active; 'I' for Inactive)
REMARK    1  A    between atoms: C_2  and  O_3 
REMARK    2  A    between atoms: C_2  and  C_4 
REMARK    3  A    between atoms: C_8  and  C_9 
REMARK    4  A    between atoms: C_12  and  C_13 
REMARK    5  A    between atoms: C_13  and  C_14 
REMARK    6  A    between atoms: C_14  and  N_15 
REMARK    7  A    between atoms: C_14  and  C_29 
REMARK       I    between atoms: N_15  and  C_16 
REMARK    8  A    between atoms: C_16  and  C_17 
REMARK    9  A    between atoms: C_21  and  O_22 
REMARK   10  A    between atoms: O_22  and  C_23 
REMARK   11  A    between atoms: C_29  and  N_30 
ROOT
HETATM    1  C   UNL     1     -42.957  60.866 -50.336  1.00  0.00     0.114 C 
ENDROOT
BRANCH   1   2
HETATM    2  C   UNL     1     -43.138  61.543 -51.715  1.00  0.00     0.065 C 
BRANCH   2   3
HETATM    3  C   UNL     1     -43.208  60.619 -52.901  1.00  0.00    -0.056 A 
HETATM    4  C   UNL     1     -44.380  59.920 -53.209  1.00  0.00     0.008 A 
HETATM    5  C   UNL     1     -44.444  59.121 -54.356  1.00  0.00     0.014 A 
HETATM    6  C   UNL     1     -43.346  59.009 -55.221  1.00  0.00    -0.006 A 
HETATM    7  C   UNL     1     -42.168  59.689 -54.891  1.00  0.00     0.014 A 
HETATM    8  C   UNL     1     -42.099  60.488 -53.747  1.00  0.00     0.008 A 
BRANCH   6   9
HETATM    9  C   UNL     1     -43.466  58.231 -56.447  1.00  0.00     0.085 A 
HETATM   10  C   UNL     1     -42.445  57.562 -57.088  1.00  0.00     0.130 A 
HETATM   11  N   UNL     1     -43.003  57.022 -58.218  1.00  0.00    -0.315 N 
HETATM   12  C   UNL     1     -44.347  57.379 -58.216  1.00  0.00     0.143 A 
HETATM   13  C   UNL     1     -42.402  56.265 -59.215  1.00  0.00     0.098 A 
HETATM   14  C   UNL     1     -45.165  56.935 -59.318  1.00  0.00     0.017 A 
HETATM   15  N   UNL     1     -44.642  58.105 -57.152  1.00  0.00    -0.228 NA
HETATM   16  C   UNL     1     -44.562  56.187 -60.276  1.00  0.00     0.015 A 
HETATM   17  C   UNL     1     -43.149  55.841 -60.244  1.00  0.00     0.018 A 
BRANCH  14  18
HETATM   18  C   UNL     1     -46.647  57.271 -59.392  1.00  0.00     0.150 C 
HETATM   19  C   UNL     1     -47.369  56.396 -60.412  1.00  0.00     0.044 C 
BRANCH  18  20
HETATM   20  O   UNL     1     -47.274  57.094 -58.119  1.00  0.00    -0.391 OA
HETATM   21  H   UNL     1     -47.088  56.184 -57.834  1.00  0.00     0.210 HD
ENDBRANCH  18  20
ENDBRANCH  14  18
ENDBRANCH   6   9
ENDBRANCH   2   3
ENDBRANCH   1   2
BRANCH   1  22
HETATM   22  N   UNL     1     -42.683  59.431 -50.599  1.00  0.00    -0.350 N 
HETATM   23  C   UNL     1     -41.462  58.802 -50.519  1.00  0.00     0.252 C 
HETATM   24  O   UNL     1     -40.454  59.385 -50.131  1.00  0.00    -0.268 OA
HETATM   25  H   UNL     1     -43.368  58.963 -51.186  1.00  0.00     0.163 HD
BRANCH  23  26
HETATM   26  C   UNL     1     -41.420  57.366 -50.920  1.00  0.00     0.033 A 
HETATM   27  C   UNL     1     -41.865  57.015 -52.197  1.00  0.00     0.043 A 
HETATM   28  C   UNL     1     -41.840  55.674 -52.601  1.00  0.00     0.068 A 
HETATM   29 CL   UNL     1     -42.415  55.306 -54.189  1.00  0.00    -0.081 Cl
HETATM   30  C   UNL     1     -41.375  54.667 -51.740  1.00  0.00     0.091 A 
HETATM   31  C   UNL     1     -40.899  55.032 -50.478  1.00  0.00     0.039 A 
HETATM   32  C   UNL     1     -40.917  56.372 -50.071  1.00  0.00     0.020 A 
BRANCH  30  33
HETATM   33  O   UNL     1     -41.394  53.386 -52.220  1.00  0.00    -0.345 OA
BRANCH  33  34
HETATM   34  C   UNL     1     -40.200  52.798 -52.750  1.00  0.00     0.121 C 
HETATM   35  C   UNL     1     -39.641  51.756 -51.785  1.00  0.00     0.040 C 
HETATM   36  C   UNL     1     -40.589  52.130 -54.067  1.00  0.00     0.040 C 
ENDBRANCH  33  34
ENDBRANCH  30  33
ENDBRANCH  23  26
ENDBRANCH   1  22
BRANCH   1  37
HETATM   37  C   UNL     1     -44.196  61.126 -49.432  1.00  0.00     0.254 C 
BRANCH  37  38
HETATM   38  N   UNL     1     -45.157  59.993 -49.470  1.00  0.00    -0.077 N 
HETATM   39  H   UNL     1     -45.200  59.609 -50.439  1.00  0.00     0.274 HD
HETATM   40  H   UNL     1     -44.879  59.207 -48.872  1.00  0.00     0.274 HD
HETATM   41  H   UNL     1     -46.113  60.272 -49.227  1.00  0.00     0.274 HD
ENDBRANCH  37  38
ENDBRANCH   1  37
TORSDOF 11
ENDMDL
MODEL 2
REMARK VINA RESULT:      -7.7      1.142      1.970
REMARK  11 active torsions:
REMARK  status: ('A' for Active; 'I' for Inactive)
REMARK    1  A    between atoms: C_2  and  O_3 
REMARK    2  A    between atoms: C_2  and  C_4 
REMARK    3  A    between atoms: C_8  and  C_9 
REMARK    4  A    between atoms: C_12  and  C_13 
REMARK    5  A    between atoms: C_13  and  C_14 
REMARK    6  A    between atoms: C_14  and  N_15 
REMARK    7  A    between atoms: C_14  and  C_29 
REMARK       I    between atoms: N_15  and  C_16 
REMARK    8  A    between atoms: C_16  and  C_17 
REMARK    9  A    between atoms: C_21  and  O_22 
REMARK   10  A    between atoms: O_22  and  C_23 
REMARK   11  A    between atoms: C_29  and  N_30 
ROOT
HETATM    1  C   UNL     1     -42.957  60.978 -50.260  1.00  0.00     0.114 C 
ENDROOT
BRANCH   1   2
HETATM    2  C   UNL     1     -43.109  61.728 -51.605  1.00  0.00     0.065 C 
BRANCH   2   3
HETATM    3  C   UNL     1     -43.506  60.887 -52.788  1.00  0.00    -0.056 A 
HETATM    4  C   UNL     1     -44.806  60.385 -52.918  1.00  0.00     0.008 A 
HETATM    5  C   UNL     1     -45.172  59.665 -54.062  1.00  0.00     0.014 A 
HETATM    6  C   UNL     1     -44.256  59.439 -55.098  1.00  0.00    -0.006 A 
HETATM    7  C   UNL     1     -42.950  59.919 -54.947  1.00  0.00     0.014 A 
HETATM    8  C   UNL     1     -42.579  60.639 -53.808  1.00  0.00     0.008 A 
BRANCH   6   9
HETATM    9  C   UNL     1     -44.686  58.752 -56.308  1.00  0.00     0.085 A 
HETATM   10  C   UNL     1     -45.965  58.739 -56.824  1.00  0.00     0.130 A 
HETATM   11  N   UNL     1     -45.913  57.930 -57.930  1.00  0.00    -0.315 N 
HETATM   12  C   UNL     1     -44.601  57.486 -58.047  1.00  0.00     0.143 A 
HETATM   13  C   UNL     1     -46.935  57.572 -58.800  1.00  0.00     0.098 A 
HETATM   14  C   UNL     1     -44.282  56.601 -59.140  1.00  0.00     0.017 A 
HETATM   15  N   UNL     1     -43.848  57.977 -57.078  1.00  0.00    -0.228 NA
HETATM   16  C   UNL     1     -45.292  56.272 -59.986  1.00  0.00     0.015 A 
HETATM   17  C   UNL     1     -46.655  56.753 -59.824  1.00  0.00     0.018 A 
BRANCH  14  18
HETATM   18  C   UNL     1     -42.870  56.075 -59.349  1.00  0.00     0.150 C 
HETATM   19  C   UNL     1     -42.003  57.083 -60.098  1.00  0.00     0.044 C 
BRANCH  18  20
HETATM   20  O   UNL     1     -42.245  55.781 -58.098  1.00  0.00    -0.391 OA
HETATM   21  H   UNL     1     -42.704  56.305 -57.420  1.00  0.00     0.210 HD
ENDBRANCH  18  20
ENDBRANCH  14  18
ENDBRANCH   6   9
ENDBRANCH   2   3
ENDBRANCH   1   2
BRANCH   1  22
HETATM   22  N   UNL     1     -42.688  59.557 -50.592  1.00  0.00    -0.350 N 
HETATM   23  C   UNL     1     -41.460  58.936 -50.605  1.00  0.00     0.252 C 
HETATM   24  O   UNL     1     -40.436  59.514 -50.253  1.00  0.00    -0.268 OA
HETATM   25  H   UNL     1     -43.402  59.105 -51.157  1.00  0.00     0.163 HD
BRANCH  23  26
HETATM   26  C   UNL     1     -41.431  57.518 -51.063  1.00  0.00     0.033 A 
HETATM   27  C   UNL     1     -41.848  57.225 -52.363  1.00  0.00     0.043 A 
HETATM   28  C   UNL     1     -41.835  55.901 -52.820  1.00  0.00     0.068 A 
HETATM   29 CL   UNL     1     -42.375  55.606 -54.435  1.00  0.00    -0.081 Cl
HETATM   30  C   UNL     1     -41.408  54.852 -51.989  1.00  0.00     0.091 A 
HETATM   31  C   UNL     1     -40.960  55.159 -50.702  1.00  0.00     0.039 A 
HETATM   32  C   UNL     1     -40.966  56.482 -50.242  1.00  0.00     0.020 A 
BRANCH  30  33
HETATM   33  O   UNL     1     -41.436  53.592 -52.520  1.00  0.00    -0.345 OA
BRANCH  33  34
HETATM   34  C   UNL     1     -40.222  52.970 -52.959  1.00  0.00     0.121 C 
HETATM   35  C   UNL     1     -39.777  51.901 -51.963  1.00  0.00     0.040 C 
HETATM   36  C   UNL     1     -40.525  52.326 -54.311  1.00  0.00     0.040 C 
ENDBRANCH  33  34
ENDBRANCH  30  33
ENDBRANCH  23  26
ENDBRANCH   1  22
BRANCH   1  37
HETATM   37  C   UNL     1     -44.210  61.201 -49.365  1.00  0.00     0.254 C 
BRANCH  37  38
HETATM   38  N   UNL     1     -45.112  60.020 -49.370  1.00  0.00    -0.077 N 
HETATM   39  H   UNL     1     -44.868  59.395 -48.571  1.00  0.00     0.274 HD
HETATM   40  H   UNL     1     -46.099  60.264 -49.240  1.00  0.00     0.274 HD
HETATM   41  H   UNL     1     -45.020  59.452 -50.219  1.00  0.00     0.274 HD
ENDBRANCH  37  38
ENDBRANCH   1  37
TORSDOF 11
ENDMDL
MODEL 3
REMARK VINA RESULT:      -7.6      2.693      5.735
REMARK  11 active torsions:
REMARK  status: ('A' for Active; 'I' for Inactive)
REMARK    1  A    between atoms: C_2  and  O_3 
REMARK    2  A    between atoms: C_2  and  C_4 
REMARK    3  A    between atoms: C_8  and  C_9 
REMARK    4  A    between atoms: C_12  and  C_13 
REMARK    5  A    between atoms: C_13  and  C_14 
REMARK    6  A    between atoms: C_14  and  N_15 
REMARK    7  A    between atoms: C_14  and  C_29 
REMARK       I    between atoms: N_15  and  C_16 
REMARK    8  A    between atoms: C_16  and  C_17 
REMARK    9  A    between atoms: C_21  and  O_22 
REMARK   10  A    between atoms: O_22  and  C_23 
REMARK   11  A    between atoms: C_29  and  N_30 
ROOT
HETATM    1  C   UNL     1     -41.140  52.868 -51.448  1.00  0.00     0.114 C 
ENDROOT
BRANCH   1   2
HETATM    2  C   UNL     1     -40.522  52.661 -52.851  1.00  0.00     0.065 C 
BRANCH   2   3
HETATM    3  C   UNL     1     -41.081  53.522 -53.952  1.00  0.00    -0.056 A 
HETATM    4  C   UNL     1     -42.340  53.264 -54.507  1.00  0.00     0.008 A 
HETATM    5  C   UNL     1     -42.869  54.119 -55.480  1.00  0.00     0.014 A 
HETATM    6  C   UNL     1     -42.161  55.249 -55.913  1.00  0.00    -0.006 A 
HETATM    7  C   UNL     1     -40.890  55.483 -55.375  1.00  0.00     0.014 A 
HETATM    8  C   UNL     1     -40.357  54.632 -54.402  1.00  0.00     0.008 A 
BRANCH   6   9
HETATM    9  C   UNL     1     -42.768  56.162 -56.872  1.00  0.00     0.085 A 
HETATM   10  C   UNL     1     -42.653  57.536 -56.872  1.00  0.00     0.130 A 
HETATM   11  N   UNL     1     -43.428  57.976 -57.912  1.00  0.00    -0.315 N 
HETATM   12  C   UNL     1     -43.982  56.850 -58.510  1.00  0.00     0.143 A 
HETATM   13  C   UNL     1     -43.667  59.278 -58.336  1.00  0.00     0.098 A 
HETATM   14  C   UNL     1     -44.858  57.046 -59.639  1.00  0.00     0.017 A 
HETATM   15  N   UNL     1     -43.591  55.748 -57.896  1.00  0.00    -0.228 NA
HETATM   16  C   UNL     1     -45.070  58.324 -60.045  1.00  0.00     0.015 A 
HETATM   17  C   UNL     1     -44.475  59.477 -59.387  1.00  0.00     0.018 A 
BRANCH  14  18
HETATM   18  C   UNL     1     -45.500  55.870 -60.360  1.00  0.00     0.150 C 
HETATM   19  C   UNL     1     -46.914  56.204 -60.825  1.00  0.00     0.044 C 
BRANCH  18  20
HETATM   20  O   UNL     1     -44.727  55.486 -61.499  1.00  0.00    -0.391 OA
HETATM   21  H   UNL     1     -44.010  54.914 -61.177  1.00  0.00     0.210 HD
ENDBRANCH  18  20
ENDBRANCH  14  18
ENDBRANCH   6   9
ENDBRANCH   2   3
ENDBRANCH   1   2
BRANCH   1  22
HETATM   22  N   UNL     1     -41.463  54.312 -51.333  1.00  0.00    -0.350 N 
HETATM   23  C   UNL     1     -42.718  54.865 -51.229  1.00  0.00     0.252 C 
HETATM   24  O   UNL     1     -43.728  54.174 -51.143  1.00  0.00    -0.268 OA
HETATM   25  H   UNL     1     -40.745  54.942 -51.681  1.00  0.00     0.163 HD
BRANCH  23  26
HETATM   26  C   UNL     1     -42.796  56.354 -51.218  1.00  0.00     0.033 A 
HETATM   27  C   UNL     1     -41.614  57.085 -51.076  1.00  0.00     0.043 A 
HETATM   28  C   UNL     1     -41.656  58.485 -51.059  1.00  0.00     0.068 A 
HETATM   29 CL   UNL     1     -40.159  59.328 -50.867  1.00  0.00    -0.081 Cl
HETATM   30  C   UNL     1     -42.873  59.175 -51.182  1.00  0.00     0.091 A 
HETATM   31  C   UNL     1     -44.045  58.436 -51.360  1.00  0.00     0.039 A 
HETATM   32  C   UNL     1     -44.008  57.036 -51.382  1.00  0.00     0.020 A 
BRANCH  30  33
HETATM   33  O   UNL     1     -42.816  60.541 -51.149  1.00  0.00    -0.345 OA
BRANCH  33  34
HETATM   34  C   UNL     1     -43.467  61.313 -52.165  1.00  0.00     0.121 C 
HETATM   35  C   UNL     1     -43.476  62.793 -51.789  1.00  0.00     0.040 C 
HETATM   36  C   UNL     1     -42.667  61.109 -53.450  1.00  0.00     0.040 C 
ENDBRANCH  33  34
ENDBRANCH  30  33
ENDBRANCH  23  26
ENDBRANCH   1  22
BRANCH   1  37
HETATM   37  C   UNL     1     -40.180  52.336 -50.344  1.00  0.00     0.254 C 
BRANCH  37  38
HETATM   38  N   UNL     1     -40.351  50.878 -50.118  1.00  0.00    -0.077 N 
HETATM   39  H   UNL     1     -39.434  50.398 -50.252  1.00  0.00     0.274 HD
HETATM   40  H   UNL     1     -40.647  50.648 -49.163  1.00  0.00     0.274 HD
HETATM   41  H   UNL     1     -41.003  50.445 -50.780  1.00  0.00     0.274 HD
ENDBRANCH  37  38
ENDBRANCH   1  37
TORSDOF 11
ENDMDL
MODEL 4
REMARK VINA RESULT:      -7.5      3.089      8.751
REMARK  11 active torsions:
REMARK  status: ('A' for Active; 'I' for Inactive)
REMARK    1  A    between atoms: C_2  and  O_3 
REMARK    2  A    between atoms: C_2  and  C_4 
REMARK    3  A    between atoms: C_8  and  C_9 
REMARK    4  A    between atoms: C_12  and  C_13 
REMARK    5  A    between atoms: C_13  and  C_14 
REMARK    6  A    between atoms: C_14  and  N_15 
REMARK    7  A    between atoms: C_14  and  C_29 
REMARK       I    between atoms: N_15  and  C_16 
REMARK    8  A    between atoms: C_16  and  C_17 
REMARK    9  A    between atoms: C_21  and  O_22 
REMARK   10  A    between atoms: O_22  and  C_23 
REMARK   11  A    between atoms: C_29  and  N_30 
ROOT
HETATM    1  C   UNL     1     -44.309  57.827 -54.439  1.00  0.00     0.114 C 
ENDROOT
BRANCH   1   2
HETATM    2  C   UNL     1     -43.455  59.035 -53.989  1.00  0.00     0.065 C 
BRANCH   2   3
HETATM    3  C   UNL     1     -43.967  59.798 -52.796  1.00  0.00    -0.056 A 
HETATM    4  C   UNL     1     -45.339  59.928 -52.552  1.00  0.00     0.008 A 
HETATM    5  C   UNL     1     -45.790  60.581 -51.399  1.00  0.00     0.014 A 
HETATM    6  C   UNL     1     -44.887  61.109 -50.466  1.00  0.00    -0.006 A 
HETATM    7  C   UNL     1     -43.517  61.000 -50.732  1.00  0.00     0.014 A 
HETATM    8  C   UNL     1     -43.061  60.348 -51.882  1.00  0.00     0.008 A 
BRANCH   6   9
HETATM    9  C   UNL     1     -45.385  61.716 -49.240  1.00  0.00     0.085 A 
HETATM   10  C   UNL     1     -46.432  62.608 -49.141  1.00  0.00     0.130 A 
HETATM   11  N   UNL     1     -46.508  62.950 -47.816  1.00  0.00    -0.315 N 
HETATM   12  C   UNL     1     -45.506  62.247 -47.157  1.00  0.00     0.143 A 
HETATM   13  C   UNL     1     -47.382  63.829 -47.187  1.00  0.00     0.098 A 
HETATM   14  C   UNL     1     -45.367  62.441 -45.735  1.00  0.00     0.017 A 
HETATM   15  N   UNL     1     -44.823  61.495 -48.002  1.00  0.00    -0.228 NA
HETATM   16  C   UNL     1     -46.238  63.294 -45.138  1.00  0.00     0.015 A 
HETATM   17  C   UNL     1     -47.269  64.017 -45.865  1.00  0.00     0.018 A 
BRANCH  14  18
HETATM   18  C   UNL     1     -44.305  61.704 -44.933  1.00  0.00     0.150 C 
HETATM   19  C   UNL     1     -44.158  62.287 -43.530  1.00  0.00     0.044 C 
BRANCH  18  20
HETATM   20  O   UNL     1     -44.625  60.316 -44.816  1.00  0.00    -0.391 OA
HETATM   21  H   UNL     1     -44.268  59.874 -45.604  1.00  0.00     0.210 HD
ENDBRANCH  18  20
ENDBRANCH  14  18
ENDBRANCH   6   9
ENDBRANCH   2   3
ENDBRANCH   1   2
BRANCH   1  22
HETATM   22  N   UNL     1     -43.468  56.618 -54.257  1.00  0.00    -0.350 N 
HETATM   23  C   UNL     1     -43.205  55.974 -53.070  1.00  0.00     0.252 C 
HETATM   24  O   UNL     1     -43.730  56.315 -52.015  1.00  0.00    -0.268 OA
HETATM   25  H   UNL     1     -42.786  56.454 -54.993  1.00  0.00     0.163 HD
BRANCH  23  26
HETATM   26  C   UNL     1     -42.252  54.828 -53.126  1.00  0.00     0.033 A 
HETATM   27  C   UNL     1     -41.738  54.326 -51.928  1.00  0.00     0.043 A 
HETATM   28  C   UNL     1     -40.839  53.253 -51.949  1.00  0.00     0.068 A 
HETATM   29 CL   UNL     1     -40.232  52.686 -50.433  1.00  0.00    -0.081 Cl
HETATM   30  C   UNL     1     -40.437  52.668 -53.162  1.00  0.00     0.091 A 
HETATM   31  C   UNL     1     -40.983  53.154 -54.352  1.00  0.00     0.039 A 
HETATM   32  C   UNL     1     -41.887  54.224 -54.336  1.00  0.00     0.020 A 
BRANCH  30  33
HETATM   33  O   UNL     1     -39.551  51.629 -53.084  1.00  0.00    -0.345 OA
BRANCH  33  34
HETATM   34  C   UNL     1     -39.997  50.285 -53.298  1.00  0.00     0.121 C 
HETATM   35  C   UNL     1     -39.417  49.728 -54.596  1.00  0.00     0.040 C 
HETATM   36  C   UNL     1     -39.497  49.464 -52.111  1.00  0.00     0.040 C 
ENDBRANCH  33  34
ENDBRANCH  30  33
ENDBRANCH  23  26
ENDBRANCH   1  22
BRANCH   1  37
HETATM   37  C   UNL     1     -44.827  58.034 -55.892  1.00  0.00     0.254 C 
BRANCH  37  38
HETATM   38  N   UNL     1     -46.276  57.732 -56.012  1.00  0.00    -0.077 N 
HETATM   39  H   UNL     1     -46.824  58.456 -55.498  1.00  0.00     0.274 HD
HETATM   40  H   UNL     1     -46.617  57.761 -56.979  1.00  0.00     0.274 HD
HETATM   41  H   UNL     1     -46.532  56.829 -55.598  1.00  0.00     0.274 HD
ENDBRANCH  37  38
ENDBRANCH   1  37
TORSDOF 11
ENDMDL
MODEL 5
REMARK VINA RESULT:      -7.4      2.760      5.669
REMARK  11 active torsions:
REMARK  status: ('A' for Active; 'I' for Inactive)
REMARK    1  A    between atoms: C_2  and  O_3 
REMARK    2  A    between atoms: C_2  and  C_4 
REMARK    3  A    between atoms: C_8  and  C_9 
REMARK    4  A    between atoms: C_12  and  C_13 
REMARK    5  A    between atoms: C_13  and  C_14 
REMARK    6  A    between atoms: C_14  and  N_15 
REMARK    7  A    between atoms: C_14  and  C_29 
REMARK       I    between atoms: N_15  and  C_16 
REMARK    8  A    between atoms: C_16  and  C_17 
REMARK    9  A    between atoms: C_21  and  O_22 
REMARK   10  A    between atoms: O_22  and  C_23 
REMARK   11  A    between atoms: C_29  and  N_30 
ROOT
HETATM    1  C   UNL     1     -42.050  54.583 -49.957  1.00  0.00     0.114 C 
ENDROOT
BRANCH   1   2
HETATM    2  C   UNL     1     -41.629  53.643 -51.111  1.00  0.00     0.065 C 
BRANCH   2   3
HETATM    3  C   UNL     1     -41.856  54.167 -52.504  1.00  0.00    -0.056 A 
HETATM    4  C   UNL     1     -43.097  54.034 -53.137  1.00  0.00     0.008 A 
HETATM    5  C   UNL     1     -43.305  54.590 -54.404  1.00  0.00     0.014 A 
HETATM    6  C   UNL     1     -42.286  55.295 -55.061  1.00  0.00    -0.006 A 
HETATM    7  C   UNL     1     -41.039  55.398 -54.433  1.00  0.00     0.014 A 
HETATM    8  C   UNL     1     -40.826  54.845 -53.168  1.00  0.00     0.008 A 
BRANCH   6   9
HETATM    9  C   UNL     1     -42.554  55.927 -56.345  1.00  0.00     0.085 A 
HETATM   10  C   UNL     1     -42.109  57.169 -56.748  1.00  0.00     0.130 A 
HETATM   11  N   UNL     1     -42.646  57.372 -57.994  1.00  0.00    -0.315 N 
HETATM   12  C   UNL     1     -43.392  56.241 -58.302  1.00  0.00     0.143 A 
HETATM   13  C   UNL     1     -42.518  58.471 -58.833  1.00  0.00     0.098 A 
HETATM   14  C   UNL     1     -44.075  56.208 -59.573  1.00  0.00     0.017 A 
HETATM   15  N   UNL     1     -43.344  55.359 -57.320  1.00  0.00    -0.228 NA
HETATM   16  C   UNL     1     -43.929  57.287 -60.383  1.00  0.00     0.015 A 
HETATM   17  C   UNL     1     -43.143  58.455 -60.019  1.00  0.00     0.018 A 
BRANCH  14  18
HETATM   18  C   UNL     1     -44.906  55.006 -59.996  1.00  0.00     0.150 C 
HETATM   19  C   UNL     1     -45.048  54.930 -61.514  1.00  0.00     0.044 C 
BRANCH  18  20
HETATM   20  O   UNL     1     -44.315  53.789 -59.535  1.00  0.00    -0.391 OA
HETATM   21  H   UNL     1     -44.898  53.433 -58.844  1.00  0.00     0.210 HD
ENDBRANCH  18  20
ENDBRANCH  14  18
ENDBRANCH   6   9
ENDBRANCH   2   3
ENDBRANCH   1   2
BRANCH   1  22
HETATM   22  N   UNL     1     -42.426  55.878 -50.576  1.00  0.00    -0.350 N 
HETATM   23  C   UNL     1     -43.701  56.360 -50.760  1.00  0.00     0.252 C 
HETATM   24  O   UNL     1     -44.688  55.763 -50.340  1.00  0.00    -0.268 OA
HETATM   25  H   UNL     1     -41.724  56.279 -51.192  1.00  0.00     0.163 HD
BRANCH  23  26
HETATM   26  C   UNL     1     -43.831  57.652 -51.493  1.00  0.00     0.033 A 
HETATM   27  C   UNL     1     -44.969  58.433 -51.277  1.00  0.00     0.043 A 
HETATM   28  C   UNL     1     -45.120  59.650 -51.953  1.00  0.00     0.068 A 
HETATM   29 CL   UNL     1     -46.556  60.562 -51.649  1.00  0.00    -0.081 Cl
HETATM   30  C   UNL     1     -44.142  60.104 -52.854  1.00  0.00     0.091 A 
HETATM   31  C   UNL     1     -42.992  59.333 -53.037  1.00  0.00     0.039 A 
HETATM   32  C   UNL     1     -42.834  58.118 -52.359  1.00  0.00     0.020 A 
BRANCH  30  33
HETATM   33  O   UNL     1     -44.379  61.301 -53.472  1.00  0.00    -0.345 OA
BRANCH  33  34
HETATM   34  C   UNL     1     -43.348  62.293 -53.537  1.00  0.00     0.121 C 
HETATM   35  C   UNL     1     -43.503  63.144 -54.795  1.00  0.00     0.040 C 
HETATM   36  C   UNL     1     -43.504  63.169 -52.296  1.00  0.00     0.040 C 
ENDBRANCH  33  34
ENDBRANCH  30  33
ENDBRANCH  23  26
ENDBRANCH   1  22
BRANCH   1  37
HETATM   37  C   UNL     1     -40.917  54.686 -48.894  1.00  0.00     0.254 C 
BRANCH  37  38
HETATM   38  N   UNL     1     -39.598  54.289 -49.451  1.00  0.00    -0.077 N 
HETATM   39  H   UNL     1     -39.740  53.812 -50.368  1.00  0.00     0.274 HD
HETATM   40  H   UNL     1     -38.985  55.088 -49.647  1.00  0.00     0.274 HD
HETATM   41  H   UNL     1     -39.096  53.625 -48.854  1.00  0.00     0.274 HD
ENDBRANCH  37  38
ENDBRANCH   1  37
TORSDOF 11
ENDMDL
MODEL 6
REMARK VINA RESULT:      -7.4      2.660      7.970
REMARK  11 active torsions:
REMARK  status: ('A' for Active; 'I' for Inactive)
REMARK    1  A    between atoms: C_2  and  O_3 
REMARK    2  A    between atoms: C_2  and  C_4 
REMARK    3  A    between atoms: C_8  and  C_9 
REMARK    4  A    between atoms: C_12  and  C_13 
REMARK    5  A    between atoms: C_13  and  C_14 
REMARK    6  A    between atoms: C_14  and  N_15 
REMARK    7  A    between atoms: C_14  and  C_29 
REMARK       I    between atoms: N_15  and  C_16 
REMARK    8  A    between atoms: C_16  and  C_17 
REMARK    9  A    between atoms: C_21  and  O_22 
REMARK   10  A    between atoms: O_22  and  C_23 
REMARK   11  A    between atoms: C_29  and  N_30 
ROOT
HETATM    1  C   UNL     1     -42.971  57.974 -55.713  1.00  0.00     0.114 C 
ENDROOT
BRANCH   1   2
HETATM    2  C   UNL     1     -42.091  59.159 -55.250  1.00  0.00     0.065 C 
BRANCH   2   3
HETATM    3  C   UNL     1     -42.543  59.870 -54.003  1.00  0.00    -0.056 A 
HETATM    4  C   UNL     1     -43.730  60.610 -53.979  1.00  0.00     0.008 A 
HETATM    5  C   UNL     1     -44.167  61.204 -52.790  1.00  0.00     0.014 A 
HETATM    6  C   UNL     1     -43.436  61.066 -51.601  1.00  0.00    -0.006 A 
HETATM    7  C   UNL     1     -42.235  60.348 -51.640  1.00  0.00     0.014 A 
HETATM    8  C   UNL     1     -41.795  59.752 -52.825  1.00  0.00     0.008 A 
BRANCH   6   9
HETATM    9  C   UNL     1     -43.954  61.631 -50.363  1.00  0.00     0.085 A 
HETATM   10  C   UNL     1     -43.896  62.956 -49.987  1.00  0.00     0.130 A 
HETATM   11  N   UNL     1     -44.451  63.015 -48.735  1.00  0.00    -0.315 N 
HETATM   12  C   UNL     1     -44.831  61.721 -48.400  1.00  0.00     0.143 A 
HETATM   13  C   UNL     1     -44.622  64.115 -47.904  1.00  0.00     0.098 A 
HETATM   14  C   UNL     1     -45.441  61.509 -47.110  1.00  0.00     0.017 A 
HETATM   15  N   UNL     1     -44.541  60.875 -49.372  1.00  0.00    -0.228 NA
HETATM   16  C   UNL     1     -45.609  62.598 -46.317  1.00  0.00     0.015 A 
HETATM   17  C   UNL     1     -45.191  63.936 -46.704  1.00  0.00     0.018 A 
BRANCH  14  18
HETATM   18  C   UNL     1     -45.896  60.128 -46.664  1.00  0.00     0.150 C 
HETATM   19  C   UNL     1     -47.117  60.208 -45.752  1.00  0.00     0.044 C 
BRANCH  18  20
HETATM   20  O   UNL     1     -46.226  59.311 -47.791  1.00  0.00    -0.391 OA
HETATM   21  H   UNL     1     -47.122  58.966 -47.640  1.00  0.00     0.210 HD
ENDBRANCH  18  20
ENDBRANCH  14  18
ENDBRANCH   6   9
ENDBRANCH   2   3
ENDBRANCH   1   2
BRANCH   1  22
HETATM   22  N   UNL     1     -42.324  56.739 -55.208  1.00  0.00    -0.350 N 
HETATM   23  C   UNL     1     -42.658  56.045 -54.068  1.00  0.00     0.252 C 
HETATM   24  O   UNL     1     -43.618  56.362 -53.372  1.00  0.00    -0.268 OA
HETATM   25  H   UNL     1     -41.376  56.583 -55.541  1.00  0.00     0.163 HD
BRANCH  23  26
HETATM   26  C   UNL     1     -41.799  54.878 -53.716  1.00  0.00     0.033 A 
HETATM   27  C   UNL     1     -41.334  54.759 -52.405  1.00  0.00     0.043 A 
HETATM   28  C   UNL     1     -40.523  53.676 -52.046  1.00  0.00     0.068 A 
HETATM   29 CL   UNL     1     -39.973  53.595 -50.409  1.00  0.00    -0.081 Cl
HETATM   30  C   UNL     1     -40.162  52.698 -52.988  1.00  0.00     0.091 A 
HETATM   31  C   UNL     1     -40.660  52.806 -54.288  1.00  0.00     0.039 A 
HETATM   32  C   UNL     1     -41.476  53.886 -54.651  1.00  0.00     0.020 A 
BRANCH  30  33
HETATM   33  O   UNL     1     -39.361  51.681 -52.547  1.00  0.00    -0.345 OA
BRANCH  33  34
HETATM   34  C   UNL     1     -39.883  50.351 -52.437  1.00  0.00     0.121 C 
HETATM   35  C   UNL     1     -39.298  49.454 -53.525  1.00  0.00     0.040 C 
HETATM   36  C   UNL     1     -39.473  49.832 -51.061  1.00  0.00     0.040 C 
ENDBRANCH  33  34
ENDBRANCH  30  33
ENDBRANCH  23  26
ENDBRANCH   1  22
BRANCH   1  37
HETATM   37  C   UNL     1     -43.168  58.010 -57.257  1.00  0.00     0.254 C 
BRANCH  37  38
HETATM   38  N   UNL     1     -42.491  56.869 -57.927  1.00  0.00    -0.077 N 
HETATM   39  H   UNL     1     -43.164  56.399 -58.572  1.00  0.00     0.274 HD
HETATM   40  H   UNL     1     -41.700  57.157 -58.514  1.00  0.00     0.274 HD
HETATM   41  H   UNL     1     -42.172  56.152 -57.269  1.00  0.00     0.274 HD
ENDBRANCH  37  38
ENDBRANCH   1  37
TORSDOF 11
ENDMDL
MODEL 7
REMARK VINA RESULT:      -7.1      2.720      5.849
REMARK  11 active torsions:
REMARK  status: ('A' for Active; 'I' for Inactive)
REMARK    1  A    between atoms: C_2  and  O_3 
REMARK    2  A    between atoms: C_2  and  C_4 
REMARK    3  A    between atoms: C_8  and  C_9 
REMARK    4  A    between atoms: C_12  and  C_13 
REMARK    5  A    between atoms: C_13  and  C_14 
REMARK    6  A    between atoms: C_14  and  N_15 
REMARK    7  A    between atoms: C_14  and  C_29 
REMARK       I    between atoms: N_15  and  C_16 
REMARK    8  A    between atoms: C_16  and  C_17 
REMARK    9  A    between atoms: C_21  and  O_22 
REMARK   10  A    between atoms: O_22  and  C_23 
REMARK   11  A    between atoms: C_29  and  N_30 
ROOT
HETATM    1  C   UNL     1     -41.251  53.193 -51.147  1.00  0.00     0.114 C 
ENDROOT
BRANCH   1   2
HETATM    2  C   UNL     1     -40.626  52.891 -52.529  1.00  0.00     0.065 C 
BRANCH   2   3
HETATM    3  C   UNL     1     -41.154  53.699 -53.683  1.00  0.00    -0.056 A 
HETATM    4  C   UNL     1     -42.338  53.341 -54.339  1.00  0.00     0.008 A 
HETATM    5  C   UNL     1     -42.848  54.146 -55.363  1.00  0.00     0.014 A 
HETATM    6  C   UNL     1     -42.194  55.325 -55.749  1.00  0.00    -0.006 A 
HETATM    7  C   UNL     1     -40.996  55.661 -55.108  1.00  0.00     0.014 A 
HETATM    8  C   UNL     1     -40.483  54.860 -54.084  1.00  0.00     0.008 A 
BRANCH   6   9
HETATM    9  C   UNL     1     -42.787  56.183 -56.766  1.00  0.00     0.085 A 
HETATM   10  C   UNL     1     -43.242  55.780 -58.004  1.00  0.00     0.130 A 
HETATM   11  N   UNL     1     -43.662  56.921 -58.637  1.00  0.00    -0.315 N 
HETATM   12  C   UNL     1     -43.451  57.975 -57.756  1.00  0.00     0.143 A 
HETATM   13  C   UNL     1     -44.194  57.070 -59.912  1.00  0.00     0.098 A 
HETATM   14  C   UNL     1     -43.808  59.303 -58.192  1.00  0.00     0.017 A 
HETATM   15  N   UNL     1     -42.928  57.545 -56.621  1.00  0.00    -0.228 NA
HETATM   16  C   UNL     1     -44.336  59.425 -59.437  1.00  0.00     0.015 A 
HETATM   17  C   UNL     1     -44.534  58.297 -60.332  1.00  0.00     0.018 A 
BRANCH  14  18
HETATM   18  C   UNL     1     -43.620  60.512 -57.289  1.00  0.00     0.150 C 
HETATM   19  C   UNL     1     -44.750  60.632 -56.271  1.00  0.00     0.044 C 
BRANCH  18  20
HETATM   20  O   UNL     1     -42.380  60.433 -56.582  1.00  0.00    -0.391 OA
HETATM   21  H   UNL     1     -42.514  59.820 -55.840  1.00  0.00     0.210 HD
ENDBRANCH  18  20
ENDBRANCH  14  18
ENDBRANCH   6   9
ENDBRANCH   2   3
ENDBRANCH   1   2
BRANCH   1  22
HETATM   22  N   UNL     1     -41.816  54.562 -51.224  1.00  0.00    -0.350 N 
HETATM   23  C   UNL     1     -43.145  54.908 -51.127  1.00  0.00     0.252 C 
HETATM   24  O   UNL     1     -44.015  54.080 -50.881  1.00  0.00    -0.268 OA
HETATM   25  H   UNL     1     -41.231  55.242 -51.702  1.00  0.00     0.163 HD
BRANCH  23  26
HETATM   26  C   UNL     1     -43.479  56.347 -51.329  1.00  0.00     0.033 A 
HETATM   27  C   UNL     1     -42.531  57.177 -51.933  1.00  0.00     0.043 A 
HETATM   28  C   UNL     1     -42.816  58.533 -52.133  1.00  0.00     0.068 A 
HETATM   29 CL   UNL     1     -41.595  59.506 -52.875  1.00  0.00    -0.081 Cl
HETATM   30  C   UNL     1     -44.046  59.082 -51.733  1.00  0.00     0.091 A 
HETATM   31  C   UNL     1     -45.001  58.237 -51.162  1.00  0.00     0.039 A 
HETATM   32  C   UNL     1     -44.723  56.879 -50.964  1.00  0.00     0.020 A 
BRANCH  30  33
HETATM   33  O   UNL     1     -44.232  60.417 -51.964  1.00  0.00    -0.345 OA
BRANCH  33  34
HETATM   34  C   UNL     1     -44.503  61.305 -50.872  1.00  0.00     0.121 C 
HETATM   35  C   UNL     1     -43.201  61.773 -50.227  1.00  0.00     0.040 C 
HETATM   36  C   UNL     1     -45.252  62.500 -51.457  1.00  0.00     0.040 C 
ENDBRANCH  33  34
ENDBRANCH  30  33
ENDBRANCH  23  26
ENDBRANCH   1  22
BRANCH   1  37
HETATM   37  C   UNL     1     -40.200  52.996 -50.016  1.00  0.00     0.254 C 
BRANCH  37  38
HETATM   38  N   UNL     1     -39.569  54.281 -49.618  1.00  0.00    -0.077 N 
HETATM   39  H   UNL     1     -39.727  54.990 -50.366  1.00  0.00     0.274 HD
HETATM   40  H   UNL     1     -39.973  54.683 -48.765  1.00  0.00     0.274 HD
HETATM   41  H   UNL     1     -38.553  54.207 -49.499  1.00  0.00     0.274 HD
ENDBRANCH  37  38
ENDBRANCH   1  37
TORSDOF 11
ENDMDL
MODEL 8
REMARK VINA RESULT:      -7.1      2.531      8.575
REMARK  11 active torsions:
REMARK  status: ('A' for Active; 'I' for Inactive)
REMARK    1  A    between atoms: C_2  and  O_3 
REMARK    2  A    between atoms: C_2  and  C_4 
REMARK    3  A    between atoms: C_8  and  C_9 
REMARK    4  A    between atoms: C_12  and  C_13 
REMARK    5  A    between atoms: C_13  and  C_14 
REMARK    6  A    between atoms: C_14  and  N_15 
REMARK    7  A    between atoms: C_14  and  C_29 
REMARK       I    between atoms: N_15  and  C_16 
REMARK    8  A    between atoms: C_16  and  C_17 
REMARK    9  A    between atoms: C_21  and  O_22 
REMARK   10  A    between atoms: O_22  and  C_23 
REMARK   11  A    between atoms: C_29  and  N_30 
ROOT
HETATM    1  C   UNL     1     -44.314  57.194 -58.909  1.00  0.00     0.114 C 
ENDROOT
BRANCH   1   2
HETATM    2  C   UNL     1     -43.117  56.248 -58.655  1.00  0.00     0.065 C 
BRANCH   2   3
HETATM    3  C   UNL     1     -42.862  55.877 -57.219  1.00  0.00    -0.056 A 
HETATM    4  C   UNL     1     -43.313  54.663 -56.691  1.00  0.00     0.008 A 
HETATM    5  C   UNL     1     -43.003  54.308 -55.373  1.00  0.00     0.014 A 
HETATM    6  C   UNL     1     -42.232  55.151 -54.560  1.00  0.00    -0.006 A 
HETATM    7  C   UNL     1     -41.809  56.377 -55.087  1.00  0.00     0.014 A 
HETATM    8  C   UNL     1     -42.116  56.736 -56.402  1.00  0.00     0.008 A 
BRANCH   6   9
HETATM    9  C   UNL     1     -41.862  54.723 -53.218  1.00  0.00     0.085 A 
HETATM   10  C   UNL     1     -42.163  55.379 -52.043  1.00  0.00     0.130 A 
HETATM   11  N   UNL     1     -41.572  54.648 -51.045  1.00  0.00    -0.315 N 
HETATM   12  C   UNL     1     -40.938  53.570 -51.653  1.00  0.00     0.143 A 
HETATM   13  C   UNL     1     -41.560  54.885 -49.676  1.00  0.00     0.098 A 
HETATM   14  C   UNL     1     -40.225  52.642 -50.809  1.00  0.00     0.017 A 
HETATM   15  N   UNL     1     -41.107  53.599 -52.963  1.00  0.00    -0.228 NA
HETATM   16  C   UNL     1     -40.235  52.886 -49.474  1.00  0.00     0.015 A 
HETATM   17  C   UNL     1     -40.906  54.030 -48.878  1.00  0.00     0.018 A 
BRANCH  14  18
HETATM   18  C   UNL     1     -39.511  51.431 -51.388  1.00  0.00     0.150 C 
HETATM   19  C   UNL     1     -39.858  50.157 -50.622  1.00  0.00     0.044 C 
BRANCH  18  20
HETATM   20  O   UNL     1     -39.860  51.242 -52.762  1.00  0.00    -0.391 OA
HETATM   21  H   UNL     1     -40.818  51.384 -52.835  1.00  0.00     0.210 HD
ENDBRANCH  18  20
ENDBRANCH  14  18
ENDBRANCH   6   9
ENDBRANCH   2   3
ENDBRANCH   1   2
BRANCH   1  22
HETATM   22  N   UNL     1     -44.657  57.808 -57.603  1.00  0.00    -0.350 N 
HETATM   23  C   UNL     1     -44.813  59.150 -57.343  1.00  0.00     0.252 C 
HETATM   24  O   UNL     1     -44.752  59.995 -58.230  1.00  0.00    -0.268 OA
HETATM   25  H   UNL     1     -44.442  57.237 -56.790  1.00  0.00     0.163 HD
BRANCH  23  26
HETATM   26  C   UNL     1     -45.069  59.533 -55.925  1.00  0.00     0.033 A 
HETATM   27  C   UNL     1     -44.819  58.594 -54.922  1.00  0.00     0.043 A 
HETATM   28  C   UNL     1     -45.052  58.924 -53.581  1.00  0.00     0.068 A 
HETATM   29 CL   UNL     1     -44.734  57.711 -52.391  1.00  0.00    -0.081 Cl
HETATM   30  C   UNL     1     -45.539  60.191 -53.221  1.00  0.00     0.091 A 
HETATM   31  C   UNL     1     -45.752  61.136 -54.227  1.00  0.00     0.039 A 
HETATM   32  C   UNL     1     -45.516  60.813 -55.570  1.00  0.00     0.020 A 
BRANCH  30  33
HETATM   33  O   UNL     1     -45.742  60.420 -51.888  1.00  0.00    -0.345 OA
BRANCH  33  34
HETATM   34  C   UNL     1     -44.966  61.411 -51.202  1.00  0.00     0.121 C 
HETATM   35  C   UNL     1     -45.864  62.279 -50.324  1.00  0.00     0.040 C 
HETATM   36  C   UNL     1     -43.963  60.656 -50.333  1.00  0.00     0.040 C 
ENDBRANCH  33  34
ENDBRANCH  30  33
ENDBRANCH  23  26
ENDBRANCH   1  22
BRANCH   1  37
HETATM   37  C   UNL     1     -45.487  56.425 -59.584  1.00  0.00     0.254 C 
BRANCH  37  38
HETATM   38  N   UNL     1     -46.798  56.770 -58.975  1.00  0.00    -0.077 N 
HETATM   39  H   UNL     1     -46.922  56.227 -58.092  1.00  0.00     0.274 HD
HETATM   40  H   UNL     1     -46.872  57.757 -58.706  1.00  0.00     0.274 HD
HETATM   41  H   UNL     1     -47.593  56.530 -59.576  1.00  0.00     0.274 HD
ENDBRANCH  37  38
ENDBRANCH   1  37
TORSDOF 11
ENDMDL
MODEL 9
REMARK VINA RESULT:      -7.0      2.846      7.891
REMARK  11 active torsions:
REMARK  status: ('A' for Active; 'I' for Inactive)
REMARK    1  A    between atoms: C_2  and  O_3 
REMARK    2  A    between atoms: C_2  and  C_4 
REMARK    3  A    between atoms: C_8  and  C_9 
REMARK    4  A    between atoms: C_12  and  C_13 
REMARK    5  A    between atoms: C_13  and  C_14 
REMARK    6  A    between atoms: C_14  and  N_15 
REMARK    7  A    between atoms: C_14  and  C_29 
REMARK       I    between atoms: N_15  and  C_16 
REMARK    8  A    between atoms: C_16  and  C_17 
REMARK    9  A    between atoms: C_21  and  O_22 
REMARK   10  A    between atoms: O_22  and  C_23 
REMARK   11  A    between atoms: C_29  and  N_30 
ROOT
HETATM    1  C   UNL     1     -45.224  59.140 -57.510  1.00  0.00     0.114 C 
ENDROOT
BRANCH   1   2
HETATM    2  C   UNL     1     -43.715  58.842 -57.681  1.00  0.00     0.065 C 
BRANCH   2   3
HETATM    3  C   UNL     1     -43.110  57.902 -56.673  1.00  0.00    -0.056 A 
HETATM    4  C   UNL     1     -42.441  58.384 -55.542  1.00  0.00     0.008 A 
HETATM    5  C   UNL     1     -41.947  57.492 -54.583  1.00  0.00     0.014 A 
HETATM    6  C   UNL     1     -42.116  56.108 -54.727  1.00  0.00    -0.006 A 
HETATM    7  C   UNL     1     -42.760  55.633 -55.876  1.00  0.00     0.014 A 
HETATM    8  C   UNL     1     -43.256  56.519 -56.836  1.00  0.00     0.008 A 
BRANCH   6   9
HETATM    9  C   UNL     1     -41.658  55.209 -53.676  1.00  0.00     0.085 A 
HETATM   10  C   UNL     1     -41.694  55.459 -52.320  1.00  0.00     0.130 A 
HETATM   11  N   UNL     1     -41.115  54.369 -51.724  1.00  0.00    -0.315 N 
HETATM   12  C   UNL     1     -40.755  53.494 -52.742  1.00  0.00     0.143 A 
HETATM   13  C   UNL     1     -40.892  54.125 -50.375  1.00  0.00     0.098 A 
HETATM   14  C   UNL     1     -40.110  52.257 -52.374  1.00  0.00     0.017 A 
HETATM   15  N   UNL     1     -41.079  53.985 -53.925  1.00  0.00    -0.228 NA
HETATM   16  C   UNL     1     -39.910  52.033 -51.050  1.00  0.00     0.015 A 
HETATM   17  C   UNL     1     -40.297  52.978 -50.015  1.00  0.00     0.018 A 
BRANCH  14  18
HETATM   18  C   UNL     1     -39.690  51.238 -53.422  1.00  0.00     0.150 C 
HETATM   19  C   UNL     1     -39.559  49.840 -52.823  1.00  0.00     0.044 C 
BRANCH  18  20
HETATM   20  O   UNL     1     -40.638  51.186 -54.491  1.00  0.00    -0.391 OA
HETATM   21  H   UNL     1     -40.198  51.544 -55.280  1.00  0.00     0.210 HD
ENDBRANCH  18  20
ENDBRANCH  14  18
ENDBRANCH   6   9
ENDBRANCH   2   3
ENDBRANCH   1   2
BRANCH   1  22
HETATM   22  N   UNL     1     -45.460  59.320 -56.056  1.00  0.00    -0.350 N 
HETATM   23  C   UNL     1     -45.470  60.511 -55.368  1.00  0.00     0.252 C 
HETATM   24  O   UNL     1     -45.352  61.591 -55.937  1.00  0.00    -0.268 OA
HETATM   25  H   UNL     1     -45.278  58.498 -55.486  1.00  0.00     0.163 HD
BRANCH  23  26
HETATM   26  C   UNL     1     -45.640  60.429 -53.888  1.00  0.00     0.033 A 
HETATM   27  C   UNL     1     -45.079  59.345 -53.209  1.00  0.00     0.043 A 
HETATM   28  C   UNL     1     -45.224  59.240 -51.821  1.00  0.00     0.068 A 
HETATM   29 CL   UNL     1     -44.517  57.868 -51.043  1.00  0.00    -0.081 Cl
HETATM   30  C   UNL     1     -45.931  60.210 -51.090  1.00  0.00     0.091 A 
HETATM   31  C   UNL     1     -46.457  61.309 -51.773  1.00  0.00     0.039 A 
HETATM   32  C   UNL     1     -46.311  61.422 -53.162  1.00  0.00     0.020 A 
BRANCH  30  33
HETATM   33  O   UNL     1     -46.026  60.020 -49.739  1.00  0.00    -0.345 OA
BRANCH  33  34
HETATM   34  C   UNL     1     -45.226  60.803 -48.845  1.00  0.00     0.121 C 
HETATM   35  C   UNL     1     -44.049  61.429 -49.588  1.00  0.00     0.040 C 
HETATM   36  C   UNL     1     -46.134  61.900 -48.293  1.00  0.00     0.040 C 
ENDBRANCH  33  34
ENDBRANCH  30  33
ENDBRANCH  23  26
ENDBRANCH   1  22
BRANCH   1  37
HETATM   37  C   UNL     1     -46.081  58.019 -58.165  1.00  0.00     0.254 C 
BRANCH  37  38
HETATM   38  N   UNL     1     -47.237  57.637 -57.313  1.00  0.00    -0.077 N 
HETATM   39  H   UNL     1     -47.916  57.084 -57.881  1.00  0.00     0.274 HD
HETATM   40  H   UNL     1     -46.977  57.033 -56.526  1.00  0.00     0.274 HD
HETATM   41  H   UNL     1     -47.753  58.446 -56.954  1.00  0.00     0.274 HD
ENDBRANCH  37  38
ENDBRANCH   1  37
TORSDOF 11
ENDMDL
MODEL 10
REMARK VINA RESULT:      -6.9     17.451     20.632
REMARK  11 active torsions:
REMARK  status: ('A' for Active; 'I' for Inactive)
REMARK    1  A    between atoms: C_2  and  O_3 
REMARK    2  A    between atoms: C_2  and  C_4 
REMARK    3  A    between atoms: C_8  and  C_9 
REMARK    4  A    between atoms: C_12  and  C_13 
REMARK    5  A    between atoms: C_13  and  C_14 
REMARK    6  A    between atoms: C_14  and  N_15 
REMARK    7  A    between atoms: C_14  and  C_29 
REMARK       I    between atoms: N_15  and  C_16 
REMARK    8  A    between atoms: C_16  and  C_17 
REMARK    9  A    between atoms: C_21  and  O_22 
REMARK   10  A    between atoms: O_22  and  C_23 
REMARK   11  A    between atoms: C_29  and  N_30 
ROOT
HETATM    1  C   UNL     1     -33.425  40.025 -51.147  1.00  0.00     0.114 C 
ENDROOT
BRANCH   1   2
HETATM    2  C   UNL     1     -33.883  38.561 -50.947  1.00  0.00     0.065 C 
BRANCH   2   3
HETATM    3  C   UNL     1     -35.209  38.371 -50.261  1.00  0.00    -0.056 A 
HETATM    4  C   UNL     1     -35.342  38.536 -48.878  1.00  0.00     0.008 A 
HETATM    5  C   UNL     1     -36.599  38.424 -48.272  1.00  0.00     0.014 A 
HETATM    6  C   UNL     1     -37.746  38.155 -49.032  1.00  0.00    -0.006 A 
HETATM    7  C   UNL     1     -37.600  37.963 -50.411  1.00  0.00     0.014 A 
HETATM    8  C   UNL     1     -36.348  38.074 -51.020  1.00  0.00     0.008 A 
BRANCH   6   9
HETATM    9  C   UNL     1     -39.050  38.119 -48.385  1.00  0.00     0.085 A 
HETATM   10  C   UNL     1     -40.237  37.727 -48.969  1.00  0.00     0.130 A 
HETATM   11  N   UNL     1     -41.202  37.907 -48.012  1.00  0.00    -0.315 N 
HETATM   12  C   UNL     1     -40.563  38.397 -46.879  1.00  0.00     0.143 A 
HETATM   13  C   UNL     1     -42.569  37.675 -48.094  1.00  0.00     0.098 A 
HETATM   14  C   UNL     1     -41.370  38.682 -45.718  1.00  0.00     0.017 A 
HETATM   15  N   UNL     1     -39.264  38.527 -47.087  1.00  0.00    -0.228 NA
HETATM   16  C   UNL     1     -42.702  38.438 -45.814  1.00  0.00     0.015 A 
HETATM   17  C   UNL     1     -43.333  37.931 -47.022  1.00  0.00     0.018 A 
BRANCH  14  18
HETATM   18  C   UNL     1     -40.752  39.211 -44.432  1.00  0.00     0.150 C 
HETATM   19  C   UNL     1     -41.703  39.057 -43.249  1.00  0.00     0.044 C 
BRANCH  18  20
HETATM   20  O   UNL     1     -39.537  38.523 -44.129  1.00  0.00    -0.391 OA
HETATM   21  H   UNL     1     -39.020  38.482 -44.951  1.00  0.00     0.210 HD
ENDBRANCH  18  20
ENDBRANCH  14  18
ENDBRANCH   6   9
ENDBRANCH   2   3
ENDBRANCH   1   2
BRANCH   1  22
HETATM   22  N   UNL     1     -34.067  40.505 -52.396  1.00  0.00    -0.350 N 
HETATM   23  C   UNL     1     -35.231  41.233 -52.492  1.00  0.00     0.252 C 
HETATM   24  O   UNL     1     -35.831  41.632 -51.499  1.00  0.00    -0.268 OA
HETATM   25  H   UNL     1     -33.814  39.990 -53.235  1.00  0.00     0.163 HD
BRANCH  23  26
HETATM   26  C   UNL     1     -35.729  41.521 -53.868  1.00  0.00     0.033 A 
HETATM   27  C   UNL     1     -37.067  41.253 -54.165  1.00  0.00     0.043 A 
HETATM   28  C   UNL     1     -37.563  41.511 -55.449  1.00  0.00     0.068 A 
HETATM   29 CL   UNL     1     -39.225  41.146 -55.754  1.00  0.00    -0.081 Cl
HETATM   30  C   UNL     1     -36.734  42.036 -56.453  1.00  0.00     0.091 A 
HETATM   31  C   UNL     1     -35.407  42.334 -56.137  1.00  0.00     0.039 A 
HETATM   32  C   UNL     1     -34.907  42.083 -54.853  1.00  0.00     0.020 A 
BRANCH  30  33
HETATM   33  O   UNL     1     -37.305  42.250 -57.678  1.00  0.00    -0.345 OA
BRANCH  33  34
HETATM   34  C   UNL     1     -36.858  41.507 -58.819  1.00  0.00     0.121 C 
HETATM   35  C   UNL     1     -37.445  40.098 -58.803  1.00  0.00     0.040 C 
HETATM   36  C   UNL     1     -37.351  42.261 -60.052  1.00  0.00     0.040 C 
ENDBRANCH  33  34
ENDBRANCH  30  33
ENDBRANCH  23  26
ENDBRANCH   1  22
BRANCH   1  37
HETATM   37  C   UNL     1     -31.871  40.117 -51.149  1.00  0.00     0.254 C 
BRANCH  37  38
HETATM   38  N   UNL     1     -31.305  39.942 -49.787  1.00  0.00    -0.077 N 
HETATM   39  H   UNL     1     -30.271  40.078 -49.823  1.00  0.00     0.274 HD
HETATM   40  H   UNL     1     -31.652  40.633 -49.113  1.00  0.00     0.274 HD
HETATM   41  H   UNL     1     -31.460  39.003 -49.407  1.00  0.00     0.274 HD
ENDBRANCH  37  38
ENDBRANCH   1  37
TORSDOF 11
ENDMDL
