MODEL 1
REMARK VINA RESULT:      -8.8      0.000      0.000
REMARK  3 active torsions:
REMARK  status: ('A' for Active; 'I' for Inactive)
REMARK    1  A    between atoms: O_2  and  C_3 
REMARK    2  A    between atoms: C_4  and  N_5 
REMARK       I    between atoms: N_5  and  C_6 
REMARK       I    between atoms: C_6  and  N_7 
REMARK    3  A    between atoms: C_10  and  C_11 
ROOT
HETATM    1  N   UNL     1     -41.914  57.141 -57.749  1.00  0.00    -0.306 N 
HETATM    2  C   UNL     1     -42.780  56.821 -56.729  1.00  0.00     0.323 C 
HETATM    3  N   UNL     1     -42.302  55.820 -55.870  1.00  0.00    -0.330 N 
HETATM    4  C   UNL     1     -43.282  55.383 -54.890  1.00  0.00     0.155 C 
HETATM    5  C   UNL     1     -42.742  54.386 -53.916  1.00  0.00     0.001 C 
HETATM    6  C   UNL     1     -41.452  54.020 -53.787  1.00  0.00    -0.046 C 
HETATM    7  C   UNL     1     -40.433  54.608 -54.728  1.00  0.00     0.059 C 
HETATM    8  C   UNL     1     -40.916  55.893 -55.409  1.00  0.00     0.132 C 
HETATM    9  O   UNL     1     -43.889  57.331 -56.595  1.00  0.00    -0.247 OA
HETATM   10  H   UNL     1     -41.487  56.339 -58.199  1.00  0.00     0.171 HD
ENDROOT
BRANCH   1  11
HETATM   11  C   UNL     1     -42.061  58.288 -58.559  1.00  0.00     0.071 A 
HETATM   12  C   UNL     1     -42.428  58.132 -59.903  1.00  0.00     0.095 A 
HETATM   13  C   UNL     1     -42.507  59.238 -60.753  1.00  0.00     0.041 A 
HETATM   14  C   UNL     1     -42.240  60.512 -60.252  1.00  0.00     0.026 A 
HETATM   15  C   UNL     1     -41.893  60.672 -58.910  1.00  0.00     0.036 A 
HETATM   16  C   UNL     1     -41.804  59.568 -58.062  1.00  0.00     0.056 A 
HETATM   17 CL   UNL     1     -41.544  62.245 -58.304  1.00  0.00    -0.084 Cl
BRANCH  12  18
HETATM   18  O   UNL     1     -42.713  56.870 -60.366  1.00  0.00    -0.354 OA
HETATM   19  C   UNL     1     -44.128  56.671 -60.425  1.00  0.00     0.210 C 
ENDBRANCH  12  18
ENDBRANCH   1  11
BRANCH   6  20
HETATM   20  C   UNL     1     -40.966  53.153 -52.740  1.00  0.00    -0.002 A 
HETATM   21  C   UNL     1     -40.419  51.821 -52.797  1.00  0.00     0.003 A 
HETATM   22  C   UNL     1     -40.046  51.470 -51.494  1.00  0.00     0.043 A 
HETATM   23  C   UNL     1     -40.187  50.863 -53.812  1.00  0.00     0.014 A 
HETATM   24  C   UNL     1     -39.447  50.248 -51.164  1.00  0.00     0.030 A 
HETATM   25  N   UNL     1     -40.377  52.523 -50.677  1.00  0.00    -0.364 N 
HETATM   26  C   UNL     1     -39.215  49.337 -52.195  1.00  0.00     0.002 A 
HETATM   27  C   UNL     1     -39.582  49.636 -53.502  1.00  0.00     0.001 A 
HETATM   28  H   UNL     1     -40.222  52.543 -49.678  1.00  0.00     0.165 HD
HETATM   29  C   UNL     1     -40.919  53.537 -51.412  1.00  0.00     0.101 A 
ENDBRANCH   6  20
TORSDOF 3
ENDMDL
MODEL 2
REMARK VINA RESULT:      -8.8      2.091      2.306
REMARK  3 active torsions:
REMARK  status: ('A' for Active; 'I' for Inactive)
REMARK    1  A    between atoms: O_2  and  C_3 
REMARK    2  A    between atoms: C_4  and  N_5 
REMARK       I    between atoms: N_5  and  C_6 
REMARK       I    between atoms: C_6  and  N_7 
REMARK    3  A    between atoms: C_10  and  C_11 
ROOT
HETATM    1  N   UNL     1     -44.357  57.072 -56.834  1.00  0.00    -0.306 N 
HETATM    2  C   UNL     1     -43.080  57.297 -56.375  1.00  0.00     0.323 C 
HETATM    3  N   UNL     1     -42.651  56.374 -55.411  1.00  0.00    -0.330 N 
HETATM    4  C   UNL     1     -41.364  56.708 -54.822  1.00  0.00     0.155 C 
HETATM    5  C   UNL     1     -40.864  55.675 -53.865  1.00  0.00     0.001 C 
HETATM    6  C   UNL     1     -41.405  54.459 -53.655  1.00  0.00    -0.046 C 
HETATM    7  C   UNL     1     -42.663  54.086 -54.395  1.00  0.00     0.059 C 
HETATM    8  C   UNL     1     -42.909  54.952 -55.635  1.00  0.00     0.132 C 
HETATM    9  O   UNL     1     -42.384  58.241 -56.741  1.00  0.00    -0.247 OA
HETATM   10  H   UNL     1     -45.027  56.849 -56.107  1.00  0.00     0.171 HD
ENDROOT
BRANCH   1  11
HETATM   11  C   UNL     1     -44.890  57.698 -57.982  1.00  0.00     0.071 A 
HETATM   12  C   UNL     1     -44.815  57.037 -59.216  1.00  0.00     0.095 A 
HETATM   13  C   UNL     1     -45.262  57.659 -60.384  1.00  0.00     0.041 A 
HETATM   14  C   UNL     1     -45.808  58.941 -60.318  1.00  0.00     0.026 A 
HETATM   15  C   UNL     1     -45.900  59.593 -59.088  1.00  0.00     0.036 A 
HETATM   16  C   UNL     1     -45.446  58.978 -57.921  1.00  0.00     0.056 A 
HETATM   17 CL   UNL     1     -46.556  61.183 -59.016  1.00  0.00    -0.084 Cl
BRANCH  12  18
HETATM   18  O   UNL     1     -44.299  55.765 -59.252  1.00  0.00    -0.354 OA
HETATM   19  C   UNL     1     -45.058  54.946 -60.148  1.00  0.00     0.210 C 
ENDBRANCH  12  18
ENDBRANCH   1  11
BRANCH   6  20
HETATM   20  C   UNL     1     -40.803  53.449 -52.817  1.00  0.00    -0.002 A 
HETATM   21  C   UNL     1     -40.402  52.096 -53.112  1.00  0.00     0.003 A 
HETATM   22  C   UNL     1     -39.813  51.577 -51.953  1.00  0.00     0.043 A 
HETATM   23  C   UNL     1     -40.465  51.243 -54.239  1.00  0.00     0.014 A 
HETATM   24  C   UNL     1     -39.275  50.286 -51.871  1.00  0.00     0.030 A 
HETATM   25  N   UNL     1     -39.877  52.552 -50.989  1.00  0.00    -0.364 N 
HETATM   26  C   UNL     1     -39.336  49.482 -53.009  1.00  0.00     0.002 A 
HETATM   27  C   UNL     1     -39.926  49.950 -54.178  1.00  0.00     0.001 A 
HETATM   28  H   UNL     1     -39.527  52.450 -50.047  1.00  0.00     0.165 HD
HETATM   29  C   UNL     1     -40.459  53.678 -51.497  1.00  0.00     0.101 A 
ENDBRANCH   6  20
TORSDOF 3
ENDMDL
MODEL 3
REMARK VINA RESULT:      -8.3      1.606      2.238
REMARK  3 active torsions:
REMARK  status: ('A' for Active; 'I' for Inactive)
REMARK    1  A    between atoms: O_2  and  C_3 
REMARK    2  A    between atoms: C_4  and  N_5 
REMARK       I    between atoms: N_5  and  C_6 
REMARK       I    between atoms: C_6  and  N_7 
REMARK    3  A    between atoms: C_10  and  C_11 
ROOT
HETATM    1  N   UNL     1     -42.093  58.279 -57.359  1.00  0.00    -0.306 N 
HETATM    2  C   UNL     1     -42.806  57.126 -57.123  1.00  0.00     0.323 C 
HETATM    3  N   UNL     1     -42.170  56.234 -56.247  1.00  0.00    -0.330 N 
HETATM    4  C   UNL     1     -42.855  54.958 -56.123  1.00  0.00     0.155 C 
HETATM    5  C   UNL     1     -42.231  54.046 -55.118  1.00  0.00     0.001 C 
HETATM    6  C   UNL     1     -41.249  54.368 -54.255  1.00  0.00    -0.046 C 
HETATM    7  C   UNL     1     -40.658  55.753 -54.310  1.00  0.00     0.059 C 
HETATM    8  C   UNL     1     -41.563  56.762 -55.026  1.00  0.00     0.132 C 
HETATM    9  O   UNL     1     -43.882  56.872 -57.656  1.00  0.00    -0.247 OA
HETATM   10  H   UNL     1     -41.103  58.131 -57.520  1.00  0.00     0.171 HD
ENDROOT
BRANCH   1  11
HETATM   11  C   UNL     1     -42.647  59.419 -57.981  1.00  0.00     0.071 A 
HETATM   12  C   UNL     1     -43.385  60.327 -57.209  1.00  0.00     0.095 A 
HETATM   13  C   UNL     1     -44.012  61.423 -57.806  1.00  0.00     0.041 A 
HETATM   14  C   UNL     1     -43.884  61.628 -59.180  1.00  0.00     0.026 A 
HETATM   15  C   UNL     1     -43.134  60.736 -59.947  1.00  0.00     0.036 A 
HETATM   16  C   UNL     1     -42.515  59.635 -59.356  1.00  0.00     0.056 A 
HETATM   17 CL   UNL     1     -42.997  60.983 -61.646  1.00  0.00    -0.084 Cl
BRANCH  12  18
HETATM   18  O   UNL     1     -43.474  60.120 -55.854  1.00  0.00    -0.354 OA
HETATM   19  C   UNL     1     -44.826  59.833 -55.484  1.00  0.00     0.210 C 
ENDBRANCH  12  18
ENDBRANCH   1  11
BRANCH   6  20
HETATM   20  C   UNL     1     -40.776  53.486 -53.213  1.00  0.00    -0.002 A 
HETATM   21  C   UNL     1     -40.371  52.104 -53.261  1.00  0.00     0.003 A 
HETATM   22  C   UNL     1     -39.939  51.755 -51.975  1.00  0.00     0.043 A 
HETATM   23  C   UNL     1     -40.312  51.098 -54.254  1.00  0.00     0.014 A 
HETATM   24  C   UNL     1     -39.443  50.488 -51.644  1.00  0.00     0.030 A 
HETATM   25  N   UNL     1     -40.101  52.859 -51.176  1.00  0.00    -0.364 N 
HETATM   26  C   UNL     1     -39.381  49.528 -52.655  1.00  0.00     0.002 A 
HETATM   27  C   UNL     1     -39.812  49.825 -53.942  1.00  0.00     0.001 A 
HETATM   28  H   UNL     1     -39.871  52.893 -50.192  1.00  0.00     0.165 HD
HETATM   29  C   UNL     1     -40.591  53.902 -51.907  1.00  0.00     0.101 A 
ENDBRANCH   6  20
TORSDOF 3
ENDMDL
MODEL 4
REMARK VINA RESULT:      -8.3      6.055      7.386
REMARK  3 active torsions:
REMARK  status: ('A' for Active; 'I' for Inactive)
REMARK    1  A    between atoms: O_2  and  C_3 
REMARK    2  A    between atoms: C_4  and  N_5 
REMARK       I    between atoms: N_5  and  C_6 
REMARK       I    between atoms: C_6  and  N_7 
REMARK    3  A    between atoms: C_10  and  C_11 
ROOT
HETATM    1  N   UNL     1     -44.128  59.932 -50.074  1.00  0.00    -0.306 N 
HETATM    2  C   UNL     1     -43.058  60.101 -50.923  1.00  0.00     0.323 C 
HETATM    3  N   UNL     1     -42.562  58.904 -51.459  1.00  0.00    -0.330 N 
HETATM    4  C   UNL     1     -41.342  59.076 -52.230  1.00  0.00     0.155 C 
HETATM    5  C   UNL     1     -40.869  57.817 -52.879  1.00  0.00     0.001 C 
HETATM    6  C   UNL     1     -41.541  56.651 -52.936  1.00  0.00    -0.046 C 
HETATM    7  C   UNL     1     -42.877  56.548 -52.248  1.00  0.00     0.059 C 
HETATM    8  C   UNL     1     -43.513  57.914 -51.966  1.00  0.00     0.132 C 
HETATM    9  O   UNL     1     -42.550  61.192 -51.166  1.00  0.00    -0.247 OA
HETATM   10  H   UNL     1     -44.022  59.165 -49.420  1.00  0.00     0.171 HD
ENDROOT
BRANCH   1  11
HETATM   11  C   UNL     1     -44.948  60.996 -49.639  1.00  0.00     0.071 A 
HETATM   12  C   UNL     1     -46.050  61.372 -50.420  1.00  0.00     0.095 A 
HETATM   13  C   UNL     1     -46.836  62.469 -50.060  1.00  0.00     0.041 A 
HETATM   14  C   UNL     1     -46.534  63.183 -48.900  1.00  0.00     0.026 A 
HETATM   15  C   UNL     1     -45.449  62.798 -48.111  1.00  0.00     0.036 A 
HETATM   16  C   UNL     1     -44.656  61.709 -48.474  1.00  0.00     0.056 A 
HETATM   17 CL   UNL     1     -45.069  63.697 -46.692  1.00  0.00    -0.084 Cl
BRANCH  12  18
HETATM   18  O   UNL     1     -46.343  60.637 -51.542  1.00  0.00    -0.354 OA
HETATM   19  C   UNL     1     -46.163  61.432 -52.718  1.00  0.00     0.210 C 
ENDBRANCH  12  18
ENDBRANCH   1  11
BRANCH   6  20
HETATM   20  C   UNL     1     -41.094  55.504 -53.692  1.00  0.00    -0.002 A 
HETATM   21  C   UNL     1     -40.637  54.208 -53.257  1.00  0.00     0.003 A 
HETATM   22  C   UNL     1     -40.387  53.450 -54.408  1.00  0.00     0.043 A 
HETATM   23  C   UNL     1     -40.409  53.579 -52.011  1.00  0.00     0.014 A 
HETATM   24  C   UNL     1     -39.953  52.119 -54.377  1.00  0.00     0.030 A 
HETATM   25  N   UNL     1     -40.650  54.252 -55.491  1.00  0.00    -0.364 N 
HETATM   26  C   UNL     1     -39.759  51.526 -53.129  1.00  0.00     0.002 A 
HETATM   27  C   UNL     1     -39.980  52.245 -51.960  1.00  0.00     0.001 A 
HETATM   28  H   UNL     1     -40.552  53.963 -56.454  1.00  0.00     0.165 HD
HETATM   29  C   UNL     1     -41.082  55.478 -55.075  1.00  0.00     0.101 A 
ENDBRANCH   6  20
TORSDOF 3
ENDMDL
MODEL 5
REMARK VINA RESULT:      -8.2      6.416      8.065
REMARK  3 active torsions:
REMARK  status: ('A' for Active; 'I' for Inactive)
REMARK    1  A    between atoms: O_2  and  C_3 
REMARK    2  A    between atoms: C_4  and  N_5 
REMARK       I    between atoms: N_5  and  C_6 
REMARK       I    between atoms: C_6  and  N_7 
REMARK    3  A    between atoms: C_10  and  C_11 
ROOT
HETATM    1  N   UNL     1     -44.490  60.132 -49.963  1.00  0.00    -0.306 N 
HETATM    2  C   UNL     1     -43.357  60.323 -50.720  1.00  0.00     0.323 C 
HETATM    3  N   UNL     1     -42.840  59.145 -51.277  1.00  0.00    -0.330 N 
HETATM    4  C   UNL     1     -41.563  59.333 -51.946  1.00  0.00     0.155 C 
HETATM    5  C   UNL     1     -41.060  58.099 -52.621  1.00  0.00     0.001 C 
HETATM    6  C   UNL     1     -41.742  56.949 -52.786  1.00  0.00    -0.046 C 
HETATM    7  C   UNL     1     -43.128  56.837 -52.205  1.00  0.00     0.059 C 
HETATM    8  C   UNL     1     -43.763  58.199 -51.903  1.00  0.00     0.132 C 
HETATM    9  O   UNL     1     -42.816  61.416 -50.869  1.00  0.00    -0.247 OA
HETATM   10  H   UNL     1     -44.444  59.332 -49.342  1.00  0.00     0.171 HD
ENDROOT
BRANCH   1  11
HETATM   11  C   UNL     1     -45.324  61.188 -49.537  1.00  0.00     0.071 A 
HETATM   12  C   UNL     1     -45.299  61.577 -48.190  1.00  0.00     0.095 A 
HETATM   13  C   UNL     1     -46.166  62.565 -47.718  1.00  0.00     0.041 A 
HETATM   14  C   UNL     1     -47.051  63.185 -48.601  1.00  0.00     0.026 A 
HETATM   15  C   UNL     1     -47.064  62.813 -49.946  1.00  0.00     0.036 A 
HETATM   16  C   UNL     1     -46.206  61.820 -50.418  1.00  0.00     0.056 A 
HETATM   17 CL   UNL     1     -48.173  63.567 -51.025  1.00  0.00    -0.084 Cl
BRANCH  12  18
HETATM   18  O   UNL     1     -44.400  60.972 -47.346  1.00  0.00    -0.354 OA
HETATM   19  C   UNL     1     -44.895  60.984 -46.003  1.00  0.00     0.210 C 
ENDBRANCH  12  18
ENDBRANCH   1  11
BRANCH   6  20
HETATM   20  C   UNL     1     -41.257  55.834 -53.564  1.00  0.00    -0.002 A 
HETATM   21  C   UNL     1     -40.800  54.529 -53.157  1.00  0.00     0.003 A 
HETATM   22  C   UNL     1     -40.502  53.812 -54.322  1.00  0.00     0.043 A 
HETATM   23  C   UNL     1     -40.607  53.861 -51.925  1.00  0.00     0.014 A 
HETATM   24  C   UNL     1     -40.053  52.486 -54.320  1.00  0.00     0.030 A 
HETATM   25  N   UNL     1     -40.737  54.647 -55.387  1.00  0.00    -0.364 N 
HETATM   26  C   UNL     1     -39.895  51.853 -53.087  1.00  0.00     0.002 A 
HETATM   27  C   UNL     1     -40.164  52.530 -51.904  1.00  0.00     0.001 A 
HETATM   28  H   UNL     1     -40.603  54.392 -56.355  1.00  0.00     0.165 HD
HETATM   29  C   UNL     1     -41.197  55.854 -54.946  1.00  0.00     0.101 A 
ENDBRANCH   6  20
TORSDOF 3
ENDMDL
MODEL 6
REMARK VINA RESULT:      -8.0      6.309      9.627
REMARK  3 active torsions:
REMARK  status: ('A' for Active; 'I' for Inactive)
REMARK    1  A    between atoms: O_2  and  C_3 
REMARK    2  A    between atoms: C_4  and  N_5 
REMARK       I    between atoms: N_5  and  C_6 
REMARK       I    between atoms: C_6  and  N_7 
REMARK    3  A    between atoms: C_10  and  C_11 
ROOT
HETATM    1  N   UNL     1     -40.945  54.793 -51.731  1.00  0.00    -0.306 N 
HETATM    2  C   UNL     1     -42.267  55.175 -51.761  1.00  0.00     0.323 C 
HETATM    3  N   UNL     1     -42.473  56.533 -51.479  1.00  0.00    -0.330 N 
HETATM    4  C   UNL     1     -43.877  56.893 -51.363  1.00  0.00     0.155 C 
HETATM    5  C   UNL     1     -44.098  58.356 -51.157  1.00  0.00     0.001 C 
HETATM    6  C   UNL     1     -43.161  59.320 -51.237  1.00  0.00    -0.046 C 
HETATM    7  C   UNL     1     -41.732  58.924 -51.506  1.00  0.00     0.059 C 
HETATM    8  C   UNL     1     -41.603  57.523 -52.113  1.00  0.00     0.132 C 
HETATM    9  O   UNL     1     -43.193  54.398 -51.976  1.00  0.00    -0.247 OA
HETATM   10  H   UNL     1     -40.423  55.166 -50.946  1.00  0.00     0.171 HD
ENDROOT
BRANCH   1  11
HETATM   11  C   UNL     1     -40.483  53.560 -52.241  1.00  0.00     0.071 A 
HETATM   12  C   UNL     1     -40.352  53.401 -53.627  1.00  0.00     0.095 A 
HETATM   13  C   UNL     1     -39.972  52.171 -54.170  1.00  0.00     0.041 A 
HETATM   14  C   UNL     1     -39.698  51.098 -53.321  1.00  0.00     0.026 A 
HETATM   15  C   UNL     1     -39.809  51.260 -51.940  1.00  0.00     0.036 A 
HETATM   16  C   UNL     1     -40.198  52.484 -51.396  1.00  0.00     0.056 A 
HETATM   17 CL   UNL     1     -39.490  49.926 -50.900  1.00  0.00    -0.084 Cl
BRANCH  12  18
HETATM   18  O   UNL     1     -40.601  54.480 -54.441  1.00  0.00    -0.354 OA
HETATM   19  C   UNL     1     -41.759  54.238 -55.245  1.00  0.00     0.210 C 
ENDBRANCH  12  18
ENDBRANCH   1  11
BRANCH   6  20
HETATM   20  C   UNL     1     -43.455  60.732 -51.162  1.00  0.00    -0.002 A 
HETATM   21  C   UNL     1     -43.966  61.532 -50.077  1.00  0.00     0.003 A 
HETATM   22  C   UNL     1     -44.002  62.859 -50.522  1.00  0.00     0.043 A 
HETATM   23  C   UNL     1     -44.401  61.286 -48.753  1.00  0.00     0.014 A 
HETATM   24  C   UNL     1     -44.420  63.930 -49.724  1.00  0.00     0.030 A 
HETATM   25  N   UNL     1     -43.564  62.866 -51.823  1.00  0.00    -0.364 N 
HETATM   26  C   UNL     1     -44.822  63.652 -48.417  1.00  0.00     0.002 A 
HETATM   27  C   UNL     1     -44.817  62.347 -47.937  1.00  0.00     0.001 A 
HETATM   28  H   UNL     1     -43.489  63.693 -52.398  1.00  0.00     0.165 HD
HETATM   29  C   UNL     1     -43.225  61.602 -52.213  1.00  0.00     0.101 A 
ENDBRANCH   6  20
TORSDOF 3
ENDMDL
MODEL 7
REMARK VINA RESULT:      -8.0      5.247      6.451
REMARK  3 active torsions:
REMARK  status: ('A' for Active; 'I' for Inactive)
REMARK    1  A    between atoms: O_2  and  C_3 
REMARK    2  A    between atoms: C_4  and  N_5 
REMARK       I    between atoms: N_5  and  C_6 
REMARK       I    between atoms: C_6  and  N_7 
REMARK    3  A    between atoms: C_10  and  C_11 
ROOT
HETATM    1  N   UNL     1     -45.001  59.440 -51.342  1.00  0.00    -0.306 N 
HETATM    2  C   UNL     1     -43.625  59.392 -51.362  1.00  0.00     0.323 C 
HETATM    3  N   UNL     1     -43.099  58.109 -51.156  1.00  0.00    -0.330 N 
HETATM    4  C   UNL     1     -41.651  58.092 -51.027  1.00  0.00     0.155 C 
HETATM    5  C   UNL     1     -41.083  56.715 -50.903  1.00  0.00     0.001 C 
HETATM    6  C   UNL     1     -41.758  55.561 -51.064  1.00  0.00    -0.046 C 
HETATM    7  C   UNL     1     -43.237  55.616 -51.344  1.00  0.00     0.059 C 
HETATM    8  C   UNL     1     -43.697  56.981 -51.869  1.00  0.00     0.132 C 
HETATM    9  O   UNL     1     -42.913  60.382 -51.508  1.00  0.00    -0.247 OA
HETATM   10  H   UNL     1     -45.424  58.903 -50.594  1.00  0.00     0.171 HD
ENDROOT
BRANCH   1  11
HETATM   11  C   UNL     1     -45.743  60.555 -51.789  1.00  0.00     0.071 A 
HETATM   12  C   UNL     1     -46.351  61.393 -50.845  1.00  0.00     0.095 A 
HETATM   13  C   UNL     1     -47.157  62.459 -51.252  1.00  0.00     0.041 A 
HETATM   14  C   UNL     1     -47.339  62.704 -52.614  1.00  0.00     0.026 A 
HETATM   15  C   UNL     1     -46.719  61.882 -53.556  1.00  0.00     0.036 A 
HETATM   16  C   UNL     1     -45.922  60.812 -53.151  1.00  0.00     0.056 A 
HETATM   17 CL   UNL     1     -46.965  62.178 -55.234  1.00  0.00    -0.084 Cl
BRANCH  12  18
HETATM   18  O   UNL     1     -46.135  61.148 -49.510  1.00  0.00    -0.354 OA
HETATM   19  C   UNL     1     -45.984  62.380 -48.797  1.00  0.00     0.210 C 
ENDBRANCH  12  18
ENDBRANCH   1  11
BRANCH   6  20
HETATM   20  C   UNL     1     -41.130  54.260 -51.065  1.00  0.00    -0.002 A 
HETATM   21  C   UNL     1     -40.727  53.409 -52.157  1.00  0.00     0.003 A 
HETATM   22  C   UNL     1     -40.108  52.284 -51.599  1.00  0.00     0.043 A 
HETATM   23  C   UNL     1     -40.808  53.464 -53.568  1.00  0.00     0.014 A 
HETATM   24  C   UNL     1     -39.560  51.246 -52.361  1.00  0.00     0.030 A 
HETATM   25  N   UNL     1     -40.158  52.425 -50.234  1.00  0.00    -0.364 N 
HETATM   26  C   UNL     1     -39.640  51.345 -53.750  1.00  0.00     0.002 A 
HETATM   27  C   UNL     1     -40.258  52.436 -54.348  1.00  0.00     0.001 A 
HETATM   28  H   UNL     1     -39.787  51.756 -49.575  1.00  0.00     0.165 HD
HETATM   29  C   UNL     1     -40.758  53.606 -49.904  1.00  0.00     0.101 A 
ENDBRANCH   6  20
TORSDOF 3
ENDMDL
MODEL 8
REMARK VINA RESULT:      -8.0      7.007      9.506
REMARK  3 active torsions:
REMARK  status: ('A' for Active; 'I' for Inactive)
REMARK    1  A    between atoms: O_2  and  C_3 
REMARK    2  A    between atoms: C_4  and  N_5 
REMARK       I    between atoms: N_5  and  C_6 
REMARK       I    between atoms: C_6  and  N_7 
REMARK    3  A    between atoms: C_10  and  C_11 
ROOT
HETATM    1  N   UNL     1     -42.365  56.560 -53.087  1.00  0.00    -0.306 N 
HETATM    2  C   UNL     1     -41.826  57.686 -52.506  1.00  0.00     0.323 C 
HETATM    3  N   UNL     1     -42.781  58.564 -51.974  1.00  0.00    -0.330 N 
HETATM    4  C   UNL     1     -42.215  59.816 -51.500  1.00  0.00     0.155 C 
HETATM    5  C   UNL     1     -43.218  60.710 -50.847  1.00  0.00     0.001 C 
HETATM    6  C   UNL     1     -44.488  60.386 -50.535  1.00  0.00    -0.046 C 
HETATM    7  C   UNL     1     -45.002  59.020 -50.910  1.00  0.00     0.059 C 
HETATM    8  C   UNL     1     -43.880  58.011 -51.182  1.00  0.00     0.132 C 
HETATM    9  O   UNL     1     -40.623  57.928 -52.484  1.00  0.00    -0.247 OA
HETATM   10  H   UNL     1     -43.174  56.741 -53.670  1.00  0.00     0.171 HD
ENDROOT
BRANCH   1  11
HETATM   11  C   UNL     1     -41.600  55.428 -53.439  1.00  0.00     0.071 A 
HETATM   12  C   UNL     1     -41.306  55.196 -54.790  1.00  0.00     0.095 A 
HETATM   13  C   UNL     1     -40.617  54.046 -55.181  1.00  0.00     0.041 A 
HETATM   14  C   UNL     1     -40.199  53.130 -54.216  1.00  0.00     0.026 A 
HETATM   15  C   UNL     1     -40.475  53.368 -52.868  1.00  0.00     0.036 A 
HETATM   16  C   UNL     1     -41.170  54.511 -52.476  1.00  0.00     0.056 A 
HETATM   17 CL   UNL     1     -39.974  52.223 -51.684  1.00  0.00    -0.084 Cl
BRANCH  12  18
HETATM   18  O   UNL     1     -41.703  56.126 -55.720  1.00  0.00    -0.354 OA
HETATM   19  C   UNL     1     -42.719  55.578 -56.566  1.00  0.00     0.210 C 
ENDBRANCH  12  18
ENDBRANCH   1  11
BRANCH   6  20
HETATM   20  C   UNL     1     -45.373  61.244 -49.783  1.00  0.00    -0.002 A 
HETATM   21  C   UNL     1     -45.440  61.523 -48.370  1.00  0.00     0.003 A 
HETATM   22  C   UNL     1     -46.446  62.479 -48.185  1.00  0.00     0.043 A 
HETATM   23  C   UNL     1     -44.755  61.077 -47.215  1.00  0.00     0.014 A 
HETATM   24  C   UNL     1     -46.780  63.016 -46.935  1.00  0.00     0.030 A 
HETATM   25  N   UNL     1     -46.986  62.749 -49.417  1.00  0.00    -0.364 N 
HETATM   26  C   UNL     1     -46.068  62.568 -45.822  1.00  0.00     0.002 A 
HETATM   27  C   UNL     1     -45.072  61.609 -45.957  1.00  0.00     0.001 A 
HETATM   28  H   UNL     1     -47.738  63.404 -49.582  1.00  0.00     0.165 HD
HETATM   29  C   UNL     1     -46.347  62.023 -50.381  1.00  0.00     0.101 A 
ENDBRANCH   6  20
TORSDOF 3
ENDMDL
MODEL 9
REMARK VINA RESULT:      -7.9      3.771      9.541
REMARK  3 active torsions:
REMARK  status: ('A' for Active; 'I' for Inactive)
REMARK    1  A    between atoms: O_2  and  C_3 
REMARK    2  A    between atoms: C_4  and  N_5 
REMARK       I    between atoms: N_5  and  C_6 
REMARK       I    between atoms: C_6  and  N_7 
REMARK    3  A    between atoms: C_10  and  C_11 
ROOT
HETATM    1  N   UNL     1     -41.247  54.621 -53.838  1.00  0.00    -0.306 N 
HETATM    2  C   UNL     1     -42.578  54.954 -53.729  1.00  0.00     0.323 C 
HETATM    3  N   UNL     1     -42.977  55.988 -54.588  1.00  0.00    -0.330 N 
HETATM    4  C   UNL     1     -44.341  56.436 -54.359  1.00  0.00     0.155 C 
HETATM    5  C   UNL     1     -44.797  57.470 -55.336  1.00  0.00     0.001 C 
HETATM    6  C   UNL     1     -44.136  57.865 -56.442  1.00  0.00    -0.046 C 
HETATM    7  C   UNL     1     -42.782  57.270 -56.730  1.00  0.00     0.059 C 
HETATM    8  C   UNL     1     -42.533  55.956 -55.981  1.00  0.00     0.132 C 
HETATM    9  O   UNL     1     -43.346  54.428 -52.929  1.00  0.00    -0.247 OA
HETATM   10  H   UNL     1     -40.622  55.418 -53.891  1.00  0.00     0.171 HD
ENDROOT
BRANCH   1  11
HETATM   11  C   UNL     1     -40.693  53.449 -53.279  1.00  0.00     0.071 A 
HETATM   12  C   UNL     1     -40.324  53.446 -51.927  1.00  0.00     0.095 A 
HETATM   13  C   UNL     1     -39.702  52.330 -51.361  1.00  0.00     0.041 A 
HETATM   14  C   UNL     1     -39.468  51.199 -52.145  1.00  0.00     0.026 A 
HETATM   15  C   UNL     1     -39.853  51.193 -53.487  1.00  0.00     0.036 A 
HETATM   16  C   UNL     1     -40.465  52.310 -54.056  1.00  0.00     0.056 A 
HETATM   17 CL   UNL     1     -39.542  49.803 -54.453  1.00  0.00    -0.084 Cl
BRANCH  12  18
HETATM   18  O   UNL     1     -40.589  54.560 -51.169  1.00  0.00    -0.354 OA
HETATM   19  C   UNL     1     -41.344  54.201 -50.007  1.00  0.00     0.210 C 
ENDBRANCH  12  18
ENDBRANCH   1  11
BRANCH   6  20
HETATM   20  C   UNL     1     -44.685  58.771 -57.423  1.00  0.00    -0.002 A 
HETATM   21  C   UNL     1     -45.564  58.532 -58.540  1.00  0.00     0.003 A 
HETATM   22  C   UNL     1     -45.835  59.773 -59.127  1.00  0.00     0.043 A 
HETATM   23  C   UNL     1     -46.174  57.397 -59.125  1.00  0.00     0.014 A 
HETATM   24  C   UNL     1     -46.682  59.938 -60.230  1.00  0.00     0.030 A 
HETATM   25  N   UNL     1     -45.133  60.721 -58.423  1.00  0.00    -0.364 N 
HETATM   26  C   UNL     1     -47.282  58.799 -60.767  1.00  0.00     0.002 A 
HETATM   27  C   UNL     1     -47.030  57.544 -60.226  1.00  0.00     0.001 A 
HETATM   28  H   UNL     1     -45.140  61.710 -58.630  1.00  0.00     0.165 HD
HETATM   29  C   UNL     1     -44.450  60.134 -57.397  1.00  0.00     0.101 A 
ENDBRANCH   6  20
TORSDOF 3
ENDMDL
MODEL 10
REMARK VINA RESULT:      -7.9      4.032      4.962
REMARK  3 active torsions:
REMARK  status: ('A' for Active; 'I' for Inactive)
REMARK    1  A    between atoms: O_2  and  C_3 
REMARK    2  A    between atoms: C_4  and  N_5 
REMARK       I    between atoms: N_5  and  C_6 
REMARK       I    between atoms: C_6  and  N_7 
REMARK    3  A    between atoms: C_10  and  C_11 
ROOT
HETATM    1  N   UNL     1     -44.691  58.328 -52.228  1.00  0.00    -0.306 N 
HETATM    2  C   UNL     1     -43.382  58.273 -51.807  1.00  0.00     0.323 C 
HETATM    3  N   UNL     1     -42.903  56.970 -51.610  1.00  0.00    -0.330 N 
HETATM    4  C   UNL     1     -41.574  56.925 -51.021  1.00  0.00     0.155 C 
HETATM    5  C   UNL     1     -41.026  55.540 -50.900  1.00  0.00     0.001 C 
HETATM    6  C   UNL     1     -41.570  54.423 -51.421  1.00  0.00    -0.046 C 
HETATM    7  C   UNL     1     -42.880  54.527 -52.156  1.00  0.00     0.059 C 
HETATM    8  C   UNL     1     -43.197  55.953 -52.619  1.00  0.00     0.132 C 
HETATM    9  O   UNL     1     -42.698  59.268 -51.582  1.00  0.00    -0.247 OA
HETATM   10  H   UNL     1     -45.313  57.698 -51.735  1.00  0.00     0.171 HD
ENDROOT
BRANCH   1  11
HETATM   11  C   UNL     1     -45.291  59.498 -52.742  1.00  0.00     0.071 A 
HETATM   12  C   UNL     1     -45.144  59.799 -54.103  1.00  0.00     0.095 A 
HETATM   13  C   UNL     1     -45.657  60.987 -54.629  1.00  0.00     0.041 A 
HETATM   14  C   UNL     1     -46.343  61.871 -53.796  1.00  0.00     0.026 A 
HETATM   15  C   UNL     1     -46.507  61.564 -52.444  1.00  0.00     0.036 A 
HETATM   16  C   UNL     1     -45.987  60.384 -51.914  1.00  0.00     0.056 A 
HETATM   17 CL   UNL     1     -47.336  62.669 -51.417  1.00  0.00    -0.084 Cl
BRANCH  12  18
HETATM   18  O   UNL     1     -44.489  58.900 -54.909  1.00  0.00    -0.354 OA
HETATM   19  C   UNL     1     -45.426  58.191 -55.725  1.00  0.00     0.210 C 
ENDBRANCH  12  18
ENDBRANCH   1  11
BRANCH   6  20
HETATM   20  C   UNL     1     -40.927  53.130 -51.388  1.00  0.00    -0.002 A 
HETATM   21  C   UNL     1     -40.527  52.249 -52.457  1.00  0.00     0.003 A 
HETATM   22  C   UNL     1     -39.889  51.150 -51.870  1.00  0.00     0.043 A 
HETATM   23  C   UNL     1     -40.625  52.258 -53.868  1.00  0.00     0.014 A 
HETATM   24  C   UNL     1     -39.338  50.093 -52.606  1.00  0.00     0.030 A 
HETATM   25  N   UNL     1     -39.925  51.334 -50.510  1.00  0.00    -0.364 N 
HETATM   26  C   UNL     1     -39.435  50.147 -53.997  1.00  0.00     0.002 A 
HETATM   27  C   UNL     1     -40.073  51.212 -54.622  1.00  0.00     0.001 A 
HETATM   28  H   UNL     1     -39.538  50.689 -49.835  1.00  0.00     0.165 HD
HETATM   29  C   UNL     1     -40.535  52.518 -50.211  1.00  0.00     0.101 A 
ENDBRANCH   6  20
TORSDOF 3
ENDMDL
