MODEL 1
REMARK VINA RESULT:      -8.3      0.000      0.000
REMARK  6 active torsions:
REMARK  status: ('A' for Active; 'I' for Inactive)
REMARK    1  A    between atoms: N_2  and  C_3 
REMARK    2  A    between atoms: C_6  and  C_7 
REMARK       I    between atoms: C_7  and  N_8 
REMARK    3  A    between atoms: N_8  and  C_9 
REMARK    4  A    between atoms: C_9  and  C_10 
REMARK    5  A    between atoms: C_10  and  C_11 
REMARK    6  A    between atoms: C_22  and  O_23 
ROOT
HETATM    1  C   UNL     1     -41.321  58.118 -51.916  1.00  0.00     0.158 A 
HETATM    2  N   UNL     1     -41.568  58.169 -50.601  1.00  0.00    -0.111 NA
HETATM    3  O   UNL     1     -41.398  56.846 -50.194  1.00  0.00    -0.189 OA
HETATM    4  C   UNL     1     -41.051  56.127 -51.307  1.00  0.00     0.223 A 
HETATM    5  C   UNL     1     -40.778  54.730 -51.295  1.00  0.00     0.089 A 
HETATM    6  N   UNL     1     -40.485  54.037 -52.443  1.00  0.00    -0.352 N 
HETATM    7  H   UNL     1     -40.446  54.450 -53.364  1.00  0.00     0.166 HD
HETATM    8  C   UNL     1     -40.247  52.712 -52.155  1.00  0.00     0.045 A 
HETATM    9  C   UNL     1     -40.401  52.557 -50.779  1.00  0.00    -0.007 A 
HETATM   10  C   UNL     1     -40.741  53.832 -50.247  1.00  0.00     0.048 A 
HETATM   11  C   UNL     1     -39.910  51.646 -52.998  1.00  0.00     0.067 A 
HETATM   12  C   UNL     1     -39.714  50.383 -52.426  1.00  0.00     0.070 A 
HETATM   13  C   UNL     1     -39.864  50.205 -51.050  1.00  0.00     0.038 A 
HETATM   14  C   UNL     1     -40.207  51.281 -50.218  1.00  0.00     0.016 A 
HETATM   15  N   UNL     1     -40.985  56.874 -52.391  1.00  0.00    -0.203 NA
ENDROOT
BRANCH   1  16
HETATM   16  C   UNL     1     -41.344  59.337 -52.763  1.00  0.00     0.103 C 
BRANCH  16  17
HETATM   17  C   UNL     1     -42.753  59.732 -53.211  1.00  0.00     0.133 C 
BRANCH  17  18
HETATM   18  N   UNL     1     -43.284  58.837 -54.245  1.00  0.00    -0.352 N 
HETATM   19  C   UNL     1     -42.731  58.921 -55.523  1.00  0.00     0.253 C 
HETATM   20  O   UNL     1     -41.756  59.625 -55.781  1.00  0.00    -0.267 OA
HETATM   21  C   UNL     1     -44.212  57.801 -53.806  1.00  0.00     0.152 C 
BRANCH  19  22
HETATM   22  C   UNL     1     -43.330  58.143 -56.631  1.00  0.00     0.032 A 
HETATM   23  C   UNL     1     -44.445  58.608 -57.325  1.00  0.00     0.019 A 
HETATM   24  C   UNL     1     -44.973  57.855 -58.383  1.00  0.00     0.030 A 
HETATM   25  C   UNL     1     -44.392  56.644 -58.802  1.00  0.00     0.029 A 
HETATM   26  C   UNL     1     -43.258  56.213 -58.084  1.00  0.00     0.030 A 
HETATM   27  C   UNL     1     -42.723  56.952 -57.021  1.00  0.00     0.019 A 
BRANCH  25  28
HETATM   28  N   UNL     1     -44.917  55.873 -59.848  1.00  0.00    -0.390 N 
HETATM   29  C   UNL     1     -44.593  54.450 -59.920  1.00  0.00     0.149 C 
HETATM   30  C   UNL     1     -46.267  56.223 -60.301  1.00  0.00     0.149 C 
ENDBRANCH  25  28
ENDBRANCH  19  22
ENDBRANCH  17  18
ENDBRANCH  16  17
ENDBRANCH   1  16
BRANCH  12  31
HETATM   31  O   UNL     1     -39.381  49.406 -53.326  1.00  0.00    -0.356 OA
HETATM   32  C   UNL     1     -39.670  49.665 -54.694  1.00  0.00     0.210 C 
ENDBRANCH  12  31
TORSDOF 6
ENDMDL
MODEL 2
REMARK VINA RESULT:      -8.3      3.410     10.531
REMARK  6 active torsions:
REMARK  status: ('A' for Active; 'I' for Inactive)
REMARK    1  A    between atoms: N_2  and  C_3 
REMARK    2  A    between atoms: C_6  and  C_7 
REMARK       I    between atoms: C_7  and  N_8 
REMARK    3  A    between atoms: N_8  and  C_9 
REMARK    4  A    between atoms: C_9  and  C_10 
REMARK    5  A    between atoms: C_10  and  C_11 
REMARK    6  A    between atoms: C_22  and  O_23 
ROOT
HETATM    1  C   UNL     1     -43.311  56.696 -57.622  1.00  0.00     0.158 A 
HETATM    2  N   UNL     1     -43.231  55.431 -58.052  1.00  0.00    -0.111 NA
HETATM    3  O   UNL     1     -44.253  55.351 -58.998  1.00  0.00    -0.189 OA
HETATM    4  C   UNL     1     -44.843  56.586 -59.054  1.00  0.00     0.223 A 
HETATM    5  C   UNL     1     -45.926  56.910 -59.920  1.00  0.00     0.089 A 
HETATM    6  N   UNL     1     -46.522  58.145 -59.908  1.00  0.00    -0.352 N 
HETATM    7  H   UNL     1     -46.252  58.903 -59.296  1.00  0.00     0.166 HD
HETATM    8  C   UNL     1     -47.527  58.202 -60.846  1.00  0.00     0.045 A 
HETATM    9  C   UNL     1     -47.575  56.958 -61.472  1.00  0.00    -0.007 A 
HETATM   10  C   UNL     1     -46.566  56.149 -60.877  1.00  0.00     0.048 A 
HETATM   11  C   UNL     1     -48.391  59.249 -61.189  1.00  0.00     0.067 A 
HETATM   12  C   UNL     1     -49.329  59.030 -62.206  1.00  0.00     0.070 A 
HETATM   13  C   UNL     1     -49.395  57.792 -62.845  1.00  0.00     0.038 A 
HETATM   14  C   UNL     1     -48.526  56.749 -62.487  1.00  0.00     0.016 A 
HETATM   15  N   UNL     1     -44.288  57.449 -58.227  1.00  0.00    -0.203 NA
ENDROOT
BRANCH   1  16
HETATM   16  C   UNL     1     -42.361  57.242 -56.621  1.00  0.00     0.103 C 
BRANCH  16  17
HETATM   17  C   UNL     1     -42.859  57.104 -55.181  1.00  0.00     0.133 C 
BRANCH  17  18
HETATM   18  N   UNL     1     -42.518  55.804 -54.592  1.00  0.00    -0.352 N 
HETATM   19  C   UNL     1     -41.240  55.652 -54.053  1.00  0.00     0.253 C 
HETATM   20  O   UNL     1     -40.445  56.584 -53.953  1.00  0.00    -0.267 OA
HETATM   21  C   UNL     1     -43.603  54.842 -54.446  1.00  0.00     0.152 C 
BRANCH  19  22
HETATM   22  C   UNL     1     -40.802  54.320 -53.578  1.00  0.00     0.032 A 
HETATM   23  C   UNL     1     -40.421  53.320 -54.471  1.00  0.00     0.019 A 
HETATM   24  C   UNL     1     -39.990  52.078 -53.985  1.00  0.00     0.030 A 
HETATM   25  C   UNL     1     -39.893  51.806 -52.608  1.00  0.00     0.029 A 
HETATM   26  C   UNL     1     -40.274  52.846 -51.737  1.00  0.00     0.030 A 
HETATM   27  C   UNL     1     -40.711  54.090 -52.207  1.00  0.00     0.019 A 
BRANCH  25  28
HETATM   28  N   UNL     1     -39.478  50.563 -52.109  1.00  0.00    -0.390 N 
HETATM   29  C   UNL     1     -39.768  50.219 -50.718  1.00  0.00     0.149 C 
HETATM   30  C   UNL     1     -39.521  49.437 -53.046  1.00  0.00     0.149 C 
ENDBRANCH  25  28
ENDBRANCH  19  22
ENDBRANCH  17  18
ENDBRANCH  16  17
ENDBRANCH   1  16
BRANCH  12  31
HETATM   31  O   UNL     1     -50.125  60.112 -62.476  1.00  0.00    -0.356 OA
HETATM   32  C   UNL     1     -51.399  60.147 -61.847  1.00  0.00     0.210 C 
ENDBRANCH  12  31
TORSDOF 6
ENDMDL
MODEL 3
REMARK VINA RESULT:      -8.2      4.926      8.228
REMARK  6 active torsions:
REMARK  status: ('A' for Active; 'I' for Inactive)
REMARK    1  A    between atoms: N_2  and  C_3 
REMARK    2  A    between atoms: C_6  and  C_7 
REMARK       I    between atoms: C_7  and  N_8 
REMARK    3  A    between atoms: N_8  and  C_9 
REMARK    4  A    between atoms: C_9  and  C_10 
REMARK    5  A    between atoms: C_10  and  C_11 
REMARK    6  A    between atoms: C_22  and  O_23 
ROOT
HETATM    1  C   UNL     1     -42.523  59.129 -53.344  1.00  0.00     0.158 A 
HETATM    2  N   UNL     1     -42.464  59.128 -54.681  1.00  0.00    -0.111 NA
HETATM    3  O   UNL     1     -41.962  57.861 -54.977  1.00  0.00    -0.189 OA
HETATM    4  C   UNL     1     -41.778  57.216 -53.782  1.00  0.00     0.223 A 
HETATM    5  C   UNL     1     -41.288  55.884 -53.666  1.00  0.00     0.089 A 
HETATM    6  N   UNL     1     -41.069  55.292 -52.448  1.00  0.00    -0.352 N 
HETATM    7  H   UNL     1     -41.230  55.745 -51.558  1.00  0.00     0.166 HD
HETATM    8  C   UNL     1     -40.612  54.005 -52.614  1.00  0.00     0.045 A 
HETATM    9  C   UNL     1     -40.531  53.773 -53.986  1.00  0.00    -0.007 A 
HETATM   10  C   UNL     1     -40.953  54.964 -54.640  1.00  0.00     0.048 A 
HETATM   11  C   UNL     1     -40.267  53.034 -51.666  1.00  0.00     0.067 A 
HETATM   12  C   UNL     1     -39.833  51.784 -52.124  1.00  0.00     0.070 A 
HETATM   13  C   UNL     1     -39.743  51.530 -53.493  1.00  0.00     0.038 A 
HETATM   14  C   UNL     1     -40.088  52.514 -54.432  1.00  0.00     0.016 A 
HETATM   15  N   UNL     1     -42.119  57.959 -52.749  1.00  0.00    -0.203 NA
ENDROOT
BRANCH   1  16
HETATM   16  C   UNL     1     -43.055  60.290 -52.586  1.00  0.00     0.103 C 
BRANCH  16  17
HETATM   17  C   UNL     1     -44.226  59.925 -51.672  1.00  0.00     0.133 C 
BRANCH  17  18
HETATM   18  N   UNL     1     -44.299  60.783 -50.485  1.00  0.00    -0.352 N 
HETATM   19  C   UNL     1     -45.257  60.475 -49.519  1.00  0.00     0.253 C 
HETATM   20  O   UNL     1     -45.954  59.463 -49.572  1.00  0.00    -0.267 OA
HETATM   21  C   UNL     1     -43.239  61.771 -50.319  1.00  0.00     0.152 C 
BRANCH  19  22
HETATM   22  C   UNL     1     -45.465  61.393 -48.376  1.00  0.00     0.032 A 
HETATM   23  C   UNL     1     -46.273  62.523 -48.490  1.00  0.00     0.019 A 
HETATM   24  C   UNL     1     -46.464  63.359 -47.381  1.00  0.00     0.030 A 
HETATM   25  C   UNL     1     -45.891  63.079 -46.126  1.00  0.00     0.029 A 
HETATM   26  C   UNL     1     -45.092  61.921 -46.048  1.00  0.00     0.030 A 
HETATM   27  C   UNL     1     -44.887  61.080 -47.148  1.00  0.00     0.019 A 
BRANCH  25  28
HETATM   28  N   UNL     1     -46.062  63.913 -45.013  1.00  0.00    -0.390 N 
HETATM   29  C   UNL     1     -47.409  64.146 -44.495  1.00  0.00     0.149 C 
HETATM   30  C   UNL     1     -45.009  63.866 -43.994  1.00  0.00     0.149 C 
ENDBRANCH  25  28
ENDBRANCH  19  22
ENDBRANCH  17  18
ENDBRANCH  16  17
ENDBRANCH   1  16
BRANCH  12  31
HETATM   31  O   UNL     1     -39.525  50.898 -51.125  1.00  0.00    -0.356 OA
HETATM   32  C   UNL     1     -39.606  49.515 -51.443  1.00  0.00     0.210 C 
ENDBRANCH  12  31
TORSDOF 6
ENDMDL
MODEL 4
REMARK VINA RESULT:      -8.1      3.564      4.617
REMARK  6 active torsions:
REMARK  status: ('A' for Active; 'I' for Inactive)
REMARK    1  A    between atoms: N_2  and  C_3 
REMARK    2  A    between atoms: C_6  and  C_7 
REMARK       I    between atoms: C_7  and  N_8 
REMARK    3  A    between atoms: N_8  and  C_9 
REMARK    4  A    between atoms: C_9  and  C_10 
REMARK    5  A    between atoms: C_10  and  C_11 
REMARK    6  A    between atoms: C_22  and  O_23 
ROOT
HETATM    1  C   UNL     1     -44.551  57.721 -54.424  1.00  0.00     0.158 A 
HETATM    2  N   UNL     1     -44.618  58.183 -53.170  1.00  0.00    -0.111 NA
HETATM    3  O   UNL     1     -43.823  57.284 -52.457  1.00  0.00    -0.189 OA
HETATM    4  C   UNL     1     -43.343  56.373 -53.360  1.00  0.00     0.223 A 
HETATM    5  C   UNL     1     -42.476  55.297 -53.016  1.00  0.00     0.089 A 
HETATM    6  N   UNL     1     -42.059  54.375 -53.943  1.00  0.00    -0.352 N 
HETATM    7  H   UNL     1     -42.331  54.382 -54.916  1.00  0.00     0.166 HD
HETATM    8  C   UNL     1     -41.220  53.454 -53.358  1.00  0.00     0.045 A 
HETATM    9  C   UNL     1     -41.105  53.799 -52.013  1.00  0.00    -0.007 A 
HETATM   10  C   UNL     1     -41.904  54.958 -51.807  1.00  0.00     0.048 A 
HETATM   11  C   UNL     1     -40.557  52.351 -53.910  1.00  0.00     0.067 A 
HETATM   12  C   UNL     1     -39.744  51.576 -53.072  1.00  0.00     0.070 A 
HETATM   13  C   UNL     1     -39.616  51.903 -51.722  1.00  0.00     0.038 A 
HETATM   14  C   UNL     1     -40.290  53.009 -51.181  1.00  0.00     0.016 A 
HETATM   15  N   UNL     1     -43.761  56.609 -54.587  1.00  0.00    -0.203 NA
ENDROOT
BRANCH   1  16
HETATM   16  C   UNL     1     -45.227  58.415 -55.549  1.00  0.00     0.103 C 
BRANCH  16  17
HETATM   17  C   UNL     1     -44.691  57.999 -56.920  1.00  0.00     0.133 C 
BRANCH  17  18
HETATM   18  N   UNL     1     -44.068  59.114 -57.642  1.00  0.00    -0.352 N 
HETATM   19  C   UNL     1     -42.762  58.942 -58.100  1.00  0.00     0.253 C 
HETATM   20  O   UNL     1     -42.166  57.869 -58.023  1.00  0.00    -0.267 OA
HETATM   21  C   UNL     1     -44.931  60.238 -57.987  1.00  0.00     0.152 C 
BRANCH  19  22
HETATM   22  C   UNL     1     -42.043  60.086 -58.705  1.00  0.00     0.032 A 
HETATM   23  C   UNL     1     -41.263  60.944 -57.932  1.00  0.00     0.019 A 
HETATM   24  C   UNL     1     -40.579  62.004 -58.542  1.00  0.00     0.030 A 
HETATM   25  C   UNL     1     -40.621  62.221 -59.932  1.00  0.00     0.029 A 
HETATM   26  C   UNL     1     -41.409  61.325 -60.680  1.00  0.00     0.030 A 
HETATM   27  C   UNL     1     -42.102  60.264 -60.085  1.00  0.00     0.019 A 
BRANCH  25  28
HETATM   28  N   UNL     1     -39.953  63.286 -60.553  1.00  0.00    -0.390 N 
HETATM   29  C   UNL     1     -39.004  64.082 -59.778  1.00  0.00     0.149 C 
HETATM   30  C   UNL     1     -39.597  63.098 -61.962  1.00  0.00     0.149 C 
ENDBRANCH  25  28
ENDBRANCH  19  22
ENDBRANCH  17  18
ENDBRANCH  16  17
ENDBRANCH   1  16
BRANCH  12  31
HETATM   31  O   UNL     1     -39.133  50.525 -53.701  1.00  0.00    -0.356 OA
HETATM   32  C   UNL     1     -39.900  49.819 -54.668  1.00  0.00     0.210 C 
ENDBRANCH  12  31
TORSDOF 6
ENDMDL
MODEL 5
REMARK VINA RESULT:      -8.1      2.328      8.175
REMARK  6 active torsions:
REMARK  status: ('A' for Active; 'I' for Inactive)
REMARK    1  A    between atoms: N_2  and  C_3 
REMARK    2  A    between atoms: C_6  and  C_7 
REMARK       I    between atoms: C_7  and  N_8 
REMARK    3  A    between atoms: N_8  and  C_9 
REMARK    4  A    between atoms: C_9  and  C_10 
REMARK    5  A    between atoms: C_10  and  C_11 
REMARK    6  A    between atoms: C_22  and  O_23 
ROOT
HETATM    1  C   UNL     1     -44.685  58.266 -52.455  1.00  0.00     0.158 A 
HETATM    2  N   UNL     1     -44.887  59.587 -52.518  1.00  0.00    -0.111 NA
HETATM    3  O   UNL     1     -44.863  59.849 -53.888  1.00  0.00    -0.189 OA
HETATM    4  C   UNL     1     -44.660  58.650 -54.519  1.00  0.00     0.223 A 
HETATM    5  C   UNL     1     -44.588  58.500 -55.933  1.00  0.00     0.089 A 
HETATM    6  N   UNL     1     -44.332  57.288 -56.524  1.00  0.00    -0.352 N 
HETATM    7  H   UNL     1     -44.172  56.429 -56.016  1.00  0.00     0.166 HD
HETATM    8  C   UNL     1     -44.331  57.414 -57.894  1.00  0.00     0.045 A 
HETATM    9  C   UNL     1     -44.590  58.752 -58.184  1.00  0.00    -0.007 A 
HETATM   10  C   UNL     1     -44.744  59.429 -56.942  1.00  0.00     0.048 A 
HETATM   11  C   UNL     1     -44.124  56.455 -58.894  1.00  0.00     0.067 A 
HETATM   12  C   UNL     1     -44.190  56.865 -60.232  1.00  0.00     0.070 A 
HETATM   13  C   UNL     1     -44.446  58.200 -60.544  1.00  0.00     0.038 A 
HETATM   14  C   UNL     1     -44.647  59.151 -59.532  1.00  0.00     0.016 A 
HETATM   15  N   UNL     1     -44.552  57.645 -53.673  1.00  0.00    -0.203 NA
ENDROOT
BRANCH   1  16
HETATM   16  C   UNL     1     -44.681  57.537 -51.162  1.00  0.00     0.103 C 
BRANCH  16  17
HETATM   17  C   UNL     1     -43.272  57.242 -50.643  1.00  0.00     0.133 C 
BRANCH  17  18
HETATM   18  N   UNL     1     -42.828  55.882 -50.968  1.00  0.00    -0.352 N 
HETATM   19  C   UNL     1     -41.476  55.693 -51.257  1.00  0.00     0.253 C 
HETATM   20  O   UNL     1     -40.639  56.587 -51.139  1.00  0.00    -0.267 OA
HETATM   21  C   UNL     1     -43.796  54.809 -50.777  1.00  0.00     0.152 C 
BRANCH  19  22
HETATM   22  C   UNL     1     -41.008  54.371 -51.730  1.00  0.00     0.032 A 
HETATM   23  C   UNL     1     -41.123  53.996 -53.067  1.00  0.00     0.019 A 
HETATM   24  C   UNL     1     -40.649  52.744 -53.484  1.00  0.00     0.030 A 
HETATM   25  C   UNL     1     -40.020  51.850 -52.598  1.00  0.00     0.029 A 
HETATM   26  C   UNL     1     -39.909  52.271 -51.258  1.00  0.00     0.030 A 
HETATM   27  C   UNL     1     -40.383  53.516 -50.826  1.00  0.00     0.019 A 
BRANCH  25  28
HETATM   28  N   UNL     1     -39.554  50.590 -52.998  1.00  0.00    -0.390 N 
HETATM   29  C   UNL     1     -39.600  49.477 -52.051  1.00  0.00     0.149 C 
HETATM   30  C   UNL     1     -39.793  50.220 -54.397  1.00  0.00     0.149 C 
ENDBRANCH  25  28
ENDBRANCH  19  22
ENDBRANCH  17  18
ENDBRANCH  16  17
ENDBRANCH   1  16
BRANCH  12  31
HETATM   31  O   UNL     1     -43.982  55.858 -61.137  1.00  0.00    -0.356 OA
HETATM   32  C   UNL     1     -45.042  54.929 -61.320  1.00  0.00     0.210 C 
ENDBRANCH  12  31
TORSDOF 6
ENDMDL
MODEL 6
REMARK VINA RESULT:      -8.1      1.655      2.255
REMARK  6 active torsions:
REMARK  status: ('A' for Active; 'I' for Inactive)
REMARK    1  A    between atoms: N_2  and  C_3 
REMARK    2  A    between atoms: C_6  and  C_7 
REMARK       I    between atoms: C_7  and  N_8 
REMARK    3  A    between atoms: N_8  and  C_9 
REMARK    4  A    between atoms: C_9  and  C_10 
REMARK    5  A    between atoms: C_10  and  C_11 
REMARK    6  A    between atoms: C_22  and  O_23 
ROOT
HETATM    1  C   UNL     1     -42.313  59.537 -52.930  1.00  0.00     0.158 A 
HETATM    2  N   UNL     1     -42.231  59.632 -51.597  1.00  0.00    -0.111 NA
HETATM    3  O   UNL     1     -41.844  58.349 -51.210  1.00  0.00    -0.189 OA
HETATM    4  C   UNL     1     -41.718  57.607 -52.355  1.00  0.00     0.223 A 
HETATM    5  C   UNL     1     -41.322  56.240 -52.375  1.00  0.00     0.089 A 
HETATM    6  N   UNL     1     -41.259  55.518 -53.540  1.00  0.00    -0.352 N 
HETATM    7  H   UNL     1     -41.487  55.888 -54.453  1.00  0.00     0.166 HD
HETATM    8  C   UNL     1     -40.836  54.233 -53.286  1.00  0.00     0.045 A 
HETATM    9  C   UNL     1     -40.630  54.133 -51.912  1.00  0.00    -0.007 A 
HETATM   10  C   UNL     1     -40.945  55.401 -51.346  1.00  0.00     0.048 A 
HETATM   11  C   UNL     1     -40.621  53.159 -54.158  1.00  0.00     0.067 A 
HETATM   12  C   UNL     1     -40.173  51.946 -53.620  1.00  0.00     0.070 A 
HETATM   13  C   UNL     1     -39.962  51.823 -52.247  1.00  0.00     0.038 A 
HETATM   14  C   UNL     1     -40.187  52.907 -51.384  1.00  0.00     0.016 A 
HETATM   15  N   UNL     1     -41.991  58.303 -53.440  1.00  0.00    -0.203 NA
ENDROOT
BRANCH   1  16
HETATM   16  C   UNL     1     -42.658  60.707 -53.777  1.00  0.00     0.103 C 
BRANCH  16  17
HETATM   17  C   UNL     1     -44.150  60.797 -54.099  1.00  0.00     0.133 C 
BRANCH  17  18
HETATM   18  N   UNL     1     -44.471  60.258 -55.425  1.00  0.00    -0.352 N 
HETATM   19  C   UNL     1     -45.033  58.983 -55.489  1.00  0.00     0.253 C 
HETATM   20  O   UNL     1     -45.368  58.353 -54.487  1.00  0.00    -0.267 OA
HETATM   21  C   UNL     1     -44.355  61.174 -56.554  1.00  0.00     0.152 C 
BRANCH  19  22
HETATM   22  C   UNL     1     -45.241  58.341 -56.806  1.00  0.00     0.032 A 
HETATM   23  C   UNL     1     -44.196  57.712 -57.480  1.00  0.00     0.019 A 
HETATM   24  C   UNL     1     -44.433  57.095 -58.716  1.00  0.00     0.030 A 
HETATM   25  C   UNL     1     -45.714  57.055 -59.299  1.00  0.00     0.029 A 
HETATM   26  C   UNL     1     -46.747  57.690 -58.580  1.00  0.00     0.030 A 
HETATM   27  C   UNL     1     -46.524  58.314 -57.348  1.00  0.00     0.019 A 
BRANCH  25  28
HETATM   28  N   UNL     1     -45.963  56.455 -60.540  1.00  0.00    -0.390 N 
HETATM   29  C   UNL     1     -45.086  55.380 -61.002  1.00  0.00     0.149 C 
HETATM   30  C   UNL     1     -47.370  56.312 -60.925  1.00  0.00     0.149 C 
ENDBRANCH  25  28
ENDBRANCH  19  22
ENDBRANCH  17  18
ENDBRANCH  16  17
ENDBRANCH   1  16
BRANCH  12  31
HETATM   31  O   UNL     1     -39.984  50.957 -54.549  1.00  0.00    -0.356 OA
HETATM   32  C   UNL     1     -39.511  49.705 -54.069  1.00  0.00     0.210 C 
ENDBRANCH  12  31
TORSDOF 6
ENDMDL
MODEL 7
REMARK VINA RESULT:      -8.1      2.210      7.894
REMARK  6 active torsions:
REMARK  status: ('A' for Active; 'I' for Inactive)
REMARK    1  A    between atoms: N_2  and  C_3 
REMARK    2  A    between atoms: C_6  and  C_7 
REMARK       I    between atoms: C_7  and  N_8 
REMARK    3  A    between atoms: N_8  and  C_9 
REMARK    4  A    between atoms: C_9  and  C_10 
REMARK    5  A    between atoms: C_10  and  C_11 
REMARK    6  A    between atoms: C_22  and  O_23 
ROOT
HETATM    1  C   UNL     1     -42.310  59.231 -52.765  1.00  0.00     0.158 A 
HETATM    2  N   UNL     1     -41.465  60.227 -53.053  1.00  0.00    -0.111 NA
HETATM    3  O   UNL     1     -41.355  60.160 -54.442  1.00  0.00    -0.189 OA
HETATM    4  C   UNL     1     -42.159  59.132 -54.857  1.00  0.00     0.223 A 
HETATM    5  C   UNL     1     -42.328  58.756 -56.220  1.00  0.00     0.089 A 
HETATM    6  N   UNL     1     -43.103  57.686 -56.589  1.00  0.00    -0.352 N 
HETATM    7  H   UNL     1     -43.599  57.092 -55.940  1.00  0.00     0.166 HD
HETATM    8  C   UNL     1     -43.110  57.549 -57.959  1.00  0.00     0.045 A 
HETATM    9  C   UNL     1     -42.307  58.563 -58.477  1.00  0.00    -0.007 A 
HETATM   10  C   UNL     1     -41.814  59.314 -57.373  1.00  0.00     0.048 A 
HETATM   11  C   UNL     1     -43.760  56.615 -58.774  1.00  0.00     0.067 A 
HETATM   12  C   UNL     1     -43.597  56.717 -60.162  1.00  0.00     0.070 A 
HETATM   13  C   UNL     1     -42.796  57.723 -60.702  1.00  0.00     0.038 A 
HETATM   14  C   UNL     1     -42.146  58.650 -59.872  1.00  0.00     0.016 A 
HETATM   15  N   UNL     1     -42.774  58.535 -53.855  1.00  0.00    -0.203 NA
ENDROOT
BRANCH   1  16
HETATM   16  C   UNL     1     -42.755  58.960 -51.375  1.00  0.00     0.103 C 
BRANCH  16  17
HETATM   17  C   UNL     1     -43.424  57.594 -51.212  1.00  0.00     0.133 C 
BRANCH  17  18
HETATM   18  N   UNL     1     -42.463  56.488 -51.272  1.00  0.00    -0.352 N 
HETATM   19  C   UNL     1     -42.709  55.463 -52.186  1.00  0.00     0.253 C 
HETATM   20  O   UNL     1     -43.624  55.509 -53.007  1.00  0.00    -0.267 OA
HETATM   21  C   UNL     1     -41.231  56.644 -50.508  1.00  0.00     0.152 C 
BRANCH  19  22
HETATM   22  C   UNL     1     -41.849  54.259 -52.182  1.00  0.00     0.032 A 
HETATM   23  C   UNL     1     -41.615  53.537 -51.013  1.00  0.00     0.019 A 
HETATM   24  C   UNL     1     -40.811  52.389 -51.050  1.00  0.00     0.030 A 
HETATM   25  C   UNL     1     -40.250  51.907 -52.248  1.00  0.00     0.029 A 
HETATM   26  C   UNL     1     -40.521  52.656 -53.410  1.00  0.00     0.030 A 
HETATM   27  C   UNL     1     -41.316  53.808 -53.387  1.00  0.00     0.019 A 
BRANCH  25  28
HETATM   28  N   UNL     1     -39.434  50.769 -52.297  1.00  0.00    -0.390 N 
HETATM   29  C   UNL     1     -39.206  49.999 -51.076  1.00  0.00     0.149 C 
HETATM   30  C   UNL     1     -39.501  49.972 -53.526  1.00  0.00     0.149 C 
ENDBRANCH  25  28
ENDBRANCH  19  22
ENDBRANCH  17  18
ENDBRANCH  16  17
ENDBRANCH   1  16
BRANCH  12  31
HETATM   31  O   UNL     1     -44.276  55.765 -60.877  1.00  0.00    -0.356 OA
HETATM   32  C   UNL     1     -44.768  54.646 -60.152  1.00  0.00     0.210 C 
ENDBRANCH  12  31
TORSDOF 6
ENDMDL
MODEL 8
REMARK VINA RESULT:      -8.0      2.305      7.714
REMARK  6 active torsions:
REMARK  status: ('A' for Active; 'I' for Inactive)
REMARK    1  A    between atoms: N_2  and  C_3 
REMARK    2  A    between atoms: C_6  and  C_7 
REMARK       I    between atoms: C_7  and  N_8 
REMARK    3  A    between atoms: N_8  and  C_9 
REMARK    4  A    between atoms: C_9  and  C_10 
REMARK    5  A    between atoms: C_10  and  C_11 
REMARK    6  A    between atoms: C_22  and  O_23 
ROOT
HETATM    1  C   UNL     1     -42.902  59.966 -53.430  1.00  0.00     0.158 A 
HETATM    2  N   UNL     1     -41.611  60.166 -53.720  1.00  0.00    -0.111 NA
HETATM    3  O   UNL     1     -41.474  59.589 -54.982  1.00  0.00    -0.189 OA
HETATM    4  C   UNL     1     -42.707  59.107 -55.336  1.00  0.00     0.223 A 
HETATM    5  C   UNL     1     -42.979  58.455 -56.572  1.00  0.00     0.089 A 
HETATM    6  N   UNL     1     -44.216  57.940 -56.866  1.00  0.00    -0.352 N 
HETATM    7  H   UNL     1     -45.011  57.976 -56.243  1.00  0.00     0.166 HD
HETATM    8  C   UNL     1     -44.216  57.380 -58.123  1.00  0.00     0.045 A 
HETATM    9  C   UNL     1     -42.934  57.539 -58.643  1.00  0.00    -0.007 A 
HETATM   10  C   UNL     1     -42.160  58.212 -57.656  1.00  0.00     0.048 A 
HETATM   11  C   UNL     1     -45.244  56.751 -58.837  1.00  0.00     0.067 A 
HETATM   12  C   UNL     1     -44.963  56.274 -60.124  1.00  0.00     0.070 A 
HETATM   13  C   UNL     1     -43.685  56.421 -60.663  1.00  0.00     0.038 A 
HETATM   14  C   UNL     1     -42.663  57.050 -59.935  1.00  0.00     0.016 A 
HETATM   15  N   UNL     1     -43.619  59.324 -54.410  1.00  0.00    -0.203 NA
ENDROOT
BRANCH   1  16
HETATM   16  C   UNL     1     -43.508  60.470 -52.172  1.00  0.00     0.103 C 
BRANCH  16  17
HETATM   17  C   UNL     1     -43.084  59.672 -50.938  1.00  0.00     0.133 C 
BRANCH  17  18
HETATM   18  N   UNL     1     -42.870  58.252 -51.235  1.00  0.00    -0.352 N 
HETATM   19  C   UNL     1     -41.560  57.774 -51.209  1.00  0.00     0.253 C 
HETATM   20  O   UNL     1     -40.608  58.461 -50.841  1.00  0.00    -0.267 OA
HETATM   21  C   UNL     1     -44.059  57.415 -51.344  1.00  0.00     0.152 C 
BRANCH  19  22
HETATM   22  C   UNL     1     -41.280  56.386 -51.640  1.00  0.00     0.032 A 
HETATM   23  C   UNL     1     -41.222  56.043 -52.990  1.00  0.00     0.019 A 
HETATM   24  C   UNL     1     -40.933  54.723 -53.363  1.00  0.00     0.030 A 
HETATM   25  C   UNL     1     -40.660  53.720 -52.414  1.00  0.00     0.029 A 
HETATM   26  C   UNL     1     -40.714  54.109 -51.061  1.00  0.00     0.030 A 
HETATM   27  C   UNL     1     -41.007  55.422 -50.673  1.00  0.00     0.019 A 
BRANCH  25  28
HETATM   28  N   UNL     1     -40.383  52.394 -52.772  1.00  0.00    -0.390 N 
HETATM   29  C   UNL     1     -40.290  52.041 -54.187  1.00  0.00     0.149 C 
HETATM   30  C   UNL     1     -39.473  51.656 -51.890  1.00  0.00     0.149 C 
ENDBRANCH  25  28
ENDBRANCH  19  22
ENDBRANCH  17  18
ENDBRANCH  16  17
ENDBRANCH   1  16
BRANCH  12  31
HETATM   31  O   UNL     1     -46.029  55.680 -60.746  1.00  0.00    -0.356 OA
HETATM   32  C   UNL     1     -47.245  56.417 -60.782  1.00  0.00     0.210 C 
ENDBRANCH  12  31
TORSDOF 6
ENDMDL
MODEL 9
REMARK VINA RESULT:      -7.9     15.143     18.559
REMARK  6 active torsions:
REMARK  status: ('A' for Active; 'I' for Inactive)
REMARK    1  A    between atoms: N_2  and  C_3 
REMARK    2  A    between atoms: C_6  and  C_7 
REMARK       I    between atoms: C_7  and  N_8 
REMARK    3  A    between atoms: N_8  and  C_9 
REMARK    4  A    between atoms: C_9  and  C_10 
REMARK    5  A    between atoms: C_10  and  C_11 
REMARK    6  A    between atoms: C_22  and  O_23 
ROOT
HETATM    1  C   UNL     1     -36.101  41.148 -52.266  1.00  0.00     0.158 A 
HETATM    2  N   UNL     1     -35.730  42.430 -52.357  1.00  0.00    -0.111 NA
HETATM    3  O   UNL     1     -35.871  42.707 -53.717  1.00  0.00    -0.189 OA
HETATM    4  C   UNL     1     -36.329  41.562 -54.312  1.00  0.00     0.223 A 
HETATM    5  C   UNL     1     -36.612  41.448 -55.703  1.00  0.00     0.089 A 
HETATM    6  N   UNL     1     -37.020  40.267 -56.268  1.00  0.00    -0.352 N 
HETATM    7  H   UNL     1     -37.144  39.403 -55.758  1.00  0.00     0.166 HD
HETATM    8  C   UNL     1     -37.241  40.431 -57.617  1.00  0.00     0.045 A 
HETATM    9  C   UNL     1     -36.957  41.761 -57.920  1.00  0.00    -0.007 A 
HETATM   10  C   UNL     1     -36.557  42.392 -56.709  1.00  0.00     0.048 A 
HETATM   11  C   UNL     1     -37.667  39.514 -58.586  1.00  0.00     0.067 A 
HETATM   12  C   UNL     1     -37.818  39.963 -59.904  1.00  0.00     0.070 A 
HETATM   13  C   UNL     1     -37.538  41.290 -60.230  1.00  0.00     0.038 A 
HETATM   14  C   UNL     1     -37.107  42.197 -59.249  1.00  0.00     0.016 A 
HETATM   15  N   UNL     1     -36.492  40.576 -53.453  1.00  0.00    -0.203 NA
ENDROOT
BRANCH   1  16
HETATM   16  C   UNL     1     -36.149  40.439 -50.963  1.00  0.00     0.103 C 
BRANCH  16  17
HETATM   17  C   UNL     1     -34.834  39.742 -50.609  1.00  0.00     0.133 C 
BRANCH  17  18
HETATM   18  N   UNL     1     -34.135  39.229 -51.792  1.00  0.00    -0.352 N 
HETATM   19  C   UNL     1     -33.048  39.961 -52.271  1.00  0.00     0.253 C 
HETATM   20  O   UNL     1     -32.593  40.940 -51.682  1.00  0.00    -0.267 OA
HETATM   21  C   UNL     1     -34.511  37.899 -52.254  1.00  0.00     0.152 C 
BRANCH  19  22
HETATM   22  C   UNL     1     -32.402  39.562 -53.542  1.00  0.00     0.032 A 
HETATM   23  C   UNL     1     -32.628  40.265 -54.724  1.00  0.00     0.019 A 
HETATM   24  C   UNL     1     -31.983  39.873 -55.904  1.00  0.00     0.030 A 
HETATM   25  C   UNL     1     -31.074  38.798 -55.938  1.00  0.00     0.029 A 
HETATM   26  C   UNL     1     -30.862  38.121 -54.721  1.00  0.00     0.030 A 
HETATM   27  C   UNL     1     -31.503  38.498 -53.535  1.00  0.00     0.019 A 
BRANCH  25  28
HETATM   28  N   UNL     1     -30.433  38.386 -57.114  1.00  0.00    -0.390 N 
HETATM   29  C   UNL     1     -28.981  38.218 -57.115  1.00  0.00     0.149 C 
HETATM   30  C   UNL     1     -31.165  37.435 -57.957  1.00  0.00     0.149 C 
ENDBRANCH  25  28
ENDBRANCH  19  22
ENDBRANCH  17  18
ENDBRANCH  16  17
ENDBRANCH   1  16
BRANCH  12  31
HETATM   31  O   UNL     1     -38.245  38.998 -60.778  1.00  0.00    -0.356 OA
HETATM   32  C   UNL     1     -39.334  38.187 -60.360  1.00  0.00     0.210 C 
ENDBRANCH  12  31
TORSDOF 6
ENDMDL
MODEL 10
REMARK VINA RESULT:      -7.8      2.933      8.908
REMARK  6 active torsions:
REMARK  status: ('A' for Active; 'I' for Inactive)
REMARK    1  A    between atoms: N_2  and  C_3 
REMARK    2  A    between atoms: C_6  and  C_7 
REMARK       I    between atoms: C_7  and  N_8 
REMARK    3  A    between atoms: N_8  and  C_9 
REMARK    4  A    between atoms: C_9  and  C_10 
REMARK    5  A    between atoms: C_10  and  C_11 
REMARK    6  A    between atoms: C_22  and  O_23 
ROOT
HETATM    1  C   UNL     1     -44.377  57.771 -53.622  1.00  0.00     0.158 A 
HETATM    2  N   UNL     1     -44.782  56.756 -54.395  1.00  0.00    -0.111 NA
HETATM    3  O   UNL     1     -44.391  57.152 -55.674  1.00  0.00    -0.189 OA
HETATM    4  C   UNL     1     -43.773  58.368 -55.543  1.00  0.00     0.223 A 
HETATM    5  C   UNL     1     -43.219  59.098 -56.633  1.00  0.00     0.089 A 
HETATM    6  N   UNL     1     -42.655  60.337 -56.466  1.00  0.00    -0.352 N 
HETATM    7  H   UNL     1     -42.594  60.821 -55.581  1.00  0.00     0.166 HD
HETATM    8  C   UNL     1     -42.183  60.815 -57.667  1.00  0.00     0.045 A 
HETATM    9  C   UNL     1     -42.463  59.849 -58.631  1.00  0.00    -0.007 A 
HETATM   10  C   UNL     1     -43.120  58.774 -57.971  1.00  0.00     0.048 A 
HETATM   11  C   UNL     1     -41.535  62.018 -57.975  1.00  0.00     0.067 A 
HETATM   12  C   UNL     1     -41.149  62.244 -59.302  1.00  0.00     0.070 A 
HETATM   13  C   UNL     1     -41.421  61.291 -60.284  1.00  0.00     0.038 A 
HETATM   14  C   UNL     1     -42.076  60.092 -59.962  1.00  0.00     0.016 A 
HETATM   15  N   UNL     1     -43.736  58.784 -54.293  1.00  0.00    -0.203 NA
ENDROOT
BRANCH   1  16
HETATM   16  C   UNL     1     -44.552  57.749 -52.148  1.00  0.00     0.103 C 
BRANCH  16  17
HETATM   17  C   UNL     1     -43.242  57.522 -51.391  1.00  0.00     0.133 C 
BRANCH  17  18
HETATM   18  N   UNL     1     -42.757  56.143 -51.511  1.00  0.00    -0.352 N 
HETATM   19  C   UNL     1     -41.549  55.936 -52.178  1.00  0.00     0.253 C 
HETATM   20  O   UNL     1     -40.834  56.860 -52.562  1.00  0.00    -0.267 OA
HETATM   21  C   UNL     1     -43.478  55.123 -50.759  1.00  0.00     0.152 C 
BRANCH  19  22
HETATM   22  C   UNL     1     -41.092  54.554 -52.450  1.00  0.00     0.032 A 
HETATM   23  C   UNL     1     -41.327  53.940 -53.679  1.00  0.00     0.019 A 
HETATM   24  C   UNL     1     -40.861  52.638 -53.909  1.00  0.00     0.030 A 
HETATM   25  C   UNL     1     -40.123  51.927 -52.945  1.00  0.00     0.029 A 
HETATM   26  C   UNL     1     -39.893  52.587 -51.721  1.00  0.00     0.030 A 
HETATM   27  C   UNL     1     -40.357  53.884 -51.475  1.00  0.00     0.019 A 
BRANCH  25  28
HETATM   28  N   UNL     1     -39.662  50.620 -53.156  1.00  0.00    -0.390 N 
HETATM   29  C   UNL     1     -39.572  49.703 -52.022  1.00  0.00     0.149 C 
HETATM   30  C   UNL     1     -40.038  49.994 -54.428  1.00  0.00     0.149 C 
ENDBRANCH  25  28
ENDBRANCH  19  22
ENDBRANCH  17  18
ENDBRANCH  16  17
ENDBRANCH   1  16
BRANCH  12  31
HETATM   31  O   UNL     1     -40.517  63.442 -59.505  1.00  0.00    -0.356 OA
HETATM   32  C   UNL     1     -39.299  63.411 -60.238  1.00  0.00     0.210 C 
ENDBRANCH  12  31
TORSDOF 6
ENDMDL
