MODEL 1
REMARK VINA RESULT:      -9.6      0.000      0.000
REMARK  6 active torsions:
REMARK  status: ('A' for Active; 'I' for Inactive)
REMARK    1  A    between atoms: C_5  and  N_6 
REMARK    2  A    between atoms: C_8  and  C_9 
REMARK    3  A    between atoms: C_16  and  C_17 
REMARK    4  A    between atoms: C_17  and  N_18 
REMARK    5  A    between atoms: C_22  and  N_23 
REMARK    6  A    between atoms: C_26  and  O_27 
ROOT
HETATM    1  N   UNL     1     -41.957  54.591 -53.069  1.00  0.00    -0.244 N 
HETATM    2  N   UNL     1     -41.480  55.689 -52.444  1.00  0.00    -0.167 NA
HETATM    3  C   UNL     1     -42.422  56.628 -52.552  1.00  0.00     0.097 A 
HETATM    4  C   UNL     1     -43.485  56.188 -53.387  1.00  0.00     0.016 A 
HETATM    5  C   UNL     1     -43.178  54.866 -53.654  1.00  0.00     0.130 A 
ENDROOT
BRANCH   4   6
HETATM    6  C   UNL     1     -44.664  56.949 -53.862  1.00  0.00     0.277 C 
BRANCH   6   7
HETATM    7  N   UNL     1     -44.424  57.772 -55.148  1.00  0.00    -0.067 N 
HETATM    8  H   UNL     1     -44.113  58.692 -54.791  1.00  0.00     0.280 HD
HETATM    9  C   UNL     1     -43.305  57.209 -55.982  1.00  0.00     0.237 C 
HETATM   10  C   UNL     1     -43.141  58.000 -57.261  1.00  0.00     0.061 C 
HETATM   11  C   UNL     1     -44.412  58.082 -58.105  1.00  0.00     0.191 C 
HETATM   12  C   UNL     1     -45.566  58.612 -57.247  1.00  0.00     0.061 C 
HETATM   13  C   UNL     1     -45.729  57.958 -55.875  1.00  0.00     0.237 C 
BRANCH  11  14
HETATM   14  N   UNL     1     -44.749  56.818 -58.929  1.00  0.00    -0.064 N 
HETATM   15  H   UNL     1     -45.327  56.253 -58.283  1.00  0.00     0.280 HD
HETATM   16  C   UNL     1     -45.706  57.103 -60.094  1.00  0.00     0.266 C 
HETATM   17  C   UNL     1     -46.235  55.826 -60.762  1.00  0.00     0.144 C 
HETATM   18  C   UNL     1     -45.094  54.896 -61.152  1.00  0.00     0.035 C 
HETATM   19  C   UNL     1     -44.205  54.604 -59.955  1.00  0.00     0.030 C 
HETATM   20  C   UNL     1     -43.639  55.878 -59.343  1.00  0.00     0.235 C 
BRANCH  17  21
HETATM   21  O   UNL     1     -46.936  56.212 -61.935  1.00  0.00    -0.394 OA
HETATM   22  H   UNL     1     -46.410  56.876 -62.422  1.00  0.00     0.210 HD
ENDBRANCH  17  21
ENDBRANCH  11  14
ENDBRANCH   6   7
ENDBRANCH   4   6
BRANCH   3  23
HETATM   23  C   UNL     1     -42.259  57.922 -51.898  1.00  0.00    -0.005 A 
HETATM   24  C   UNL     1     -40.982  58.366 -51.524  1.00  0.00     0.017 A 
HETATM   25  C   UNL     1     -40.824  59.608 -50.907  1.00  0.00     0.043 A 
HETATM   26  C   UNL     1     -41.941  60.398 -50.658  1.00  0.00     0.116 A 
HETATM   27  F   UNL     1     -41.788  61.592 -50.073  1.00  0.00    -0.206 F 
HETATM   28  C   UNL     1     -43.216  59.963 -50.999  1.00  0.00     0.043 A 
HETATM   29  C   UNL     1     -43.379  58.719 -51.614  1.00  0.00     0.017 A 
ENDBRANCH   3  23
BRANCH   1  30
HETATM   30  C   UNL     1     -41.215  53.381 -53.122  1.00  0.00     0.058 A 
HETATM   31  C   UNL     1     -41.279  52.585 -54.272  1.00  0.00     0.032 A 
HETATM   32  C   UNL     1     -40.566  51.383 -54.342  1.00  0.00     0.009 A 
HETATM   33  C   UNL     1     -39.788  50.957 -53.262  1.00  0.00    -0.062 A 
HETATM   34  C   UNL     1     -39.002  49.678 -53.333  1.00  0.00     0.048 C 
HETATM   35  C   UNL     1     -39.717  51.758 -52.117  1.00  0.00     0.009 A 
HETATM   36  C   UNL     1     -40.424  52.962 -52.041  1.00  0.00     0.032 A 
ENDBRANCH   1  30
TORSDOF 6
ENDMDL
MODEL 2
REMARK VINA RESULT:      -9.5      1.501      2.142
REMARK  6 active torsions:
REMARK  status: ('A' for Active; 'I' for Inactive)
REMARK    1  A    between atoms: C_5  and  N_6 
REMARK    2  A    between atoms: C_8  and  C_9 
REMARK    3  A    between atoms: C_16  and  C_17 
REMARK    4  A    between atoms: C_17  and  N_18 
REMARK    5  A    between atoms: C_22  and  N_23 
REMARK    6  A    between atoms: C_26  and  O_27 
ROOT
HETATM    1  N   UNL     1     -41.203  54.730 -53.682  1.00  0.00    -0.244 N 
HETATM    2  N   UNL     1     -41.244  55.678 -52.720  1.00  0.00    -0.167 NA
HETATM    3  C   UNL     1     -41.784  56.764 -53.277  1.00  0.00     0.097 A 
HETATM    4  C   UNL     1     -41.974  56.577 -54.674  1.00  0.00     0.016 A 
HETATM    5  C   UNL     1     -41.642  55.251 -54.885  1.00  0.00     0.130 A 
ENDROOT
BRANCH   4   6
HETATM    6  C   UNL     1     -42.433  57.558 -55.684  1.00  0.00     0.277 C 
BRANCH   6   7
HETATM    7  N   UNL     1     -42.137  57.161 -57.148  1.00  0.00    -0.067 N 
HETATM    8  H   UNL     1     -41.198  56.729 -57.096  1.00  0.00     0.280 HD
HETATM    9  C   UNL     1     -43.089  56.112 -57.656  1.00  0.00     0.237 C 
HETATM   10  C   UNL     1     -42.810  55.794 -59.109  1.00  0.00     0.061 C 
HETATM   11  C   UNL     1     -42.860  57.014 -60.029  1.00  0.00     0.191 C 
HETATM   12  C   UNL     1     -41.926  58.103 -59.490  1.00  0.00     0.061 C 
HETATM   13  C   UNL     1     -42.046  58.403 -57.996  1.00  0.00     0.237 C 
BRANCH  11  14
HETATM   14  N   UNL     1     -44.275  57.507 -60.407  1.00  0.00    -0.064 N 
HETATM   15  H   UNL     1     -44.257  57.530 -61.441  1.00  0.00     0.280 HD
HETATM   16  C   UNL     1     -45.369  56.476 -60.100  1.00  0.00     0.266 C 
HETATM   17  C   UNL     1     -46.735  56.854 -60.692  1.00  0.00     0.144 C 
HETATM   18  C   UNL     1     -47.131  58.270 -60.295  1.00  0.00     0.035 C 
HETATM   19  C   UNL     1     -46.041  59.260 -60.665  1.00  0.00     0.030 C 
HETATM   20  C   UNL     1     -44.708  58.904 -60.019  1.00  0.00     0.235 C 
BRANCH  17  21
HETATM   21  O   UNL     1     -47.694  55.945 -60.176  1.00  0.00    -0.394 OA
HETATM   22  H   UNL     1     -47.340  55.035 -60.231  1.00  0.00     0.210 HD
ENDBRANCH  17  21
ENDBRANCH  11  14
ENDBRANCH   6   7
ENDBRANCH   4   6
BRANCH   3  23
HETATM   23  C   UNL     1     -42.057  57.951 -52.476  1.00  0.00    -0.005 A 
HETATM   24  C   UNL     1     -40.998  58.692 -51.932  1.00  0.00     0.017 A 
HETATM   25  C   UNL     1     -41.259  59.835 -51.173  1.00  0.00     0.043 A 
HETATM   26  C   UNL     1     -42.574  60.228 -50.954  1.00  0.00     0.116 A 
HETATM   27  F   UNL     1     -42.823  61.328 -50.233  1.00  0.00    -0.206 F 
HETATM   28  C   UNL     1     -43.636  59.492 -51.465  1.00  0.00     0.043 A 
HETATM   29  C   UNL     1     -43.380  58.347 -52.223  1.00  0.00     0.017 A 
ENDBRANCH   3  23
BRANCH   1  30
HETATM   30  C   UNL     1     -40.707  53.425 -53.423  1.00  0.00     0.058 A 
HETATM   31  C   UNL     1     -40.663  52.487 -54.462  1.00  0.00     0.032 A 
HETATM   32  C   UNL     1     -40.189  51.192 -54.227  1.00  0.00     0.009 A 
HETATM   33  C   UNL     1     -39.762  50.814 -52.951  1.00  0.00    -0.062 A 
HETATM   34  C   UNL     1     -39.233  49.432 -52.692  1.00  0.00     0.048 C 
HETATM   35  C   UNL     1     -39.797  51.754 -51.916  1.00  0.00     0.009 A 
HETATM   36  C   UNL     1     -40.267  53.053 -52.144  1.00  0.00     0.032 A 
ENDBRANCH   1  30
TORSDOF 6
ENDMDL
MODEL 3
REMARK VINA RESULT:      -9.4      1.176      1.901
REMARK  6 active torsions:
REMARK  status: ('A' for Active; 'I' for Inactive)
REMARK    1  A    between atoms: C_5  and  N_6 
REMARK    2  A    between atoms: C_8  and  C_9 
REMARK    3  A    between atoms: C_16  and  C_17 
REMARK    4  A    between atoms: C_17  and  N_18 
REMARK    5  A    between atoms: C_22  and  N_23 
REMARK    6  A    between atoms: C_26  and  O_27 
ROOT
HETATM    1  N   UNL     1     -41.274  55.755 -53.504  1.00  0.00    -0.244 N 
HETATM    2  N   UNL     1     -41.564  56.499 -52.414  1.00  0.00    -0.167 NA
HETATM    3  C   UNL     1     -41.939  57.700 -52.861  1.00  0.00     0.097 A 
HETATM    4  C   UNL     1     -41.757  57.798 -54.267  1.00  0.00     0.016 A 
HETATM    5  C   UNL     1     -41.383  56.522 -54.648  1.00  0.00     0.130 A 
ENDROOT
BRANCH   4   6
HETATM    6  C   UNL     1     -41.935  58.979 -55.143  1.00  0.00     0.277 C 
BRANCH   6   7
HETATM    7  N   UNL     1     -43.361  59.147 -55.716  1.00  0.00    -0.067 N 
HETATM    8  H   UNL     1     -43.710  60.002 -55.247  1.00  0.00     0.280 HD
HETATM    9  C   UNL     1     -43.350  59.417 -57.196  1.00  0.00     0.237 C 
HETATM   10  C   UNL     1     -44.761  59.512 -57.734  1.00  0.00     0.061 C 
HETATM   11  C   UNL     1     -45.616  58.279 -57.447  1.00  0.00     0.191 C 
HETATM   12  C   UNL     1     -45.593  57.973 -55.946  1.00  0.00     0.061 C 
HETATM   13  C   UNL     1     -44.215  57.983 -55.286  1.00  0.00     0.237 C 
BRANCH  11  14
HETATM   14  N   UNL     1     -45.352  57.058 -58.358  1.00  0.00    -0.064 N 
HETATM   15  H   UNL     1     -45.773  56.269 -57.836  1.00  0.00     0.280 HD
HETATM   16  C   UNL     1     -46.168  57.093 -59.656  1.00  0.00     0.266 C 
HETATM   17  C   UNL     1     -46.098  55.777 -60.446  1.00  0.00     0.144 C 
HETATM   18  C   UNL     1     -44.655  55.348 -60.669  1.00  0.00     0.035 C 
HETATM   19  C   UNL     1     -43.903  55.278 -59.352  1.00  0.00     0.030 C 
HETATM   20  C   UNL     1     -43.930  56.609 -58.612  1.00  0.00     0.235 C 
BRANCH  17  21
HETATM   21  O   UNL     1     -46.714  55.998 -61.705  1.00  0.00    -0.394 OA
HETATM   22  H   UNL     1     -46.713  55.166 -62.217  1.00  0.00     0.210 HD
ENDBRANCH  17  21
ENDBRANCH  11  14
ENDBRANCH   6   7
ENDBRANCH   4   6
BRANCH   3  23
HETATM   23  C   UNL     1     -42.411  58.722 -51.934  1.00  0.00    -0.005 A 
HETATM   24  C   UNL     1     -43.786  58.931 -51.758  1.00  0.00     0.017 A 
HETATM   25  C   UNL     1     -44.239  59.903 -50.863  1.00  0.00     0.043 A 
HETATM   26  C   UNL     1     -43.318  60.667 -50.156  1.00  0.00     0.116 A 
HETATM   27  F   UNL     1     -43.752  61.593 -49.293  1.00  0.00    -0.206 F 
HETATM   28  C   UNL     1     -41.952  60.491 -50.337  1.00  0.00     0.043 A 
HETATM   29  C   UNL     1     -41.494  59.521 -51.233  1.00  0.00     0.017 A 
ENDBRANCH   3  23
BRANCH   1  30
HETATM   30  C   UNL     1     -40.864  54.400 -53.395  1.00  0.00     0.058 A 
HETATM   31  C   UNL     1     -40.531  53.881 -52.137  1.00  0.00     0.032 A 
HETATM   32  C   UNL     1     -40.114  52.553 -52.008  1.00  0.00     0.009 A 
HETATM   33  C   UNL     1     -40.014  51.727 -53.132  1.00  0.00    -0.062 A 
HETATM   34  C   UNL     1     -39.585  50.294 -53.003  1.00  0.00     0.048 C 
HETATM   35  C   UNL     1     -40.356  52.244 -54.387  1.00  0.00     0.009 A 
HETATM   36  C   UNL     1     -40.778  53.571 -54.523  1.00  0.00     0.032 A 
ENDBRANCH   1  30
TORSDOF 6
ENDMDL
MODEL 4
REMARK VINA RESULT:      -9.3      3.479      6.770
REMARK  6 active torsions:
REMARK  status: ('A' for Active; 'I' for Inactive)
REMARK    1  A    between atoms: C_5  and  N_6 
REMARK    2  A    between atoms: C_8  and  C_9 
REMARK    3  A    between atoms: C_16  and  C_17 
REMARK    4  A    between atoms: C_17  and  N_18 
REMARK    5  A    between atoms: C_22  and  N_23 
REMARK    6  A    between atoms: C_26  and  O_27 
ROOT
HETATM    1  N   UNL     1     -42.306  55.099 -54.533  1.00  0.00    -0.244 N 
HETATM    2  N   UNL     1     -41.935  55.426 -55.790  1.00  0.00    -0.167 NA
HETATM    3  C   UNL     1     -42.777  56.376 -56.200  1.00  0.00     0.097 A 
HETATM    4  C   UNL     1     -43.813  56.583 -55.249  1.00  0.00     0.016 A 
HETATM    5  C   UNL     1     -43.449  55.789 -54.177  1.00  0.00     0.130 A 
ENDROOT
BRANCH   4   6
HETATM    6  C   UNL     1     -45.007  57.453 -55.357  1.00  0.00     0.277 C 
BRANCH   6   7
HETATM    7  N   UNL     1     -45.006  58.670 -54.404  1.00  0.00    -0.067 N 
HETATM    8  H   UNL     1     -45.881  59.166 -54.645  1.00  0.00     0.280 HD
HETATM    9  C   UNL     1     -45.102  58.260 -52.959  1.00  0.00     0.237 C 
HETATM   10  C   UNL     1     -45.033  59.470 -52.054  1.00  0.00     0.061 C 
HETATM   11  C   UNL     1     -43.783  60.325 -52.258  1.00  0.00     0.191 C 
HETATM   12  C   UNL     1     -43.656  60.707 -53.736  1.00  0.00     0.061 C 
HETATM   13  C   UNL     1     -43.841  59.565 -54.736  1.00  0.00     0.237 C 
BRANCH  11  14
HETATM   14  N   UNL     1     -42.487  59.774 -51.620  1.00  0.00    -0.064 N 
HETATM   15  H   UNL     1     -42.713  58.783 -51.426  1.00  0.00     0.280 HD
HETATM   16  C   UNL     1     -41.325  59.678 -52.618  1.00  0.00     0.266 C 
HETATM   17  C   UNL     1     -40.117  58.910 -52.062  1.00  0.00     0.144 C 
HETATM   18  C   UNL     1     -39.688  59.467 -50.711  1.00  0.00     0.035 C 
HETATM   19  C   UNL     1     -40.859  59.494 -49.743  1.00  0.00     0.030 C 
HETATM   20  C   UNL     1     -42.024  60.312 -50.284  1.00  0.00     0.235 C 
BRANCH  17  21
HETATM   21  O   UNL     1     -39.049  59.063 -52.984  1.00  0.00    -0.394 OA
HETATM   22  H   UNL     1     -39.377  58.900 -53.889  1.00  0.00     0.210 HD
ENDBRANCH  17  21
ENDBRANCH  11  14
ENDBRANCH   6   7
ENDBRANCH   4   6
BRANCH   3  23
HETATM   23  C   UNL     1     -42.594  57.020 -57.496  1.00  0.00    -0.005 A 
HETATM   24  C   UNL     1     -42.148  58.348 -57.566  1.00  0.00     0.017 A 
HETATM   25  C   UNL     1     -41.963  58.962 -58.806  1.00  0.00     0.043 A 
HETATM   26  C   UNL     1     -42.233  58.251 -59.971  1.00  0.00     0.116 A 
HETATM   27  F   UNL     1     -42.049  58.837 -61.159  1.00  0.00    -0.206 F 
HETATM   28  C   UNL     1     -42.699  56.943 -59.920  1.00  0.00     0.043 A 
HETATM   29  C   UNL     1     -42.888  56.326 -58.681  1.00  0.00     0.017 A 
ENDBRANCH   3  23
BRANCH   1  30
HETATM   30  C   UNL     1     -41.599  54.127 -53.775  1.00  0.00     0.058 A 
HETATM   31  C   UNL     1     -41.614  54.202 -52.376  1.00  0.00     0.032 A 
HETATM   32  C   UNL     1     -40.916  53.263 -51.611  1.00  0.00     0.009 A 
HETATM   33  C   UNL     1     -40.187  52.243 -52.230  1.00  0.00    -0.062 A 
HETATM   34  C   UNL     1     -39.449  51.218 -51.417  1.00  0.00     0.048 C 
HETATM   35  C   UNL     1     -40.181  52.164 -53.627  1.00  0.00     0.009 A 
HETATM   36  C   UNL     1     -40.880  53.098 -54.400  1.00  0.00     0.032 A 
ENDBRANCH   1  30
TORSDOF 6
ENDMDL
MODEL 5
REMARK VINA RESULT:      -9.2      3.720      8.145
REMARK  6 active torsions:
REMARK  status: ('A' for Active; 'I' for Inactive)
REMARK    1  A    between atoms: C_5  and  N_6 
REMARK    2  A    between atoms: C_8  and  C_9 
REMARK    3  A    between atoms: C_16  and  C_17 
REMARK    4  A    between atoms: C_17  and  N_18 
REMARK    5  A    between atoms: C_22  and  N_23 
REMARK    6  A    between atoms: C_26  and  O_27 
ROOT
HETATM    1  N   UNL     1     -41.929  59.688 -57.341  1.00  0.00    -0.244 N 
HETATM    2  N   UNL     1     -41.646  60.175 -56.114  1.00  0.00    -0.167 NA
HETATM    3  C   UNL     1     -42.020  59.241 -55.237  1.00  0.00     0.097 A 
HETATM    4  C   UNL     1     -42.695  58.173 -55.889  1.00  0.00     0.016 A 
HETATM    5  C   UNL     1     -42.570  58.468 -57.235  1.00  0.00     0.130 A 
ENDROOT
BRANCH   4   6
HETATM    6  C   UNL     1     -43.369  57.000 -55.287  1.00  0.00     0.277 C 
BRANCH   6   7
HETATM    7  N   UNL     1     -42.508  55.717 -55.237  1.00  0.00    -0.067 N 
HETATM    8  H   UNL     1     -42.537  55.369 -56.211  1.00  0.00     0.280 HD
HETATM    9  C   UNL     1     -41.070  56.012 -54.905  1.00  0.00     0.237 C 
HETATM   10  C   UNL     1     -40.272  54.730 -54.801  1.00  0.00     0.061 C 
HETATM   11  C   UNL     1     -40.834  53.731 -53.790  1.00  0.00     0.191 C 
HETATM   12  C   UNL     1     -42.311  53.464 -54.097  1.00  0.00     0.061 C 
HETATM   13  C   UNL     1     -43.173  54.701 -54.346  1.00  0.00     0.237 C 
BRANCH  11  14
HETATM   14  N   UNL     1     -40.529  54.041 -52.307  1.00  0.00    -0.064 N 
HETATM   15  H   UNL     1     -39.581  54.456 -52.334  1.00  0.00     0.280 HD
HETATM   16  C   UNL     1     -41.391  55.180 -51.745  1.00  0.00     0.266 C 
HETATM   17  C   UNL     1     -40.931  55.655 -50.359  1.00  0.00     0.144 C 
HETATM   18  C   UNL     1     -40.799  54.485 -49.394  1.00  0.00     0.035 C 
HETATM   19  C   UNL     1     -39.897  53.408 -49.971  1.00  0.00     0.030 C 
HETATM   20  C   UNL     1     -40.403  52.904 -51.317  1.00  0.00     0.235 C 
BRANCH  17  21
HETATM   21  O   UNL     1     -41.912  56.553 -49.865  1.00  0.00    -0.394 OA
HETATM   22  H   UNL     1     -41.510  57.434 -49.738  1.00  0.00     0.210 HD
ENDBRANCH  17  21
ENDBRANCH  11  14
ENDBRANCH   6   7
ENDBRANCH   4   6
BRANCH   3  23
HETATM   23  C   UNL     1     -41.765  59.416 -53.812  1.00  0.00    -0.005 A 
HETATM   24  C   UNL     1     -42.678  60.121 -53.015  1.00  0.00     0.017 A 
HETATM   25  C   UNL     1     -42.440  60.281 -51.648  1.00  0.00     0.043 A 
HETATM   26  C   UNL     1     -41.288  59.744 -51.086  1.00  0.00     0.116 A 
HETATM   27  F   UNL     1     -41.063  59.890 -49.774  1.00  0.00    -0.206 F 
HETATM   28  C   UNL     1     -40.359  59.064 -51.865  1.00  0.00     0.043 A 
HETATM   29  C   UNL     1     -40.593  58.904 -53.233  1.00  0.00     0.017 A 
ENDBRANCH   3  23
BRANCH   1  30
HETATM   30  C   UNL     1     -41.632  60.419 -58.522  1.00  0.00     0.058 A 
HETATM   31  C   UNL     1     -40.880  61.597 -58.430  1.00  0.00     0.032 A 
HETATM   32  C   UNL     1     -40.585  62.339 -59.578  1.00  0.00     0.009 A 
HETATM   33  C   UNL     1     -41.044  61.921 -60.831  1.00  0.00    -0.062 A 
HETATM   34  C   UNL     1     -40.717  62.700 -62.073  1.00  0.00     0.048 C 
HETATM   35  C   UNL     1     -41.787  60.739 -60.923  1.00  0.00     0.009 A 
HETATM   36  C   UNL     1     -42.083  59.989 -59.779  1.00  0.00     0.032 A 
ENDBRANCH   1  30
TORSDOF 6
ENDMDL
MODEL 6
REMARK VINA RESULT:      -9.1      3.443      6.868
REMARK  6 active torsions:
REMARK  status: ('A' for Active; 'I' for Inactive)
REMARK    1  A    between atoms: C_5  and  N_6 
REMARK    2  A    between atoms: C_8  and  C_9 
REMARK    3  A    between atoms: C_16  and  C_17 
REMARK    4  A    between atoms: C_17  and  N_18 
REMARK    5  A    between atoms: C_22  and  N_23 
REMARK    6  A    between atoms: C_26  and  O_27 
ROOT
HETATM    1  N   UNL     1     -41.389  54.784 -54.896  1.00  0.00    -0.244 N 
HETATM    2  N   UNL     1     -42.244  54.660 -55.934  1.00  0.00    -0.167 NA
HETATM    3  C   UNL     1     -42.503  55.896 -56.365  1.00  0.00     0.097 A 
HETATM    4  C   UNL     1     -41.919  56.866 -55.505  1.00  0.00     0.016 A 
HETATM    5  C   UNL     1     -41.173  56.119 -54.611  1.00  0.00     0.130 A 
ENDROOT
BRANCH   4   6
HETATM    6  C   UNL     1     -42.054  58.340 -55.547  1.00  0.00     0.277 C 
BRANCH   6   7
HETATM    7  N   UNL     1     -42.554  58.979 -54.232  1.00  0.00    -0.067 N 
HETATM    8  H   UNL     1     -42.844  59.930 -54.521  1.00  0.00     0.280 HD
HETATM    9  C   UNL     1     -43.772  58.281 -53.689  1.00  0.00     0.237 C 
HETATM   10  C   UNL     1     -44.195  58.891 -52.371  1.00  0.00     0.061 C 
HETATM   11  C   UNL     1     -43.096  58.896 -51.310  1.00  0.00     0.191 C 
HETATM   12  C   UNL     1     -41.838  59.565 -51.874  1.00  0.00     0.061 C 
HETATM   13  C   UNL     1     -41.406  59.103 -53.265  1.00  0.00     0.237 C 
BRANCH  11  14
HETATM   14  N   UNL     1     -42.844  57.543 -50.604  1.00  0.00    -0.064 N 
HETATM   15  H   UNL     1     -43.103  57.731 -49.619  1.00  0.00     0.280 HD
HETATM   16  C   UNL     1     -43.841  56.456 -51.025  1.00  0.00     0.266 C 
HETATM   17  C   UNL     1     -43.754  55.192 -50.156  1.00  0.00     0.144 C 
HETATM   18  C   UNL     1     -42.322  54.680 -50.075  1.00  0.00     0.035 C 
HETATM   19  C   UNL     1     -41.383  55.777 -49.605  1.00  0.00     0.030 C 
HETATM   20  C   UNL     1     -41.436  56.998 -50.514  1.00  0.00     0.235 C 
BRANCH  17  21
HETATM   21  O   UNL     1     -44.566  54.198 -50.761  1.00  0.00    -0.394 OA
HETATM   22  H   UNL     1     -44.607  54.355 -51.724  1.00  0.00     0.210 HD
ENDBRANCH  17  21
ENDBRANCH  11  14
ENDBRANCH   6   7
ENDBRANCH   4   6
BRANCH   3  23
HETATM   23  C   UNL     1     -43.330  56.112 -57.546  1.00  0.00    -0.005 A 
HETATM   24  C   UNL     1     -44.183  57.223 -57.614  1.00  0.00     0.017 A 
HETATM   25  C   UNL     1     -44.968  57.436 -58.749  1.00  0.00     0.043 A 
HETATM   26  C   UNL     1     -44.903  56.536 -59.807  1.00  0.00     0.116 A 
HETATM   27  F   UNL     1     -45.650  56.745 -60.898  1.00  0.00    -0.206 F 
HETATM   28  C   UNL     1     -44.082  55.417 -59.747  1.00  0.00     0.043 A 
HETATM   29  C   UNL     1     -43.297  55.199 -58.612  1.00  0.00     0.017 A 
ENDBRANCH   3  23
BRANCH   1  30
HETATM   30  C   UNL     1     -40.878  53.650 -54.210  1.00  0.00     0.058 A 
HETATM   31  C   UNL     1     -40.699  52.448 -54.905  1.00  0.00     0.032 A 
HETATM   32  C   UNL     1     -40.209  51.315 -54.247  1.00  0.00     0.009 A 
HETATM   33  C   UNL     1     -39.899  51.365 -52.885  1.00  0.00    -0.062 A 
HETATM   34  C   UNL     1     -39.354  50.161 -52.172  1.00  0.00     0.048 C 
HETATM   35  C   UNL     1     -40.069  52.569 -52.192  1.00  0.00     0.009 A 
HETATM   36  C   UNL     1     -40.556  53.707 -52.845  1.00  0.00     0.032 A 
ENDBRANCH   1  30
TORSDOF 6
ENDMDL
MODEL 7
REMARK VINA RESULT:      -9.1      3.188      6.983
REMARK  6 active torsions:
REMARK  status: ('A' for Active; 'I' for Inactive)
REMARK    1  A    between atoms: C_5  and  N_6 
REMARK    2  A    between atoms: C_8  and  C_9 
REMARK    3  A    between atoms: C_16  and  C_17 
REMARK    4  A    between atoms: C_17  and  N_18 
REMARK    5  A    between atoms: C_22  and  N_23 
REMARK    6  A    between atoms: C_26  and  O_27 
ROOT
HETATM    1  N   UNL     1     -42.613  55.546 -55.443  1.00  0.00    -0.244 N 
HETATM    2  N   UNL     1     -41.661  54.644 -55.124  1.00  0.00    -0.167 NA
HETATM    3  C   UNL     1     -41.869  54.304 -53.850  1.00  0.00     0.097 A 
HETATM    4  C   UNL     1     -42.894  55.102 -53.272  1.00  0.00     0.016 A 
HETATM    5  C   UNL     1     -43.380  55.846 -54.333  1.00  0.00     0.130 A 
ENDROOT
BRANCH   4   6
HETATM    6  C   UNL     1     -43.357  55.136 -51.866  1.00  0.00     0.277 C 
BRANCH   6   7
HETATM    7  N   UNL     1     -43.366  56.542 -51.224  1.00  0.00    -0.067 N 
HETATM    8  H   UNL     1     -43.151  56.355 -50.229  1.00  0.00     0.280 HD
HETATM    9  C   UNL     1     -42.269  57.420 -51.766  1.00  0.00     0.237 C 
HETATM   10  C   UNL     1     -42.347  58.806 -51.164  1.00  0.00     0.061 C 
HETATM   11  C   UNL     1     -43.696  59.494 -51.367  1.00  0.00     0.191 C 
HETATM   12  C   UNL     1     -44.820  58.584 -50.859  1.00  0.00     0.061 C 
HETATM   13  C   UNL     1     -44.751  57.126 -51.313  1.00  0.00     0.237 C 
BRANCH  11  14
HETATM   14  N   UNL     1     -43.936  60.090 -52.773  1.00  0.00    -0.064 N 
HETATM   15  H   UNL     1     -44.092  61.096 -52.587  1.00  0.00     0.280 HD
HETATM   16  C   UNL     1     -42.674  60.089 -53.645  1.00  0.00     0.266 C 
HETATM   17  C   UNL     1     -42.839  60.895 -54.942  1.00  0.00     0.144 C 
HETATM   18  C   UNL     1     -44.083  60.459 -55.705  1.00  0.00     0.035 C 
HETATM   19  C   UNL     1     -45.312  60.526 -54.815  1.00  0.00     0.030 C 
HETATM   20  C   UNL     1     -45.155  59.672 -53.564  1.00  0.00     0.235 C 
BRANCH  17  21
HETATM   21  O   UNL     1     -41.695  60.653 -55.747  1.00  0.00    -0.394 OA
HETATM   22  H   UNL     1     -41.949  60.101 -56.512  1.00  0.00     0.210 HD
ENDBRANCH  17  21
ENDBRANCH  11  14
ENDBRANCH   6   7
ENDBRANCH   4   6
BRANCH   3  23
HETATM   23  C   UNL     1     -41.061  53.268 -53.217  1.00  0.00    -0.005 A 
HETATM   24  C   UNL     1     -40.727  53.368 -51.859  1.00  0.00     0.017 A 
HETATM   25  C   UNL     1     -39.962  52.372 -51.249  1.00  0.00     0.043 A 
HETATM   26  C   UNL     1     -39.527  51.285 -51.999  1.00  0.00     0.116 A 
HETATM   27  F   UNL     1     -38.801  50.326 -51.413  1.00  0.00    -0.206 F 
HETATM   28  C   UNL     1     -39.829  51.181 -53.351  1.00  0.00     0.043 A 
HETATM   29  C   UNL     1     -40.592  52.177 -53.966  1.00  0.00     0.017 A 
ENDBRANCH   3  23
BRANCH   1  30
HETATM   30  C   UNL     1     -42.706  56.105 -56.745  1.00  0.00     0.058 A 
HETATM   31  C   UNL     1     -42.379  57.453 -56.940  1.00  0.00     0.032 A 
HETATM   32  C   UNL     1     -42.474  58.027 -58.212  1.00  0.00     0.009 A 
HETATM   33  C   UNL     1     -42.904  57.267 -59.304  1.00  0.00    -0.062 A 
HETATM   34  C   UNL     1     -42.992  57.868 -60.678  1.00  0.00     0.048 C 
HETATM   35  C   UNL     1     -43.221  55.918 -59.110  1.00  0.00     0.009 A 
HETATM   36  C   UNL     1     -43.125  55.336 -57.841  1.00  0.00     0.032 A 
ENDBRANCH   1  30
TORSDOF 6
ENDMDL
MODEL 8
REMARK VINA RESULT:      -8.8      3.588      6.972
REMARK  6 active torsions:
REMARK  status: ('A' for Active; 'I' for Inactive)
REMARK    1  A    between atoms: C_5  and  N_6 
REMARK    2  A    between atoms: C_8  and  C_9 
REMARK    3  A    between atoms: C_16  and  C_17 
REMARK    4  A    between atoms: C_17  and  N_18 
REMARK    5  A    between atoms: C_22  and  N_23 
REMARK    6  A    between atoms: C_26  and  O_27 
ROOT
HETATM    1  N   UNL     1     -42.018  54.584 -54.087  1.00  0.00    -0.244 N 
HETATM    2  N   UNL     1     -41.898  54.819 -55.411  1.00  0.00    -0.167 NA
HETATM    3  C   UNL     1     -42.675  55.869 -55.684  1.00  0.00     0.097 A 
HETATM    4  C   UNL     1     -43.434  56.249 -54.544  1.00  0.00     0.016 A 
HETATM    5  C   UNL     1     -42.949  55.441 -53.532  1.00  0.00     0.130 A 
ENDROOT
BRANCH   4   6
HETATM    6  C   UNL     1     -44.494  57.278 -54.439  1.00  0.00     0.277 C 
BRANCH   6   7
HETATM    7  N   UNL     1     -43.980  58.736 -54.442  1.00  0.00    -0.067 N 
HETATM    8  H   UNL     1     -43.581  58.849 -55.391  1.00  0.00     0.280 HD
HETATM    9  C   UNL     1     -45.098  59.733 -54.301  1.00  0.00     0.237 C 
HETATM   10  C   UNL     1     -44.553  61.143 -54.244  1.00  0.00     0.061 C 
HETATM   11  C   UNL     1     -43.530  61.366 -53.132  1.00  0.00     0.191 C 
HETATM   12  C   UNL     1     -42.412  60.324 -53.243  1.00  0.00     0.061 C 
HETATM   13  C   UNL     1     -42.869  58.878 -53.436  1.00  0.00     0.237 C 
BRANCH  11  14
HETATM   14  N   UNL     1     -44.115  61.534 -51.711  1.00  0.00    -0.064 N 
HETATM   15  H   UNL     1     -44.960  62.112 -51.862  1.00  0.00     0.280 HD
HETATM   16  C   UNL     1     -44.683  60.227 -51.141  1.00  0.00     0.266 C 
HETATM   17  C   UNL     1     -45.478  60.434 -49.844  1.00  0.00     0.144 C 
HETATM   18  C   UNL     1     -44.667  61.219 -48.821  1.00  0.00     0.035 C 
HETATM   19  C   UNL     1     -44.171  62.525 -49.415  1.00  0.00     0.030 C 
HETATM   20  C   UNL     1     -43.332  62.298 -50.666  1.00  0.00     0.235 C 
BRANCH  17  21
HETATM   21  O   UNL     1     -45.774  59.151 -49.312  1.00  0.00    -0.394 OA
HETATM   22  H   UNL     1     -46.398  58.691 -49.906  1.00  0.00     0.210 HD
ENDBRANCH  17  21
ENDBRANCH  11  14
ENDBRANCH   6   7
ENDBRANCH   4   6
BRANCH   3  23
HETATM   23  C   UNL     1     -42.702  56.445 -57.024  1.00  0.00    -0.005 A 
HETATM   24  C   UNL     1     -42.273  57.763 -57.233  1.00  0.00     0.017 A 
HETATM   25  C   UNL     1     -42.289  58.311 -58.517  1.00  0.00     0.043 A 
HETATM   26  C   UNL     1     -42.741  57.544 -59.585  1.00  0.00     0.116 A 
HETATM   27  F   UNL     1     -42.750  58.067 -60.816  1.00  0.00    -0.206 F 
HETATM   28  C   UNL     1     -43.193  56.244 -59.392  1.00  0.00     0.043 A 
HETATM   29  C   UNL     1     -43.181  55.693 -58.109  1.00  0.00     0.017 A 
ENDBRANCH   3  23
BRANCH   1  30
HETATM   30  C   UNL     1     -41.297  53.541 -53.445  1.00  0.00     0.058 A 
HETATM   31  C   UNL     1     -41.126  53.577 -52.056  1.00  0.00     0.032 A 
HETATM   32  C   UNL     1     -40.410  52.568 -51.405  1.00  0.00     0.009 A 
HETATM   33  C   UNL     1     -39.847  51.515 -52.132  1.00  0.00    -0.062 A 
HETATM   34  C   UNL     1     -39.092  50.415 -51.442  1.00  0.00     0.048 C 
HETATM   35  C   UNL     1     -40.027  51.474 -53.520  1.00  0.00     0.009 A 
HETATM   36  C   UNL     1     -40.746  52.479 -54.177  1.00  0.00     0.032 A 
ENDBRANCH   1  30
TORSDOF 6
ENDMDL
MODEL 9
REMARK VINA RESULT:      -8.5      3.582      6.691
REMARK  6 active torsions:
REMARK  status: ('A' for Active; 'I' for Inactive)
REMARK    1  A    between atoms: C_5  and  N_6 
REMARK    2  A    between atoms: C_8  and  C_9 
REMARK    3  A    between atoms: C_16  and  C_17 
REMARK    4  A    between atoms: C_17  and  N_18 
REMARK    5  A    between atoms: C_22  and  N_23 
REMARK    6  A    between atoms: C_26  and  O_27 
ROOT
HETATM    1  N   UNL     1     -41.222  54.762 -53.557  1.00  0.00    -0.244 N 
HETATM    2  N   UNL     1     -41.921  54.728 -54.712  1.00  0.00    -0.167 NA
HETATM    3  C   UNL     1     -42.222  55.993 -55.014  1.00  0.00     0.097 A 
HETATM    4  C   UNL     1     -41.837  56.870 -53.963  1.00  0.00     0.016 A 
HETATM    5  C   UNL     1     -41.155  56.056 -53.077  1.00  0.00     0.130 A 
ENDROOT
BRANCH   4   6
HETATM    6  C   UNL     1     -42.085  58.325 -53.835  1.00  0.00     0.277 C 
BRANCH   6   7
HETATM    7  N   UNL     1     -42.657  58.762 -52.468  1.00  0.00    -0.067 N 
HETATM    8  H   UNL     1     -42.167  58.148 -51.794  1.00  0.00     0.280 HD
HETATM    9  C   UNL     1     -42.294  60.184 -52.130  1.00  0.00     0.237 C 
HETATM   10  C   UNL     1     -42.922  60.598 -50.817  1.00  0.00     0.061 C 
HETATM   11  C   UNL     1     -44.441  60.438 -50.781  1.00  0.00     0.191 C 
HETATM   12  C   UNL     1     -44.818  59.005 -51.169  1.00  0.00     0.061 C 
HETATM   13  C   UNL     1     -44.129  58.451 -52.416  1.00  0.00     0.237 C 
BRANCH  11  14
HETATM   14  N   UNL     1     -45.246  61.537 -51.513  1.00  0.00    -0.064 N 
HETATM   15  H   UNL     1     -44.767  61.621 -52.427  1.00  0.00     0.280 HD
HETATM   16  C   UNL     1     -46.659  61.084 -51.901  1.00  0.00     0.266 C 
HETATM   17  C   UNL     1     -47.372  62.072 -52.835  1.00  0.00     0.144 C 
HETATM   18  C   UNL     1     -47.341  63.485 -52.267  1.00  0.00     0.035 C 
HETATM   19  C   UNL     1     -45.918  63.906 -51.947  1.00  0.00     0.030 C 
HETATM   20  C   UNL     1     -45.248  62.949 -50.971  1.00  0.00     0.235 C 
BRANCH  17  21
HETATM   21  O   UNL     1     -48.722  61.653 -52.956  1.00  0.00    -0.394 OA
HETATM   22  H   UNL     1     -48.856  60.838 -52.434  1.00  0.00     0.210 HD
ENDBRANCH  17  21
ENDBRANCH  11  14
ENDBRANCH   6   7
ENDBRANCH   4   6
BRANCH   3  23
HETATM   23  C   UNL     1     -42.902  56.317 -56.262  1.00  0.00    -0.005 A 
HETATM   24  C   UNL     1     -42.838  55.433 -57.349  1.00  0.00     0.017 A 
HETATM   25  C   UNL     1     -43.497  55.738 -58.541  1.00  0.00     0.043 A 
HETATM   26  C   UNL     1     -44.209  56.927 -58.647  1.00  0.00     0.116 A 
HETATM   27  F   UNL     1     -44.847  57.216 -59.787  1.00  0.00    -0.206 F 
HETATM   28  C   UNL     1     -44.263  57.827 -57.589  1.00  0.00     0.043 A 
HETATM   29  C   UNL     1     -43.602  57.526 -56.395  1.00  0.00     0.017 A 
ENDBRANCH   3  23
BRANCH   1  30
HETATM   30  C   UNL     1     -40.715  53.579 -52.957  1.00  0.00     0.058 A 
HETATM   31  C   UNL     1     -40.314  52.512 -53.770  1.00  0.00     0.032 A 
HETATM   32  C   UNL     1     -39.823  51.333 -53.200  1.00  0.00     0.009 A 
HETATM   33  C   UNL     1     -39.733  51.200 -51.812  1.00  0.00    -0.062 A 
HETATM   34  C   UNL     1     -39.188  49.946 -51.189  1.00  0.00     0.048 C 
HETATM   35  C   UNL     1     -40.124  52.270 -51.000  1.00  0.00     0.009 A 
HETATM   36  C   UNL     1     -40.614  53.454 -51.563  1.00  0.00     0.032 A 
ENDBRANCH   1  30
TORSDOF 6
ENDMDL
MODEL 10
REMARK VINA RESULT:      -8.3      2.195      2.908
REMARK  6 active torsions:
REMARK  status: ('A' for Active; 'I' for Inactive)
REMARK    1  A    between atoms: C_5  and  N_6 
REMARK    2  A    between atoms: C_8  and  C_9 
REMARK    3  A    between atoms: C_16  and  C_17 
REMARK    4  A    between atoms: C_17  and  N_18 
REMARK    5  A    between atoms: C_22  and  N_23 
REMARK    6  A    between atoms: C_26  and  O_27 
ROOT
HETATM    1  N   UNL     1     -41.291  54.857 -52.702  1.00  0.00    -0.244 N 
HETATM    2  N   UNL     1     -41.756  55.767 -51.819  1.00  0.00    -0.167 NA
HETATM    3  C   UNL     1     -42.168  56.816 -52.534  1.00  0.00     0.097 A 
HETATM    4  C   UNL     1     -41.839  56.655 -53.907  1.00  0.00     0.016 A 
HETATM    5  C   UNL     1     -41.328  55.372 -53.984  1.00  0.00     0.130 A 
ENDROOT
BRANCH   4   6
HETATM    6  C   UNL     1     -42.007  57.621 -55.018  1.00  0.00     0.277 C 
BRANCH   6   7
HETATM    7  N   UNL     1     -43.134  57.267 -56.014  1.00  0.00    -0.067 N 
HETATM    8  H   UNL     1     -43.747  56.634 -55.470  1.00  0.00     0.280 HD
HETATM    9  C   UNL     1     -43.953  58.471 -56.396  1.00  0.00     0.237 C 
HETATM   10  C   UNL     1     -45.004  58.100 -57.419  1.00  0.00     0.061 C 
HETATM   11  C   UNL     1     -44.438  57.448 -58.680  1.00  0.00     0.191 C 
HETATM   12  C   UNL     1     -43.566  56.250 -58.294  1.00  0.00     0.061 C 
HETATM   13  C   UNL     1     -42.557  56.495 -57.172  1.00  0.00     0.237 C 
BRANCH  11  14
HETATM   14  N   UNL     1     -43.789  58.416 -59.697  1.00  0.00    -0.064 N 
HETATM   15  H   UNL     1     -44.157  58.093 -60.609  1.00  0.00     0.280 HD
HETATM   16  C   UNL     1     -44.331  59.847 -59.588  1.00  0.00     0.266 C 
HETATM   17  C   UNL     1     -43.877  60.750 -60.745  1.00  0.00     0.144 C 
HETATM   18  C   UNL     1     -42.364  60.704 -60.915  1.00  0.00     0.035 C 
HETATM   19  C   UNL     1     -41.883  59.272 -61.070  1.00  0.00     0.030 C 
HETATM   20  C   UNL     1     -42.288  58.406 -59.885  1.00  0.00     0.235 C 
BRANCH  17  21
HETATM   21  O   UNL     1     -44.265  62.079 -60.431  1.00  0.00    -0.394 OA
HETATM   22  H   UNL     1     -45.191  62.220 -60.710  1.00  0.00     0.210 HD
ENDBRANCH  17  21
ENDBRANCH  11  14
ENDBRANCH   6   7
ENDBRANCH   4   6
BRANCH   3  23
HETATM   23  C   UNL     1     -42.817  57.949 -51.884  1.00  0.00    -0.005 A 
HETATM   24  C   UNL     1     -42.052  59.029 -51.423  1.00  0.00     0.017 A 
HETATM   25  C   UNL     1     -42.673  60.119 -50.810  1.00  0.00     0.043 A 
HETATM   26  C   UNL     1     -44.054  60.121 -50.652  1.00  0.00     0.116 A 
HETATM   27  F   UNL     1     -44.651  61.169 -50.071  1.00  0.00    -0.206 F 
HETATM   28  C   UNL     1     -44.826  59.048 -51.080  1.00  0.00     0.043 A 
HETATM   29  C   UNL     1     -44.208  57.955 -51.692  1.00  0.00     0.017 A 
ENDBRANCH   3  23
BRANCH   1  30
HETATM   30  C   UNL     1     -40.794  53.595 -52.280  1.00  0.00     0.058 A 
HETATM   31  C   UNL     1     -40.815  53.267 -50.919  1.00  0.00     0.032 A 
HETATM   32  C   UNL     1     -40.320  52.034 -50.481  1.00  0.00     0.009 A 
HETATM   33  C   UNL     1     -39.790  51.117 -51.393  1.00  0.00    -0.062 A 
HETATM   34  C   UNL     1     -39.273  49.783 -50.935  1.00  0.00     0.048 C 
HETATM   35  C   UNL     1     -39.778  51.442 -52.754  1.00  0.00     0.009 A 
HETATM   36  C   UNL     1     -40.275  52.672 -53.200  1.00  0.00     0.032 A 
ENDBRANCH   1  30
TORSDOF 6
ENDMDL
