MODEL 1
REMARK VINA RESULT:      -9.2      0.000      0.000
REMARK  11 active torsions:
REMARK  status: ('A' for Active; 'I' for Inactive)
REMARK    1  A    between atoms: C_2  and  N_3 
REMARK    2  A    between atoms: N_3  and  C_4 
REMARK    3  A    between atoms: C_6  and  N_7 
REMARK    4  A    between atoms: N_10  and  C_12 
REMARK    5  A    between atoms: C_25  and  N_26 
REMARK    6  A    between atoms: N_26  and  C_27 
REMARK    7  A    between atoms: C_27  and  C_28 
REMARK    8  A    between atoms: C_28  and  C_29 
REMARK    9  A    between atoms: C_29  and  O_30 
REMARK   10  A    between atoms: C_34  and  O_35 
REMARK   11  A    between atoms: O_35  and  C_36 
ROOT
HETATM    1  C   UNL     1     -43.782  56.602 -51.810  1.00  0.00     0.758 C 
HETATM    2  N   UNL     1     -43.045  57.350 -52.627  1.00  0.00     0.131 NA
HETATM    3  C   UNL     1     -43.220  58.659 -52.546  1.00  0.00     0.756 C 
HETATM    4  N   UNL     1     -43.984  59.236 -51.633  1.00  0.00     0.131 NA
HETATM    5  C   UNL     1     -44.711  58.424 -50.879  1.00  0.00     0.754 C 
HETATM    6  N   UNL     1     -44.657  57.100 -50.948  1.00  0.00     0.131 NA
ENDROOT
BRANCH   3   7
HETATM    7  N   UNL     1     -42.565  59.482 -53.463  1.00  0.00    -0.210 N 
HETATM    8  C   UNL     1     -43.427  60.258 -54.359  1.00  0.00     0.169 C 
HETATM    9  C   UNL     1     -43.875  59.443 -55.588  1.00  0.00     0.256 C 
HETATM   10  N   UNL     1     -42.648  58.842 -56.321  1.00  0.00    -0.059 N 
HETATM   11  H   UNL     1     -42.050  59.645 -56.551  1.00  0.00     0.281 HD
HETATM   12  C   UNL     1     -41.833  57.995 -55.314  1.00  0.00     0.256 C 
HETATM   13  C   UNL     1     -41.406  58.849 -54.094  1.00  0.00     0.169 C 
BRANCH  10  14
HETATM   14  C   UNL     1     -42.965  58.159 -57.669  1.00  0.00     0.129 C 
HETATM   15  C   UNL     1     -43.034  56.621 -57.464  1.00  0.00     0.043 C 
HETATM   16  C   UNL     1     -43.389  55.913 -58.784  1.00  0.00    -0.012 C 
HETATM   17  C   UNL     1     -42.317  56.251 -59.835  1.00  0.00     0.009 C 
HETATM   18  C   UNL     1     -44.758  56.404 -59.271  1.00  0.00     0.009 C 
HETATM   19  C   UNL     1     -42.262  57.771 -60.065  1.00  0.00    -0.012 C 
HETATM   20  C   UNL     1     -41.902  58.478 -58.742  1.00  0.00     0.043 C 
HETATM   21  C   UNL     1     -43.640  58.252 -60.548  1.00  0.00     0.009 C 
HETATM   22  C   UNL     1     -44.715  57.921 -59.498  1.00  0.00    -0.012 C 
HETATM   23  C   UNL     1     -44.356  58.626 -58.177  1.00  0.00     0.043 C 
ENDBRANCH  10  14
ENDBRANCH   3   7
BRANCH   1  24
HETATM   24  N   UNL     1     -43.681  55.214 -51.870  1.00  0.00    -0.187 N 
HETATM   25  H   UNL     1     -44.159  54.773 -51.093  1.00  0.00     0.184 HD
BRANCH  24  26
HETATM   26  C   UNL     1     -42.701  54.418 -52.483  1.00  0.00     0.049 A 
HETATM   27  C   UNL     1     -42.700  54.139 -53.853  1.00  0.00     0.033 A 
HETATM   28  C   UNL     1     -41.729  53.310 -54.428  1.00  0.00     0.039 A 
HETATM   29  C   UNL     1     -40.750  52.720 -53.632  1.00  0.00     0.076 A 
HETATM   30  C   UNL     1     -40.737  52.999 -52.265  1.00  0.00     0.039 A 
HETATM   31  C   UNL     1     -41.700  53.841 -51.696  1.00  0.00     0.033 A 
BRANCH  29  32
HETATM   32  O   UNL     1     -39.766  51.874 -54.054  1.00  0.00    -0.270 OA
BRANCH  32  33
HETATM   33  C   UNL     1     -40.076  50.492 -54.186  1.00  0.00     0.447 C 
HETATM   34 CL   UNL     1     -39.726  49.649 -52.681  1.00  0.00    -0.014 Cl
HETATM   35  F   UNL     1     -41.391  50.344 -54.503  1.00  0.00    -0.159 F 
HETATM   36  F   UNL     1     -39.351  49.956 -55.201  1.00  0.00    -0.159 F 
ENDBRANCH  32  33
ENDBRANCH  29  32
ENDBRANCH  24  26
ENDBRANCH   1  24
BRANCH   5  37
HETATM   37  N   UNL     1     -45.595  59.038 -50.013  1.00  0.00    -0.221 N 
HETATM   38  H   UNL     1     -46.510  58.611 -50.103  1.00  0.00     0.177 HD
BRANCH  37  39
HETATM   39  C   UNL     1     -45.572  60.484 -49.891  1.00  0.00     0.140 C 
BRANCH  39  40
HETATM   40  C   UNL     1     -44.954  60.915 -48.560  1.00  0.00     0.046 C 
BRANCH  40  41
HETATM   41  C   UNL     1     -45.834  60.665 -47.340  1.00  0.00     0.165 C 
BRANCH  41  42
HETATM   42  O   UNL     1     -46.288  59.319 -47.300  1.00  0.00    -0.401 OA
HETATM   43  H   UNL     1     -45.531  58.782 -47.605  1.00  0.00     0.209 HD
ENDBRANCH  41  42
ENDBRANCH  40  41
ENDBRANCH  39  40
ENDBRANCH  37  39
ENDBRANCH   5  37
TORSDOF 11
ENDMDL
MODEL 2
REMARK VINA RESULT:      -8.8      2.253      2.772
REMARK  11 active torsions:
REMARK  status: ('A' for Active; 'I' for Inactive)
REMARK    1  A    between atoms: C_2  and  N_3 
REMARK    2  A    between atoms: N_3  and  C_4 
REMARK    3  A    between atoms: C_6  and  N_7 
REMARK    4  A    between atoms: N_10  and  C_12 
REMARK    5  A    between atoms: C_25  and  N_26 
REMARK    6  A    between atoms: N_26  and  C_27 
REMARK    7  A    between atoms: C_27  and  C_28 
REMARK    8  A    between atoms: C_28  and  C_29 
REMARK    9  A    between atoms: C_29  and  O_30 
REMARK   10  A    between atoms: C_34  and  O_35 
REMARK   11  A    between atoms: O_35  and  C_36 
ROOT
HETATM    1  C   UNL     1     -42.751  56.680 -51.918  1.00  0.00     0.758 C 
HETATM    2  N   UNL     1     -43.377  57.400 -52.845  1.00  0.00     0.131 NA
HETATM    3  C   UNL     1     -43.283  58.715 -52.733  1.00  0.00     0.756 C 
HETATM    4  N   UNL     1     -42.518  59.315 -51.835  1.00  0.00     0.131 NA
HETATM    5  C   UNL     1     -41.954  58.532 -50.928  1.00  0.00     0.754 C 
HETATM    6  N   UNL     1     -42.061  57.209 -50.919  1.00  0.00     0.131 NA
ENDROOT
BRANCH   3   7
HETATM    7  N   UNL     1     -44.021  59.518 -53.604  1.00  0.00    -0.210 N 
HETATM    8  C   UNL     1     -45.230  58.910 -54.167  1.00  0.00     0.169 C 
HETATM    9  C   UNL     1     -44.925  58.048 -55.408  1.00  0.00     0.256 C 
HETATM   10  N   UNL     1     -44.128  58.864 -56.457  1.00  0.00    -0.059 N 
HETATM   11  H   UNL     1     -44.708  59.688 -56.657  1.00  0.00     0.281 HD
HETATM   12  C   UNL     1     -42.844  59.415 -55.789  1.00  0.00     0.256 C 
HETATM   13  C   UNL     1     -43.194  60.271 -54.547  1.00  0.00     0.169 C 
BRANCH  10  14
HETATM   14  C   UNL     1     -43.926  58.157 -57.815  1.00  0.00     0.129 C 
HETATM   15  C   UNL     1     -43.036  56.900 -57.615  1.00  0.00     0.043 C 
HETATM   16  C   UNL     1     -42.850  56.149 -58.946  1.00  0.00    -0.012 C 
HETATM   17  C   UNL     1     -42.191  57.096 -59.964  1.00  0.00     0.009 C 
HETATM   18  C   UNL     1     -44.219  55.702 -59.473  1.00  0.00     0.009 C 
HETATM   19  C   UNL     1     -43.080  58.331 -60.190  1.00  0.00    -0.012 C 
HETATM   20  C   UNL     1     -43.262  59.084 -58.856  1.00  0.00     0.043 C 
HETATM   21  C   UNL     1     -44.451  57.871 -60.713  1.00  0.00     0.009 C 
HETATM   22  C   UNL     1     -45.115  56.927 -59.695  1.00  0.00    -0.012 C 
HETATM   23  C   UNL     1     -45.297  57.677 -58.363  1.00  0.00     0.043 C 
ENDBRANCH  10  14
ENDBRANCH   3   7
BRANCH   1  24
HETATM   24  N   UNL     1     -42.843  55.289 -51.950  1.00  0.00    -0.187 N 
HETATM   25  H   UNL     1     -43.400  54.936 -51.181  1.00  0.00     0.184 HD
BRANCH  24  26
HETATM   26  C   UNL     1     -41.966  54.352 -52.516  1.00  0.00     0.049 A 
HETATM   27  C   UNL     1     -41.954  54.056 -53.883  1.00  0.00     0.033 A 
HETATM   28  C   UNL     1     -41.091  53.087 -54.411  1.00  0.00     0.039 A 
HETATM   29  C   UNL     1     -40.238  52.374 -53.572  1.00  0.00     0.076 A 
HETATM   30  C   UNL     1     -40.237  52.669 -52.208  1.00  0.00     0.039 A 
HETATM   31  C   UNL     1     -41.089  53.649 -51.685  1.00  0.00     0.033 A 
BRANCH  29  32
HETATM   32  O   UNL     1     -39.372  51.390 -53.947  1.00  0.00    -0.270 OA
BRANCH  32  33
HETATM   33  C   UNL     1     -39.861  50.056 -54.033  1.00  0.00     0.447 C 
HETATM   34 CL   UNL     1     -39.672  49.243 -52.484  1.00  0.00    -0.014 Cl
HETATM   35  F   UNL     1     -41.175  50.072 -54.388  1.00  0.00    -0.159 F 
HETATM   36  F   UNL     1     -39.188  49.383 -55.000  1.00  0.00    -0.159 F 
ENDBRANCH  32  33
ENDBRANCH  29  32
ENDBRANCH  24  26
ENDBRANCH   1  24
BRANCH   5  37
HETATM   37  N   UNL     1     -41.257  59.178 -49.925  1.00  0.00    -0.221 N 
HETATM   38  H   UNL     1     -41.909  59.557 -49.248  1.00  0.00     0.177 HD
BRANCH  37  39
HETATM   39  C   UNL     1     -40.137  60.030 -50.282  1.00  0.00     0.140 C 
BRANCH  39  40
HETATM   40  C   UNL     1     -38.905  59.199 -50.643  1.00  0.00     0.046 C 
BRANCH  40  41
HETATM   41  C   UNL     1     -38.548  59.202 -52.125  1.00  0.00     0.165 C 
BRANCH  41  42
HETATM   42  O   UNL     1     -39.714  59.248 -52.937  1.00  0.00    -0.401 OA
HETATM   43  H   UNL     1     -40.281  58.520 -52.614  1.00  0.00     0.209 HD
ENDBRANCH  41  42
ENDBRANCH  40  41
ENDBRANCH  39  40
ENDBRANCH  37  39
ENDBRANCH   5  37
TORSDOF 11
ENDMDL
MODEL 3
REMARK VINA RESULT:      -8.6      1.257      1.945
REMARK  11 active torsions:
REMARK  status: ('A' for Active; 'I' for Inactive)
REMARK    1  A    between atoms: C_2  and  N_3 
REMARK    2  A    between atoms: N_3  and  C_4 
REMARK    3  A    between atoms: C_6  and  N_7 
REMARK    4  A    between atoms: N_10  and  C_12 
REMARK    5  A    between atoms: C_25  and  N_26 
REMARK    6  A    between atoms: N_26  and  C_27 
REMARK    7  A    between atoms: C_27  and  C_28 
REMARK    8  A    between atoms: C_28  and  C_29 
REMARK    9  A    between atoms: C_29  and  O_30 
REMARK   10  A    between atoms: C_34  and  O_35 
REMARK   11  A    between atoms: O_35  and  C_36 
ROOT
HETATM    1  C   UNL     1     -43.722  58.051 -51.264  1.00  0.00     0.758 C 
HETATM    2  N   UNL     1     -42.854  58.555 -52.136  1.00  0.00     0.131 NA
HETATM    3  C   UNL     1     -43.128  59.757 -52.614  1.00  0.00     0.756 C 
HETATM    4  N   UNL     1     -44.135  60.500 -52.182  1.00  0.00     0.131 NA
HETATM    5  C   UNL     1     -44.974  59.916 -51.339  1.00  0.00     0.754 C 
HETATM    6  N   UNL     1     -44.818  58.684 -50.869  1.00  0.00     0.131 NA
ENDROOT
BRANCH   3   7
HETATM    7  N   UNL     1     -42.318  60.280 -53.623  1.00  0.00    -0.210 N 
HETATM    8  C   UNL     1     -43.003  61.064 -54.654  1.00  0.00     0.169 C 
HETATM    9  C   UNL     1     -43.602  60.174 -55.761  1.00  0.00     0.256 C 
HETATM   10  N   UNL     1     -42.520  59.234 -56.351  1.00  0.00    -0.059 N 
HETATM   11  H   UNL     1     -41.771  59.856 -56.680  1.00  0.00     0.281 HD
HETATM   12  C   UNL     1     -41.896  58.408 -55.200  1.00  0.00     0.256 C 
HETATM   13  C   UNL     1     -41.309  59.339 -54.110  1.00  0.00     0.169 C 
BRANCH  10  14
HETATM   14  C   UNL     1     -42.965  58.427 -57.590  1.00  0.00     0.129 C 
HETATM   15  C   UNL     1     -44.287  59.023 -58.147  1.00  0.00     0.043 C 
HETATM   16  C   UNL     1     -44.735  58.264 -59.409  1.00  0.00    -0.012 C 
HETATM   17  C   UNL     1     -44.942  56.782 -59.053  1.00  0.00     0.009 C 
HETATM   18  C   UNL     1     -43.651  58.387 -60.487  1.00  0.00     0.009 C 
HETATM   19  C   UNL     1     -43.628  56.176 -58.528  1.00  0.00    -0.012 C 
HETATM   20  C   UNL     1     -43.183  56.936 -57.261  1.00  0.00     0.043 C 
HETATM   21  C   UNL     1     -42.548  56.309 -59.614  1.00  0.00     0.009 C 
HETATM   22  C   UNL     1     -42.335  57.791 -59.970  1.00  0.00    -0.012 C 
HETATM   23  C   UNL     1     -41.892  58.549 -58.705  1.00  0.00     0.043 C 
ENDBRANCH  10  14
ENDBRANCH   3   7
BRANCH   1  24
HETATM   24  N   UNL     1     -43.519  56.771 -50.751  1.00  0.00    -0.187 N 
HETATM   25  H   UNL     1     -43.627  56.754 -49.744  1.00  0.00     0.184 HD
BRANCH  24  26
HETATM   26  C   UNL     1     -42.768  55.710 -51.278  1.00  0.00     0.049 A 
HETATM   27  C   UNL     1     -43.247  54.874 -52.291  1.00  0.00     0.033 A 
HETATM   28  C   UNL     1     -42.487  53.799 -52.769  1.00  0.00     0.039 A 
HETATM   29  C   UNL     1     -41.236  53.525 -52.222  1.00  0.00     0.076 A 
HETATM   30  C   UNL     1     -40.746  54.359 -51.216  1.00  0.00     0.039 A 
HETATM   31  C   UNL     1     -41.501  55.442 -50.751  1.00  0.00     0.033 A 
BRANCH  29  32
HETATM   32  O   UNL     1     -40.407  52.500 -52.571  1.00  0.00    -0.270 OA
BRANCH  32  33
HETATM   33  C   UNL     1     -40.209  52.234 -53.955  1.00  0.00     0.447 C 
HETATM   34 CL   UNL     1     -40.013  53.744 -54.837  1.00  0.00    -0.014 Cl
HETATM   35  F   UNL     1     -39.104  51.457 -54.119  1.00  0.00    -0.159 F 
HETATM   36  F   UNL     1     -41.268  51.541 -54.443  1.00  0.00    -0.159 F 
ENDBRANCH  32  33
ENDBRANCH  29  32
ENDBRANCH  24  26
ENDBRANCH   1  24
BRANCH   5  37
HETATM   37  N   UNL     1     -46.086  60.655 -50.989  1.00  0.00    -0.221 N 
HETATM   38  H   UNL     1     -46.682  60.779 -51.800  1.00  0.00     0.177 HD
BRANCH  37  39
HETATM   39  C   UNL     1     -45.920  61.817 -50.134  1.00  0.00     0.140 C 
BRANCH  39  40
HETATM   40  C   UNL     1     -45.052  61.488 -48.919  1.00  0.00     0.046 C 
BRANCH  40  41
HETATM   41  C   UNL     1     -45.780  60.758 -47.796  1.00  0.00     0.165 C 
BRANCH  41  42
HETATM   42  O   UNL     1     -46.066  59.413 -48.156  1.00  0.00    -0.401 OA
HETATM   43  H   UNL     1     -45.396  59.178 -48.828  1.00  0.00     0.209 HD
ENDBRANCH  41  42
ENDBRANCH  40  41
ENDBRANCH  39  40
ENDBRANCH  37  39
ENDBRANCH   5  37
TORSDOF 11
ENDMDL
MODEL 4
REMARK VINA RESULT:      -8.6      2.377      7.253
REMARK  11 active torsions:
REMARK  status: ('A' for Active; 'I' for Inactive)
REMARK    1  A    between atoms: C_2  and  N_3 
REMARK    2  A    between atoms: N_3  and  C_4 
REMARK    3  A    between atoms: C_6  and  N_7 
REMARK    4  A    between atoms: N_10  and  C_12 
REMARK    5  A    between atoms: C_25  and  N_26 
REMARK    6  A    between atoms: N_26  and  C_27 
REMARK    7  A    between atoms: C_27  and  C_28 
REMARK    8  A    between atoms: C_28  and  C_29 
REMARK    9  A    between atoms: C_29  and  O_30 
REMARK   10  A    between atoms: C_34  and  O_35 
REMARK   11  A    between atoms: O_35  and  C_36 
ROOT
HETATM    1  C   UNL     1     -43.566  56.496 -53.309  1.00  0.00     0.758 C 
HETATM    2  N   UNL     1     -42.910  57.550 -52.832  1.00  0.00     0.131 NA
HETATM    3  C   UNL     1     -43.076  58.691 -53.480  1.00  0.00     0.756 C 
HETATM    4  N   UNL     1     -43.934  58.843 -54.476  1.00  0.00     0.131 NA
HETATM    5  C   UNL     1     -44.524  57.741 -54.915  1.00  0.00     0.754 C 
HETATM    6  N   UNL     1     -44.353  56.541 -54.374  1.00  0.00     0.131 NA
ENDROOT
BRANCH   3   7
HETATM    7  N   UNL     1     -42.317  59.798 -53.097  1.00  0.00    -0.210 N 
HETATM    8  C   UNL     1     -41.793  59.773 -51.729  1.00  0.00     0.169 C 
HETATM    9  C   UNL     1     -42.825  60.273 -50.699  1.00  0.00     0.256 C 
HETATM   10  N   UNL     1     -43.365  61.669 -51.102  1.00  0.00    -0.059 N 
HETATM   11  H   UNL     1     -42.534  62.269 -51.181  1.00  0.00     0.281 HD
HETATM   12  C   UNL     1     -43.949  61.583 -52.533  1.00  0.00     0.256 C 
HETATM   13  C   UNL     1     -42.882  61.075 -53.534  1.00  0.00     0.169 C 
BRANCH  10  14
HETATM   14  C   UNL     1     -44.268  62.346 -50.049  1.00  0.00     0.129 C 
HETATM   15  C   UNL     1     -45.709  62.482 -50.615  1.00  0.00     0.043 C 
HETATM   16  C   UNL     1     -46.645  63.117 -49.571  1.00  0.00    -0.012 C 
HETATM   17  C   UNL     1     -46.101  64.507 -49.194  1.00  0.00     0.009 C 
HETATM   18  C   UNL     1     -46.691  62.228 -48.323  1.00  0.00     0.009 C 
HETATM   19  C   UNL     1     -44.685  64.379 -48.605  1.00  0.00    -0.012 C 
HETATM   20  C   UNL     1     -43.748  63.745 -49.655  1.00  0.00     0.043 C 
HETATM   21  C   UNL     1     -44.743  63.482 -47.358  1.00  0.00     0.009 C 
HETATM   22  C   UNL     1     -45.282  62.090 -47.732  1.00  0.00    -0.012 C 
HETATM   23  C   UNL     1     -44.347  61.457 -48.779  1.00  0.00     0.043 C 
ENDBRANCH  10  14
ENDBRANCH   3   7
BRANCH   1  24
HETATM   24  N   UNL     1     -43.404  55.252 -52.702  1.00  0.00    -0.187 N 
HETATM   25  H   UNL     1     -43.852  55.221 -51.793  1.00  0.00     0.184 HD
BRANCH  24  26
HETATM   26  C   UNL     1     -42.398  54.292 -52.891  1.00  0.00     0.049 A 
HETATM   27  C   UNL     1     -41.595  53.822 -51.847  1.00  0.00     0.033 A 
HETATM   28  C   UNL     1     -40.575  52.891 -52.076  1.00  0.00     0.039 A 
HETATM   29  C   UNL     1     -40.320  52.430 -53.366  1.00  0.00     0.076 A 
HETATM   30  C   UNL     1     -41.121  52.888 -54.413  1.00  0.00     0.039 A 
HETATM   31  C   UNL     1     -42.152  53.807 -54.178  1.00  0.00     0.033 A 
BRANCH  29  32
HETATM   32  O   UNL     1     -39.345  51.550 -53.733  1.00  0.00    -0.270 OA
BRANCH  32  33
HETATM   33  C   UNL     1     -39.676  50.168 -53.809  1.00  0.00     0.447 C 
HETATM   34 CL   UNL     1     -39.674  49.459 -52.198  1.00  0.00    -0.014 Cl
HETATM   35  F   UNL     1     -40.904  50.022 -54.376  1.00  0.00    -0.159 F 
HETATM   36  F   UNL     1     -38.783  49.527 -54.604  1.00  0.00    -0.159 F 
ENDBRANCH  32  33
ENDBRANCH  29  32
ENDBRANCH  24  26
ENDBRANCH   1  24
BRANCH   5  37
HETATM   37  N   UNL     1     -45.323  57.891 -56.031  1.00  0.00    -0.221 N 
HETATM   38  H   UNL     1     -45.913  57.073 -56.139  1.00  0.00     0.177 HD
BRANCH  37  39
HETATM   39  C   UNL     1     -44.740  58.425 -57.249  1.00  0.00     0.140 C 
BRANCH  39  40
HETATM   40  C   UNL     1     -44.520  57.322 -58.285  1.00  0.00     0.046 C 
BRANCH  40  41
HETATM   41  C   UNL     1     -43.280  56.467 -58.050  1.00  0.00     0.165 C 
BRANCH  41  42
HETATM   42  O   UNL     1     -43.563  55.376 -57.183  1.00  0.00    -0.401 OA
HETATM   43  H   UNL     1     -43.498  55.742 -56.279  1.00  0.00     0.209 HD
ENDBRANCH  41  42
ENDBRANCH  40  41
ENDBRANCH  39  40
ENDBRANCH  37  39
ENDBRANCH   5  37
TORSDOF 11
ENDMDL
MODEL 5
REMARK VINA RESULT:      -8.6      2.798      7.256
REMARK  11 active torsions:
REMARK  status: ('A' for Active; 'I' for Inactive)
REMARK    1  A    between atoms: C_2  and  N_3 
REMARK    2  A    between atoms: N_3  and  C_4 
REMARK    3  A    between atoms: C_6  and  N_7 
REMARK    4  A    between atoms: N_10  and  C_12 
REMARK    5  A    between atoms: C_25  and  N_26 
REMARK    6  A    between atoms: N_26  and  C_27 
REMARK    7  A    between atoms: C_27  and  C_28 
REMARK    8  A    between atoms: C_28  and  C_29 
REMARK    9  A    between atoms: C_29  and  O_30 
REMARK   10  A    between atoms: C_34  and  O_35 
REMARK   11  A    between atoms: O_35  and  C_36 
ROOT
HETATM    1  C   UNL     1     -43.024  55.847 -54.825  1.00  0.00     0.758 C 
HETATM    2  N   UNL     1     -42.466  56.976 -54.396  1.00  0.00     0.131 NA
HETATM    3  C   UNL     1     -42.404  57.970 -55.267  1.00  0.00     0.756 C 
HETATM    4  N   UNL     1     -42.963  57.923 -56.466  1.00  0.00     0.131 NA
HETATM    5  C   UNL     1     -43.469  56.755 -56.831  1.00  0.00     0.754 C 
HETATM    6  N   UNL     1     -43.503  55.682 -56.050  1.00  0.00     0.131 NA
ENDROOT
BRANCH   3   7
HETATM    7  N   UNL     1     -41.719  59.132 -54.911  1.00  0.00    -0.210 N 
HETATM    8  C   UNL     1     -41.112  59.135 -53.577  1.00  0.00     0.169 C 
HETATM    9  C   UNL     1     -42.119  59.533 -52.479  1.00  0.00     0.256 C 
HETATM   10  N   UNL     1     -42.799  60.882 -52.824  1.00  0.00    -0.059 N 
HETATM   11  H   UNL     1     -42.028  61.552 -52.942  1.00  0.00     0.281 HD
HETATM   12  C   UNL     1     -43.459  60.764 -54.220  1.00  0.00     0.256 C 
HETATM   13  C   UNL     1     -42.416  60.361 -55.291  1.00  0.00     0.169 C 
BRANCH  10  14
HETATM   14  C   UNL     1     -43.691  61.466 -51.708  1.00  0.00     0.129 C 
HETATM   15  C   UNL     1     -44.699  62.473 -52.327  1.00  0.00     0.043 C 
HETATM   16  C   UNL     1     -45.631  63.043 -51.243  1.00  0.00    -0.012 C 
HETATM   17  C   UNL     1     -44.780  63.750 -50.174  1.00  0.00     0.009 C 
HETATM   18  C   UNL     1     -46.419  61.897 -50.596  1.00  0.00     0.009 C 
HETATM   19  C   UNL     1     -43.798  62.752 -49.535  1.00  0.00    -0.012 C 
HETATM   20  C   UNL     1     -42.862  62.185 -50.623  1.00  0.00     0.043 C 
HETATM   21  C   UNL     1     -44.598  61.606 -48.895  1.00  0.00     0.009 C 
HETATM   22  C   UNL     1     -45.447  60.893 -49.962  1.00  0.00    -0.012 C 
HETATM   23  C   UNL     1     -44.514  60.328 -51.047  1.00  0.00     0.043 C 
ENDBRANCH  10  14
ENDBRANCH   3   7
BRANCH   1  24
HETATM   24  N   UNL     1     -43.086  54.744 -53.974  1.00  0.00    -0.187 N 
HETATM   25  H   UNL     1     -43.928  54.757 -53.410  1.00  0.00     0.184 HD
BRANCH  24  26
HETATM   26  C   UNL     1     -42.045  53.961 -53.454  1.00  0.00     0.049 A 
HETATM   27  C   UNL     1     -41.211  53.180 -54.259  1.00  0.00     0.033 A 
HETATM   28  C   UNL     1     -40.203  52.380 -53.705  1.00  0.00     0.039 A 
HETATM   29  C   UNL     1     -40.028  52.328 -52.325  1.00  0.00     0.076 A 
HETATM   30  C   UNL     1     -40.850  53.111 -51.513  1.00  0.00     0.039 A 
HETATM   31  C   UNL     1     -41.845  53.922 -52.071  1.00  0.00     0.033 A 
BRANCH  29  32
HETATM   32  O   UNL     1     -39.110  51.575 -51.653  1.00  0.00    -0.270 OA
BRANCH  32  33
HETATM   33  C   UNL     1     -39.434  50.221 -51.357  1.00  0.00     0.447 C 
HETATM   34 CL   UNL     1     -39.769  49.342 -52.845  1.00  0.00    -0.014 Cl
HETATM   35  F   UNL     1     -38.398  49.635 -50.698  1.00  0.00    -0.159 F 
HETATM   36  F   UNL     1     -40.514  50.178 -50.536  1.00  0.00    -0.159 F 
ENDBRANCH  32  33
ENDBRANCH  29  32
ENDBRANCH  24  26
ENDBRANCH   1  24
BRANCH   5  37
HETATM   37  N   UNL     1     -43.941  56.682 -58.127  1.00  0.00    -0.221 N 
HETATM   38  H   UNL     1     -44.954  56.667 -58.121  1.00  0.00     0.177 HD
BRANCH  37  39
HETATM   39  C   UNL     1     -43.293  55.780 -59.063  1.00  0.00     0.140 C 
BRANCH  39  40
HETATM   40  C   UNL     1     -44.269  54.719 -59.571  1.00  0.00     0.046 C 
BRANCH  40  41
HETATM   41  C   UNL     1     -45.181  55.182 -60.702  1.00  0.00     0.165 C 
BRANCH  41  42
HETATM   42  O   UNL     1     -44.849  54.540 -61.927  1.00  0.00    -0.401 OA
HETATM   43  H   UNL     1     -45.135  53.613 -61.817  1.00  0.00     0.209 HD
ENDBRANCH  41  42
ENDBRANCH  40  41
ENDBRANCH  39  40
ENDBRANCH  37  39
ENDBRANCH   5  37
TORSDOF 11
ENDMDL
MODEL 6
REMARK VINA RESULT:      -8.1      3.335      7.233
REMARK  11 active torsions:
REMARK  status: ('A' for Active; 'I' for Inactive)
REMARK    1  A    between atoms: C_2  and  N_3 
REMARK    2  A    between atoms: N_3  and  C_4 
REMARK    3  A    between atoms: C_6  and  N_7 
REMARK    4  A    between atoms: N_10  and  C_12 
REMARK    5  A    between atoms: C_25  and  N_26 
REMARK    6  A    between atoms: N_26  and  C_27 
REMARK    7  A    between atoms: C_27  and  C_28 
REMARK    8  A    between atoms: C_28  and  C_29 
REMARK    9  A    between atoms: C_29  and  O_30 
REMARK   10  A    between atoms: C_34  and  O_35 
REMARK   11  A    between atoms: O_35  and  C_36 
ROOT
HETATM    1  C   UNL     1     -42.626  55.560 -55.928  1.00  0.00     0.758 C 
HETATM    2  N   UNL     1     -42.185  56.683 -55.367  1.00  0.00     0.131 NA
HETATM    3  C   UNL     1     -42.345  57.794 -56.068  1.00  0.00     0.756 C 
HETATM    4  N   UNL     1     -43.010  57.844 -57.210  1.00  0.00     0.131 NA
HETATM    5  C   UNL     1     -43.388  56.681 -57.720  1.00  0.00     0.754 C 
HETATM    6  N   UNL     1     -43.198  55.511 -57.123  1.00  0.00     0.131 NA
ENDROOT
BRANCH   3   7
HETATM    7  N   UNL     1     -41.791  58.979 -55.582  1.00  0.00    -0.210 N 
HETATM    8  C   UNL     1     -41.490  59.005 -54.148  1.00  0.00     0.169 C 
HETATM    9  C   UNL     1     -42.724  59.372 -53.300  1.00  0.00     0.256 C 
HETATM   10  N   UNL     1     -43.354  60.698 -53.797  1.00  0.00    -0.059 N 
HETATM   11  H   UNL     1     -42.598  61.392 -53.750  1.00  0.00     0.281 HD
HETATM   12  C   UNL     1     -43.691  60.555 -55.302  1.00  0.00     0.256 C 
HETATM   13  C   UNL     1     -42.427  60.184 -56.116  1.00  0.00     0.169 C 
BRANCH  10  14
HETATM   14  C   UNL     1     -44.486  61.256 -52.908  1.00  0.00     0.129 C 
HETATM   15  C   UNL     1     -45.228  62.390 -53.667  1.00  0.00     0.043 C 
HETATM   16  C   UNL     1     -46.390  62.940 -52.820  1.00  0.00    -0.012 C 
HETATM   17  C   UNL     1     -45.829  63.481 -51.494  1.00  0.00     0.009 C 
HETATM   18  C   UNL     1     -47.387  61.810 -52.533  1.00  0.00     0.009 C 
HETATM   19  C   UNL     1     -45.118  62.356 -50.722  1.00  0.00    -0.012 C 
HETATM   20  C   UNL     1     -43.951  61.810 -51.571  1.00  0.00     0.043 C 
HETATM   21  C   UNL     1     -46.125  61.228 -50.444  1.00  0.00     0.009 C 
HETATM   22  C   UNL     1     -46.685  60.680 -51.769  1.00  0.00    -0.012 C 
HETATM   23  C   UNL     1     -45.521  60.135 -52.616  1.00  0.00     0.043 C 
ENDBRANCH  10  14
ENDBRANCH   3   7
BRANCH   1  24
HETATM   24  N   UNL     1     -42.452  54.346 -55.265  1.00  0.00    -0.187 N 
HETATM   25  H   UNL     1     -42.928  53.591 -55.745  1.00  0.00     0.184 HD
BRANCH  24  26
HETATM   26  C   UNL     1     -42.181  54.102 -53.911  1.00  0.00     0.049 A 
HETATM   27  C   UNL     1     -43.141  54.260 -52.907  1.00  0.00     0.033 A 
HETATM   28  C   UNL     1     -42.828  54.043 -51.559  1.00  0.00     0.039 A 
HETATM   29  C   UNL     1     -41.534  53.687 -51.187  1.00  0.00     0.076 A 
HETATM   30  C   UNL     1     -40.571  53.519 -52.183  1.00  0.00     0.039 A 
HETATM   31  C   UNL     1     -40.891  53.720 -53.531  1.00  0.00     0.033 A 
BRANCH  29  32
HETATM   32  O   UNL     1     -41.087  53.474 -49.916  1.00  0.00    -0.270 OA
BRANCH  32  33
HETATM   33  C   UNL     1     -40.431  54.543 -49.243  1.00  0.00     0.447 C 
HETATM   34 CL   UNL     1     -41.044  56.088 -49.824  1.00  0.00    -0.014 Cl
HETATM   35  F   UNL     1     -40.639  54.438 -47.903  1.00  0.00    -0.159 F 
HETATM   36  F   UNL     1     -39.092  54.463 -49.454  1.00  0.00    -0.159 F 
ENDBRANCH  32  33
ENDBRANCH  29  32
ENDBRANCH  24  26
ENDBRANCH   1  24
BRANCH   5  37
HETATM   37  N   UNL     1     -43.973  56.733 -58.970  1.00  0.00    -0.221 N 
HETATM   38  H   UNL     1     -44.967  56.907 -58.874  1.00  0.00     0.177 HD
BRANCH  37  39
HETATM   39  C   UNL     1     -43.588  55.752 -59.969  1.00  0.00     0.140 C 
BRANCH  39  40
HETATM   40  C   UNL     1     -44.797  54.944 -60.442  1.00  0.00     0.046 C 
BRANCH  40  41
HETATM   41  C   UNL     1     -46.049  55.770 -60.712  1.00  0.00     0.165 C 
BRANCH  41  42
HETATM   42  O   UNL     1     -46.722  56.096 -59.502  1.00  0.00    -0.401 OA
HETATM   43  H   UNL     1     -47.443  55.441 -59.424  1.00  0.00     0.209 HD
ENDBRANCH  41  42
ENDBRANCH  40  41
ENDBRANCH  39  40
ENDBRANCH  37  39
ENDBRANCH   5  37
TORSDOF 11
ENDMDL
MODEL 7
REMARK VINA RESULT:      -8.0      2.961      7.944
REMARK  11 active torsions:
REMARK  status: ('A' for Active; 'I' for Inactive)
REMARK    1  A    between atoms: C_2  and  N_3 
REMARK    2  A    between atoms: N_3  and  C_4 
REMARK    3  A    between atoms: C_6  and  N_7 
REMARK    4  A    between atoms: N_10  and  C_12 
REMARK    5  A    between atoms: C_25  and  N_26 
REMARK    6  A    between atoms: N_26  and  C_27 
REMARK    7  A    between atoms: C_27  and  C_28 
REMARK    8  A    between atoms: C_28  and  C_29 
REMARK    9  A    between atoms: C_29  and  O_30 
REMARK   10  A    between atoms: C_34  and  O_35 
REMARK   11  A    between atoms: O_35  and  C_36 
ROOT
HETATM    1  C   UNL     1     -44.062  57.356 -52.890  1.00  0.00     0.758 C 
HETATM    2  N   UNL     1     -43.460  58.369 -52.272  1.00  0.00     0.131 NA
HETATM    3  C   UNL     1     -43.655  59.573 -52.786  1.00  0.00     0.756 C 
HETATM    4  N   UNL     1     -44.492  59.811 -53.782  1.00  0.00     0.131 NA
HETATM    5  C   UNL     1     -45.027  58.749 -54.365  1.00  0.00     0.754 C 
HETATM    6  N   UNL     1     -44.823  57.500 -53.965  1.00  0.00     0.131 NA
ENDROOT
BRANCH   3   7
HETATM    7  N   UNL     1     -42.950  60.653 -52.253  1.00  0.00    -0.210 N 
HETATM    8  C   UNL     1     -42.341  60.434 -50.938  1.00  0.00     0.169 C 
HETATM    9  C   UNL     1     -43.338  60.670 -49.787  1.00  0.00     0.256 C 
HETATM   10  N   UNL     1     -43.995  62.068 -49.911  1.00  0.00    -0.059 N 
HETATM   11  H   UNL     1     -43.213  62.735 -49.925  1.00  0.00     0.281 HD
HETATM   12  C   UNL     1     -44.660  62.184 -51.305  1.00  0.00     0.256 C 
HETATM   13  C   UNL     1     -43.625  61.938 -52.431  1.00  0.00     0.169 C 
BRANCH  10  14
HETATM   14  C   UNL     1     -44.875  62.484 -48.713  1.00  0.00     0.129 C 
HETATM   15  C   UNL     1     -44.467  63.907 -48.242  1.00  0.00     0.043 C 
HETATM   16  C   UNL     1     -45.355  64.366 -47.072  1.00  0.00    -0.012 C 
HETATM   17  C   UNL     1     -45.203  63.371 -45.909  1.00  0.00     0.009 C 
HETATM   18  C   UNL     1     -46.819  64.402 -47.529  1.00  0.00     0.009 C 
HETATM   19  C   UNL     1     -45.633  61.963 -46.359  1.00  0.00    -0.012 C 
HETATM   20  C   UNL     1     -44.739  61.503 -47.529  1.00  0.00     0.043 C 
HETATM   21  C   UNL     1     -47.099  62.012 -46.819  1.00  0.00     0.009 C 
HETATM   22  C   UNL     1     -47.255  63.003 -47.985  1.00  0.00    -0.012 C 
HETATM   23  C   UNL     1     -46.362  62.545 -49.153  1.00  0.00     0.043 C 
ENDBRANCH  10  14
ENDBRANCH   3   7
BRANCH   1  24
HETATM   24  N   UNL     1     -43.866  56.056 -52.428  1.00  0.00    -0.187 N 
HETATM   25  H   UNL     1     -44.208  55.943 -51.481  1.00  0.00     0.184 HD
BRANCH  24  26
HETATM   26  C   UNL     1     -42.917  55.103 -52.826  1.00  0.00     0.049 A 
HETATM   27  C   UNL     1     -41.877  54.678 -51.993  1.00  0.00     0.033 A 
HETATM   28  C   UNL     1     -40.923  53.752 -52.433  1.00  0.00     0.039 A 
HETATM   29  C   UNL     1     -40.977  53.252 -53.731  1.00  0.00     0.076 A 
HETATM   30  C   UNL     1     -42.015  53.664 -54.567  1.00  0.00     0.039 A 
HETATM   31  C   UNL     1     -42.977  54.577 -54.119  1.00  0.00     0.033 A 
BRANCH  29  32
HETATM   32  O   UNL     1     -40.101  52.372 -54.297  1.00  0.00    -0.270 OA
BRANCH  32  33
HETATM   33  C   UNL     1     -40.295  50.981 -54.062  1.00  0.00     0.447 C 
HETATM   34 CL   UNL     1     -39.069  50.050 -54.916  1.00  0.00    -0.014 Cl
HETATM   35  F   UNL     1     -40.222  50.727 -52.728  1.00  0.00    -0.159 F 
HETATM   36  F   UNL     1     -41.534  50.616 -54.479  1.00  0.00    -0.159 F 
ENDBRANCH  32  33
ENDBRANCH  29  32
ENDBRANCH  24  26
ENDBRANCH   1  24
BRANCH   5  37
HETATM   37  N   UNL     1     -45.803  59.001 -55.480  1.00  0.00    -0.221 N 
HETATM   38  H   UNL     1     -46.770  59.121 -55.201  1.00  0.00     0.177 HD
BRANCH  37  39
HETATM   39  C   UNL     1     -45.576  58.225 -56.686  1.00  0.00     0.140 C 
BRANCH  39  40
HETATM   40  C   UNL     1     -46.874  58.032 -57.470  1.00  0.00     0.046 C 
BRANCH  40  41
HETATM   41  C   UNL     1     -46.684  57.736 -58.954  1.00  0.00     0.165 C 
BRANCH  41  42
HETATM   42  O   UNL     1     -47.036  56.393 -59.260  1.00  0.00    -0.401 OA
HETATM   43  H   UNL     1     -46.391  56.106 -59.936  1.00  0.00     0.209 HD
ENDBRANCH  41  42
ENDBRANCH  40  41
ENDBRANCH  39  40
ENDBRANCH  37  39
ENDBRANCH   5  37
TORSDOF 11
ENDMDL
MODEL 8
REMARK VINA RESULT:      -7.9      4.188      8.342
REMARK  11 active torsions:
REMARK  status: ('A' for Active; 'I' for Inactive)
REMARK    1  A    between atoms: C_2  and  N_3 
REMARK    2  A    between atoms: N_3  and  C_4 
REMARK    3  A    between atoms: C_6  and  N_7 
REMARK    4  A    between atoms: N_10  and  C_12 
REMARK    5  A    between atoms: C_25  and  N_26 
REMARK    6  A    between atoms: N_26  and  C_27 
REMARK    7  A    between atoms: C_27  and  C_28 
REMARK    8  A    between atoms: C_28  and  C_29 
REMARK    9  A    between atoms: C_29  and  O_30 
REMARK   10  A    between atoms: C_34  and  O_35 
REMARK   11  A    between atoms: O_35  and  C_36 
ROOT
HETATM    1  C   UNL     1     -42.515  54.519 -54.699  1.00  0.00     0.758 C 
HETATM    2  N   UNL     1     -42.682  55.108 -53.518  1.00  0.00     0.131 NA
HETATM    3  C   UNL     1     -41.928  54.664 -52.526  1.00  0.00     0.756 C 
HETATM    4  N   UNL     1     -40.964  53.772 -52.688  1.00  0.00     0.131 NA
HETATM    5  C   UNL     1     -40.881  53.209 -53.884  1.00  0.00     0.754 C 
HETATM    6  N   UNL     1     -41.651  53.537 -54.915  1.00  0.00     0.131 NA
ENDROOT
BRANCH   3   7
HETATM    7  N   UNL     1     -42.149  55.160 -51.240  1.00  0.00    -0.210 N 
HETATM    8  C   UNL     1     -43.552  55.330 -50.852  1.00  0.00     0.169 C 
HETATM    9  C   UNL     1     -44.134  56.671 -51.341  1.00  0.00     0.256 C 
HETATM   10  N   UNL     1     -43.244  57.853 -50.881  1.00  0.00    -0.059 N 
HETATM   11  H   UNL     1     -43.193  57.772 -49.858  1.00  0.00     0.281 HD
HETATM   12  C   UNL     1     -41.799  57.615 -51.386  1.00  0.00     0.256 C 
HETATM   13  C   UNL     1     -41.254  56.258 -50.875  1.00  0.00     0.169 C 
BRANCH  10  14
HETATM   14  C   UNL     1     -43.828  59.255 -51.159  1.00  0.00     0.129 C 
HETATM   15  C   UNL     1     -42.868  60.336 -50.590  1.00  0.00     0.043 C 
HETATM   16  C   UNL     1     -43.404  61.748 -50.888  1.00  0.00    -0.012 C 
HETATM   17  C   UNL     1     -44.795  61.899 -50.250  1.00  0.00     0.009 C 
HETATM   18  C   UNL     1     -43.512  61.940 -52.406  1.00  0.00     0.009 C 
HETATM   19  C   UNL     1     -45.760  60.850 -50.830  1.00  0.00    -0.012 C 
HETATM   20  C   UNL     1     -45.223  59.436 -50.526  1.00  0.00     0.043 C 
HETATM   21  C   UNL     1     -45.857  61.049 -52.351  1.00  0.00     0.009 C 
HETATM   22  C   UNL     1     -44.468  60.894 -52.995  1.00  0.00    -0.012 C 
HETATM   23  C   UNL     1     -43.932  59.483 -52.692  1.00  0.00     0.043 C 
ENDBRANCH  10  14
ENDBRANCH   3   7
BRANCH   1  24
HETATM   24  N   UNL     1     -43.306  54.907 -55.779  1.00  0.00    -0.187 N 
HETATM   25  H   UNL     1     -44.013  54.212 -55.989  1.00  0.00     0.184 HD
BRANCH  24  26
HETATM   26  C   UNL     1     -43.002  55.772 -56.840  1.00  0.00     0.049 A 
HETATM   27  C   UNL     1     -42.451  57.043 -56.647  1.00  0.00     0.033 A 
HETATM   28  C   UNL     1     -42.194  57.897 -57.726  1.00  0.00     0.039 A 
HETATM   29  C   UNL     1     -42.510  57.505 -59.024  1.00  0.00     0.076 A 
HETATM   30  C   UNL     1     -43.052  56.235 -59.228  1.00  0.00     0.039 A 
HETATM   31  C   UNL     1     -43.293  55.376 -58.149  1.00  0.00     0.033 A 
BRANCH  29  32
HETATM   32  O   UNL     1     -42.339  58.244 -60.157  1.00  0.00    -0.270 OA
BRANCH  32  33
HETATM   33  C   UNL     1     -43.035  59.481 -60.267  1.00  0.00     0.447 C 
HETATM   34 CL   UNL     1     -42.005  60.801 -59.723  1.00  0.00    -0.014 Cl
HETATM   35  F   UNL     1     -43.403  59.687 -61.561  1.00  0.00    -0.159 F 
HETATM   36  F   UNL     1     -44.169  59.435 -59.524  1.00  0.00    -0.159 F 
ENDBRANCH  32  33
ENDBRANCH  29  32
ENDBRANCH  24  26
ENDBRANCH   1  24
BRANCH   5  37
HETATM   37  N   UNL     1     -39.953  52.194 -54.009  1.00  0.00    -0.221 N 
HETATM   38  H   UNL     1     -39.163  52.520 -54.553  1.00  0.00     0.177 HD
BRANCH  37  39
HETATM   39  C   UNL     1     -40.416  50.847 -54.295  1.00  0.00     0.140 C 
BRANCH  39  40
HETATM   40  C   UNL     1     -39.539  49.804 -53.602  1.00  0.00     0.046 C 
BRANCH  40  41
HETATM   41  C   UNL     1     -39.671  49.768 -52.084  1.00  0.00     0.165 C 
BRANCH  41  42
HETATM   42  O   UNL     1     -39.395  51.040 -51.512  1.00  0.00    -0.401 OA
HETATM   43  H   UNL     1     -39.378  50.891 -50.547  1.00  0.00     0.209 HD
ENDBRANCH  41  42
ENDBRANCH  40  41
ENDBRANCH  39  40
ENDBRANCH  37  39
ENDBRANCH   5  37
TORSDOF 11
ENDMDL
MODEL 9
REMARK VINA RESULT:      -7.9      6.087      8.922
REMARK  11 active torsions:
REMARK  status: ('A' for Active; 'I' for Inactive)
REMARK    1  A    between atoms: C_2  and  N_3 
REMARK    2  A    between atoms: N_3  and  C_4 
REMARK    3  A    between atoms: C_6  and  N_7 
REMARK    4  A    between atoms: N_10  and  C_12 
REMARK    5  A    between atoms: C_25  and  N_26 
REMARK    6  A    between atoms: N_26  and  C_27 
REMARK    7  A    between atoms: C_27  and  C_28 
REMARK    8  A    between atoms: C_28  and  C_29 
REMARK    9  A    between atoms: C_29  and  O_30 
REMARK   10  A    between atoms: C_34  and  O_35 
REMARK   11  A    between atoms: O_35  and  C_36 
ROOT
HETATM    1  C   UNL     1     -45.383  62.316 -51.279  1.00  0.00     0.758 C 
HETATM    2  N   UNL     1     -44.249  61.968 -51.880  1.00  0.00     0.131 NA
HETATM    3  C   UNL     1     -43.506  61.065 -51.261  1.00  0.00     0.756 C 
HETATM    4  N   UNL     1     -43.894  60.431 -50.167  1.00  0.00     0.131 NA
HETATM    5  C   UNL     1     -45.018  60.857 -49.610  1.00  0.00     0.754 C 
HETATM    6  N   UNL     1     -45.785  61.813 -50.121  1.00  0.00     0.131 NA
ENDROOT
BRANCH   3   7
HETATM    7  N   UNL     1     -42.250  60.755 -51.785  1.00  0.00    -0.210 N 
HETATM    8  C   UNL     1     -42.223  60.370 -53.199  1.00  0.00     0.169 C 
HETATM    9  C   UNL     1     -42.546  58.876 -53.403  1.00  0.00     0.256 C 
HETATM   10  N   UNL     1     -41.619  57.993 -52.530  1.00  0.00    -0.059 N 
HETATM   11  H   UNL     1     -40.663  58.251 -52.803  1.00  0.00     0.281 HD
HETATM   12  C   UNL     1     -41.759  58.433 -51.052  1.00  0.00     0.256 C 
HETATM   13  C   UNL     1     -41.429  59.937 -50.892  1.00  0.00     0.169 C 
BRANCH  10  14
HETATM   14  C   UNL     1     -41.731  56.475 -52.790  1.00  0.00     0.129 C 
HETATM   15  C   UNL     1     -41.297  55.700 -51.517  1.00  0.00     0.043 C 
HETATM   16  C   UNL     1     -41.437  54.182 -51.731  1.00  0.00    -0.012 C 
HETATM   17  C   UNL     1     -40.555  53.763 -52.921  1.00  0.00     0.009 C 
HETATM   18  C   UNL     1     -42.902  53.845 -52.034  1.00  0.00     0.009 C 
HETATM   19  C   UNL     1     -40.998  54.505 -54.194  1.00  0.00    -0.012 C 
HETATM   20  C   UNL     1     -40.853  56.026 -53.978  1.00  0.00     0.043 C 
HETATM   21  C   UNL     1     -42.468  54.164 -54.485  1.00  0.00     0.009 C 
HETATM   22  C   UNL     1     -43.354  54.586 -53.300  1.00  0.00    -0.012 C 
HETATM   23  C   UNL     1     -43.210  56.103 -53.083  1.00  0.00     0.043 C 
ENDBRANCH  10  14
ENDBRANCH   3   7
BRANCH   1  24
HETATM   24  N   UNL     1     -46.194  63.294 -51.853  1.00  0.00    -0.187 N 
HETATM   25  H   UNL     1     -45.900  64.225 -51.583  1.00  0.00     0.184 HD
BRANCH  24  26
HETATM   26  C   UNL     1     -47.523  63.203 -52.292  1.00  0.00     0.049 A 
HETATM   27  C   UNL     1     -47.932  62.313 -53.290  1.00  0.00     0.033 A 
HETATM   28  C   UNL     1     -49.260  62.273 -53.731  1.00  0.00     0.039 A 
HETATM   29  C   UNL     1     -50.204  63.146 -53.197  1.00  0.00     0.076 A 
HETATM   30  C   UNL     1     -49.808  64.032 -52.193  1.00  0.00     0.039 A 
HETATM   31  C   UNL     1     -48.483  64.058 -51.743  1.00  0.00     0.033 A 
BRANCH  29  32
HETATM   32  O   UNL     1     -51.518  63.234 -53.552  1.00  0.00    -0.270 OA
BRANCH  32  33
HETATM   33  C   UNL     1     -52.458  62.406 -52.875  1.00  0.00     0.447 C 
HETATM   34 CL   UNL     1     -52.678  62.972 -51.223  1.00  0.00    -0.014 Cl
HETATM   35  F   UNL     1     -53.648  62.430 -53.534  1.00  0.00    -0.159 F 
HETATM   36  F   UNL     1     -52.019  61.122 -52.875  1.00  0.00    -0.159 F 
ENDBRANCH  32  33
ENDBRANCH  29  32
ENDBRANCH  24  26
ENDBRANCH   1  24
BRANCH   5  37
HETATM   37  N   UNL     1     -45.351  60.272 -48.404  1.00  0.00    -0.221 N 
HETATM   38  H   UNL     1     -46.218  59.757 -48.503  1.00  0.00     0.177 HD
BRANCH  37  39
HETATM   39  C   UNL     1     -45.202  61.043 -47.182  1.00  0.00     0.140 C 
BRANCH  39  40
HETATM   40  C   UNL     1     -46.388  60.825 -46.244  1.00  0.00     0.046 C 
BRANCH  40  41
HETATM   41  C   UNL     1     -46.490  59.419 -45.662  1.00  0.00     0.165 C 
BRANCH  41  42
HETATM   42  O   UNL     1     -47.167  58.541 -46.552  1.00  0.00    -0.401 OA
HETATM   43  H   UNL     1     -48.118  58.679 -46.376  1.00  0.00     0.209 HD
ENDBRANCH  41  42
ENDBRANCH  40  41
ENDBRANCH  39  40
ENDBRANCH  37  39
ENDBRANCH   5  37
TORSDOF 11
ENDMDL
MODEL 10
REMARK VINA RESULT:      -7.9      3.413      5.880
REMARK  11 active torsions:
REMARK  status: ('A' for Active; 'I' for Inactive)
REMARK    1  A    between atoms: C_2  and  N_3 
REMARK    2  A    between atoms: N_3  and  C_4 
REMARK    3  A    between atoms: C_6  and  N_7 
REMARK    4  A    between atoms: N_10  and  C_12 
REMARK    5  A    between atoms: C_25  and  N_26 
REMARK    6  A    between atoms: N_26  and  C_27 
REMARK    7  A    between atoms: C_27  and  C_28 
REMARK    8  A    between atoms: C_28  and  C_29 
REMARK    9  A    between atoms: C_29  and  O_30 
REMARK   10  A    between atoms: C_34  and  O_35 
REMARK   11  A    between atoms: O_35  and  C_36 
ROOT
HETATM    1  C   UNL     1     -43.136  56.644 -54.656  1.00  0.00     0.758 C 
HETATM    2  N   UNL     1     -43.610  57.875 -54.486  1.00  0.00     0.131 NA
HETATM    3  C   UNL     1     -44.138  58.456 -55.551  1.00  0.00     0.756 C 
HETATM    4  N   UNL     1     -44.313  57.835 -56.706  1.00  0.00     0.131 NA
HETATM    5  C   UNL     1     -43.784  56.624 -56.807  1.00  0.00     0.754 C 
HETATM    6  N   UNL     1     -43.167  55.998 -55.813  1.00  0.00     0.131 NA
ENDROOT
BRANCH   3   7
HETATM    7  N   UNL     1     -44.539  59.789 -55.460  1.00  0.00    -0.210 N 
HETATM    8  C   UNL     1     -45.224  60.335 -56.635  1.00  0.00     0.169 C 
HETATM    9  C   UNL     1     -44.235  60.829 -57.709  1.00  0.00     0.256 C 
HETATM   10  N   UNL     1     -43.219  61.828 -57.098  1.00  0.00    -0.059 N 
HETATM   11  H   UNL     1     -43.790  62.576 -56.685  1.00  0.00     0.281 HD
HETATM   12  C   UNL     1     -42.506  61.145 -55.906  1.00  0.00     0.256 C 
HETATM   13  C   UNL     1     -43.533  60.662 -54.853  1.00  0.00     0.169 C 
BRANCH  10  14
HETATM   14  C   UNL     1     -42.296  62.525 -58.121  1.00  0.00     0.129 C 
HETATM   15  C   UNL     1     -43.032  62.641 -59.484  1.00  0.00     0.043 C 
HETATM   16  C   UNL     1     -42.151  63.370 -60.515  1.00  0.00    -0.012 C 
HETATM   17  C   UNL     1     -40.841  62.585 -60.696  1.00  0.00     0.009 C 
HETATM   18  C   UNL     1     -41.837  64.782 -60.007  1.00  0.00     0.009 C 
HETATM   19  C   UNL     1     -40.091  62.490 -59.355  1.00  0.00    -0.012 C 
HETATM   20  C   UNL     1     -40.974  61.756 -58.325  1.00  0.00     0.043 C 
HETATM   21  C   UNL     1     -39.786  63.911 -58.853  1.00  0.00     0.009 C 
HETATM   22  C   UNL     1     -41.095  64.698 -58.666  1.00  0.00    -0.012 C 
HETATM   23  C   UNL     1     -41.976  63.965 -57.638  1.00  0.00     0.043 C 
ENDBRANCH  10  14
ENDBRANCH   3   7
BRANCH   1  24
HETATM   24  N   UNL     1     -42.527  55.988 -53.587  1.00  0.00    -0.187 N 
HETATM   25  H   UNL     1     -42.353  56.620 -52.815  1.00  0.00     0.184 HD
BRANCH  24  26
HETATM   26  C   UNL     1     -41.734  54.830 -53.588  1.00  0.00     0.049 A 
HETATM   27  C   UNL     1     -41.587  54.014 -52.462  1.00  0.00     0.033 A 
HETATM   28  C   UNL     1     -40.758  52.885 -52.484  1.00  0.00     0.039 A 
HETATM   29  C   UNL     1     -40.037  52.566 -53.632  1.00  0.00     0.076 A 
HETATM   30  C   UNL     1     -40.185  53.370 -54.763  1.00  0.00     0.039 A 
HETATM   31  C   UNL     1     -41.027  54.488 -54.743  1.00  0.00     0.033 A 
BRANCH  29  32
HETATM   32  O   UNL     1     -39.177  51.518 -53.782  1.00  0.00    -0.270 OA
BRANCH  32  33
HETATM   33  C   UNL     1     -39.723  50.213 -53.937  1.00  0.00     0.447 C 
HETATM   34 CL   UNL     1     -39.775  49.393 -52.380  1.00  0.00    -0.014 Cl
HETATM   35  F   UNL     1     -40.978  50.299 -54.455  1.00  0.00    -0.159 F 
HETATM   36  F   UNL     1     -38.970  49.503 -54.815  1.00  0.00    -0.159 F 
ENDBRANCH  32  33
ENDBRANCH  29  32
ENDBRANCH  24  26
ENDBRANCH   1  24
BRANCH   5  37
HETATM   37  N   UNL     1     -43.865  56.034 -58.053  1.00  0.00    -0.221 N 
HETATM   38  H   UNL     1     -42.940  55.755 -58.358  1.00  0.00     0.177 HD
BRANCH  37  39
HETATM   39  C   UNL     1     -44.719  56.634 -59.063  1.00  0.00     0.140 C 
BRANCH  39  40
HETATM   40  C   UNL     1     -45.281  55.574 -60.010  1.00  0.00     0.046 C 
BRANCH  40  41
HETATM   41  C   UNL     1     -44.500  54.265 -60.035  1.00  0.00     0.165 C 
BRANCH  41  42
HETATM   42  O   UNL     1     -45.126  53.276 -59.228  1.00  0.00    -0.401 OA
HETATM   43  H   UNL     1     -45.083  53.624 -58.316  1.00  0.00     0.209 HD
ENDBRANCH  41  42
ENDBRANCH  40  41
ENDBRANCH  39  40
ENDBRANCH  37  39
ENDBRANCH   5  37
TORSDOF 11
ENDMDL
