MODEL 1
REMARK VINA RESULT:      -7.6      0.000      0.000
REMARK  5 active torsions:
REMARK  status: ('A' for Active; 'I' for Inactive)
REMARK    1  A    between atoms: C_7  and  C_8 
REMARK    2  A    between atoms: C_8  and  N_9 
REMARK    3  A    between atoms: N_9  and  C_12 
REMARK    4  A    between atoms: C_15  and  O_16 
REMARK    5  A    between atoms: O_16  and  C_17 
ROOT
HETATM    1  C   UNL     1     -40.741  54.300 -53.315  1.00  0.00     0.164 A 
HETATM    2  N   UNL     1     -40.850  54.205 -51.973  1.00  0.00    -0.236 NA
HETATM    3  C   UNL     1     -40.453  53.034 -51.413  1.00  0.00     0.142 A 
HETATM    4  C   UNL     1     -39.961  51.956 -52.136  1.00  0.00     0.062 A 
HETATM    5  C   UNL     1     -39.560  50.758 -51.469  1.00  0.00     0.101 C 
HETATM    6  N   UNL     1     -39.236  49.787 -50.924  1.00  0.00    -0.191 NA
HETATM    7  C   UNL     1     -39.874  52.082 -53.521  1.00  0.00     0.028 A 
HETATM    8  C   UNL     1     -40.277  53.273 -54.124  1.00  0.00     0.059 A 
ENDROOT
BRANCH   1   9
HETATM    9  O   UNL     1     -41.142  55.454 -53.953  1.00  0.00    -0.329 OA
BRANCH   9  10
HETATM   10  C   UNL     1     -42.562  55.639 -54.015  1.00  0.00     0.130 C 
HETATM   11  C   UNL     1     -42.794  57.110 -54.389  1.00  0.00     0.034 C 
HETATM   12  C   UNL     1     -42.253  57.440 -55.784  1.00  0.00     0.035 C 
HETATM   13  C   UNL     1     -42.806  56.519 -56.876  1.00  0.00     0.186 C 
HETATM   14  C   UNL     1     -42.645  55.044 -56.493  1.00  0.00     0.035 C 
HETATM   15  C   UNL     1     -43.169  54.722 -55.088  1.00  0.00     0.034 C 
BRANCH  13  16
HETATM   16  N   UNL     1     -44.266  56.794 -57.120  1.00  0.00    -0.067 N 
HETATM   17  H   UNL     1     -44.750  57.065 -56.256  1.00  0.00     0.278 HD
HETATM   18  H   UNL     1     -44.722  55.918 -57.414  1.00  0.00     0.278 HD
BRANCH  16  19
HETATM   19  C   UNL     1     -44.579  57.802 -58.183  1.00  0.00     0.280 C 
BRANCH  19  20
HETATM   20  C   UNL     1     -45.396  57.194 -59.262  1.00  0.00     0.034 A 
HETATM   21  C   UNL     1     -45.175  56.036 -59.991  1.00  0.00     0.046 A 
HETATM   22  C   UNL     1     -44.037  55.086 -59.865  1.00  0.00     0.071 C 
HETATM   23  N   UNL     1     -46.143  55.764 -60.937  1.00  0.00    -0.250 NA
HETATM   24  C   UNL     1     -47.097  56.668 -60.909  1.00  0.00     0.072 A 
HETATM   25  C   UNL     1     -48.313  56.642 -61.767  1.00  0.00     0.078 C 
HETATM   26  S   UNL     1     -46.855  57.937 -59.779  1.00  0.00    -0.076 SA
ENDBRANCH  19  20
ENDBRANCH  16  19
ENDBRANCH  13  16
ENDBRANCH   9  10
ENDBRANCH   1   9
TORSDOF 5
ENDMDL
MODEL 2
REMARK VINA RESULT:      -7.5      5.501      7.558
REMARK  5 active torsions:
REMARK  status: ('A' for Active; 'I' for Inactive)
REMARK    1  A    between atoms: C_7  and  C_8 
REMARK    2  A    between atoms: C_8  and  N_9 
REMARK    3  A    between atoms: N_9  and  C_12 
REMARK    4  A    between atoms: C_15  and  O_16 
REMARK    5  A    between atoms: O_16  and  C_17 
ROOT
HETATM    1  C   UNL     1     -40.705  54.395 -52.845  1.00  0.00     0.164 A 
HETATM    2  N   UNL     1     -40.357  53.514 -51.884  1.00  0.00    -0.236 NA
HETATM    3  C   UNL     1     -40.040  52.261 -52.296  1.00  0.00     0.142 A 
HETATM    4  C   UNL     1     -40.063  51.850 -53.622  1.00  0.00     0.062 A 
HETATM    5  C   UNL     1     -39.711  50.511 -53.974  1.00  0.00     0.101 C 
HETATM    6  N   UNL     1     -39.425  49.423 -54.255  1.00  0.00    -0.191 NA
HETATM    7  C   UNL     1     -40.440  52.782 -54.588  1.00  0.00     0.028 A 
HETATM    8  C   UNL     1     -40.774  54.077 -54.193  1.00  0.00     0.059 A 
ENDROOT
BRANCH   1   9
HETATM    9  O   UNL     1     -41.056  55.682 -52.498  1.00  0.00    -0.329 OA
BRANCH   9  10
HETATM   10  C   UNL     1     -41.715  55.799 -51.230  1.00  0.00     0.130 C 
HETATM   11  C   UNL     1     -41.401  57.206 -50.703  1.00  0.00     0.034 C 
HETATM   12  C   UNL     1     -41.990  58.300 -51.600  1.00  0.00     0.035 C 
HETATM   13  C   UNL     1     -43.496  58.143 -51.830  1.00  0.00     0.186 C 
HETATM   14  C   UNL     1     -43.841  56.722 -52.293  1.00  0.00     0.035 C 
HETATM   15  C   UNL     1     -43.232  55.631 -51.405  1.00  0.00     0.034 C 
BRANCH  13  16
HETATM   16  N   UNL     1     -44.264  58.435 -50.569  1.00  0.00    -0.067 N 
HETATM   17  H   UNL     1     -43.638  58.657 -49.786  1.00  0.00     0.278 HD
HETATM   18  H   UNL     1     -44.757  57.579 -50.277  1.00  0.00     0.278 HD
BRANCH  16  19
HETATM   19  C   UNL     1     -45.310  59.503 -50.666  1.00  0.00     0.280 C 
BRANCH  19  20
HETATM   20  C   UNL     1     -44.803  60.787 -50.121  1.00  0.00     0.034 A 
HETATM   21  C   UNL     1     -44.946  61.327 -48.854  1.00  0.00     0.046 A 
HETATM   22  C   UNL     1     -45.657  60.734 -47.689  1.00  0.00     0.071 C 
HETATM   23  N   UNL     1     -44.348  62.559 -48.687  1.00  0.00    -0.250 NA
HETATM   24  C   UNL     1     -43.732  62.937 -49.786  1.00  0.00     0.072 A 
HETATM   25  C   UNL     1     -42.949  64.195 -49.926  1.00  0.00     0.078 C 
HETATM   26  S   UNL     1     -43.889  61.854 -51.108  1.00  0.00    -0.076 SA
ENDBRANCH  19  20
ENDBRANCH  16  19
ENDBRANCH  13  16
ENDBRANCH   9  10
ENDBRANCH   1   9
TORSDOF 5
ENDMDL
MODEL 3
REMARK VINA RESULT:      -7.3      5.658      7.740
REMARK  5 active torsions:
REMARK  status: ('A' for Active; 'I' for Inactive)
REMARK    1  A    between atoms: C_7  and  C_8 
REMARK    2  A    between atoms: C_8  and  N_9 
REMARK    3  A    between atoms: N_9  and  C_12 
REMARK    4  A    between atoms: C_15  and  O_16 
REMARK    5  A    between atoms: O_16  and  C_17 
ROOT
HETATM    1  C   UNL     1     -40.860  54.771 -53.053  1.00  0.00     0.164 A 
HETATM    2  N   UNL     1     -40.623  53.921 -52.032  1.00  0.00    -0.236 NA
HETATM    3  C   UNL     1     -40.299  52.646 -52.367  1.00  0.00     0.142 A 
HETATM    4  C   UNL     1     -40.210  52.186 -53.674  1.00  0.00     0.062 A 
HETATM    5  C   UNL     1     -39.859  50.828 -53.943  1.00  0.00     0.101 C 
HETATM    6  N   UNL     1     -39.574  49.724 -54.157  1.00  0.00    -0.191 NA
HETATM    7  C   UNL     1     -40.475  53.087 -54.704  1.00  0.00     0.028 A 
HETATM    8  C   UNL     1     -40.813  54.403 -54.389  1.00  0.00     0.059 A 
ENDROOT
BRANCH   1   9
HETATM    9  O   UNL     1     -41.212  56.077 -52.786  1.00  0.00    -0.329 OA
BRANCH   9  10
HETATM   10  C   UNL     1     -41.725  56.299 -51.466  1.00  0.00     0.130 C 
HETATM   11  C   UNL     1     -41.150  57.643 -50.996  1.00  0.00     0.034 C 
HETATM   12  C   UNL     1     -41.643  58.812 -51.854  1.00  0.00     0.035 C 
HETATM   13  C   UNL     1     -43.170  58.889 -51.943  1.00  0.00     0.186 C 
HETATM   14  C   UNL     1     -43.772  57.538 -52.346  1.00  0.00     0.035 C 
HETATM   15  C   UNL     1     -43.259  56.369 -51.499  1.00  0.00     0.034 C 
BRANCH  13  16
HETATM   16  N   UNL     1     -43.764  59.302 -50.623  1.00  0.00    -0.067 N 
HETATM   17  H   UNL     1     -43.458  58.685 -49.860  1.00  0.00     0.278 HD
HETATM   18  H   UNL     1     -44.786  59.179 -50.667  1.00  0.00     0.278 HD
BRANCH  16  19
HETATM   19  C   UNL     1     -43.534  60.724 -50.211  1.00  0.00     0.280 C 
BRANCH  19  20
HETATM   20  C   UNL     1     -44.711  61.258 -49.482  1.00  0.00     0.034 A 
HETATM   21  C   UNL     1     -45.935  61.682 -49.972  1.00  0.00     0.046 A 
HETATM   22  C   UNL     1     -46.390  61.701 -51.388  1.00  0.00     0.071 C 
HETATM   23  N   UNL     1     -46.811  62.134 -49.006  1.00  0.00    -0.250 NA
HETATM   24  C   UNL     1     -46.285  62.025 -47.805  1.00  0.00     0.072 A 
HETATM   25  C   UNL     1     -46.985  62.381 -46.540  1.00  0.00     0.078 C 
HETATM   26  S   UNL     1     -44.677  61.427 -47.774  1.00  0.00    -0.076 SA
ENDBRANCH  19  20
ENDBRANCH  16  19
ENDBRANCH  13  16
ENDBRANCH   9  10
ENDBRANCH   1   9
TORSDOF 5
ENDMDL
MODEL 4
REMARK VINA RESULT:      -7.3      5.447      7.212
REMARK  5 active torsions:
REMARK  status: ('A' for Active; 'I' for Inactive)
REMARK    1  A    between atoms: C_7  and  C_8 
REMARK    2  A    between atoms: C_8  and  N_9 
REMARK    3  A    between atoms: N_9  and  C_12 
REMARK    4  A    between atoms: C_15  and  O_16 
REMARK    5  A    between atoms: O_16  and  C_17 
ROOT
HETATM    1  C   UNL     1     -40.688  54.518 -53.029  1.00  0.00     0.164 A 
HETATM    2  N   UNL     1     -40.446  53.662 -52.015  1.00  0.00    -0.236 NA
HETATM    3  C   UNL     1     -40.138  52.386 -52.358  1.00  0.00     0.142 A 
HETATM    4  C   UNL     1     -40.071  51.929 -53.667  1.00  0.00     0.062 A 
HETATM    5  C   UNL     1     -39.736  50.568 -53.945  1.00  0.00     0.101 C 
HETATM    6  N   UNL     1     -39.465  49.463 -54.166  1.00  0.00    -0.191 NA
HETATM    7  C   UNL     1     -40.340  52.836 -54.691  1.00  0.00     0.028 A 
HETATM    8  C   UNL     1     -40.661  54.154 -54.367  1.00  0.00     0.059 A 
ENDROOT
BRANCH   1   9
HETATM    9  O   UNL     1     -41.023  55.827 -52.753  1.00  0.00    -0.329 OA
BRANCH   9  10
HETATM   10  C   UNL     1     -41.798  56.005 -51.560  1.00  0.00     0.130 C 
HETATM   11  C   UNL     1     -41.013  56.982 -50.673  1.00  0.00     0.034 C 
HETATM   12  C   UNL     1     -40.883  58.366 -51.317  1.00  0.00     0.035 C 
HETATM   13  C   UNL     1     -42.233  58.974 -51.712  1.00  0.00     0.186 C 
HETATM   14  C   UNL     1     -43.063  57.989 -52.543  1.00  0.00     0.035 C 
HETATM   15  C   UNL     1     -43.172  56.599 -51.905  1.00  0.00     0.034 C 
BRANCH  13  16
HETATM   16  N   UNL     1     -43.026  59.357 -50.491  1.00  0.00    -0.067 N 
HETATM   17  H   UNL     1     -42.736  58.817 -49.666  1.00  0.00     0.278 HD
HETATM   18  H   UNL     1     -44.011  59.097 -50.643  1.00  0.00     0.278 HD
BRANCH  16  19
HETATM   19  C   UNL     1     -43.030  60.812 -50.137  1.00  0.00     0.280 C 
BRANCH  19  20
HETATM   20  C   UNL     1     -44.413  61.351 -50.140  1.00  0.00     0.034 A 
HETATM   21  C   UNL     1     -45.312  61.483 -49.095  1.00  0.00     0.046 A 
HETATM   22  C   UNL     1     -45.107  61.115 -47.667  1.00  0.00     0.071 C 
HETATM   23  N   UNL     1     -46.530  62.022 -49.454  1.00  0.00    -0.250 NA
HETATM   24  C   UNL     1     -46.552  62.328 -50.733  1.00  0.00     0.072 A 
HETATM   25  C   UNL     1     -47.700  62.970 -51.429  1.00  0.00     0.078 C 
HETATM   26  S   UNL     1     -45.122  61.927 -51.594  1.00  0.00    -0.076 SA
ENDBRANCH  19  20
ENDBRANCH  16  19
ENDBRANCH  13  16
ENDBRANCH   9  10
ENDBRANCH   1   9
TORSDOF 5
ENDMDL
MODEL 5
REMARK VINA RESULT:      -7.2      1.682      2.287
REMARK  5 active torsions:
REMARK  status: ('A' for Active; 'I' for Inactive)
REMARK    1  A    between atoms: C_7  and  C_8 
REMARK    2  A    between atoms: C_8  and  N_9 
REMARK    3  A    between atoms: N_9  and  C_12 
REMARK    4  A    between atoms: C_15  and  O_16 
REMARK    5  A    between atoms: O_16  and  C_17 
ROOT
HETATM    1  C   UNL     1     -40.615  53.935 -53.123  1.00  0.00     0.164 A 
HETATM    2  N   UNL     1     -40.616  53.871 -51.776  1.00  0.00    -0.236 NA
HETATM    3  C   UNL     1     -40.213  52.699 -51.223  1.00  0.00     0.142 A 
HETATM    4  C   UNL     1     -39.817  51.590 -51.958  1.00  0.00     0.062 A 
HETATM    5  C   UNL     1     -39.402  50.392 -51.299  1.00  0.00     0.101 C 
HETATM    6  N   UNL     1     -39.066  49.422 -50.760  1.00  0.00    -0.191 NA
HETATM    7  C   UNL     1     -39.841  51.685 -53.349  1.00  0.00     0.028 A 
HETATM    8  C   UNL     1     -40.254  52.877 -53.944  1.00  0.00     0.059 A 
ENDROOT
BRANCH   1   9
HETATM    9  O   UNL     1     -41.029  55.089 -53.753  1.00  0.00    -0.329 OA
BRANCH   9  10
HETATM   10  C   UNL     1     -42.419  55.397 -53.580  1.00  0.00     0.130 C 
HETATM   11  C   UNL     1     -42.561  56.910 -53.800  1.00  0.00     0.034 C 
HETATM   12  C   UNL     1     -42.201  57.319 -55.232  1.00  0.00     0.035 C 
HETATM   13  C   UNL     1     -42.994  56.551 -56.293  1.00  0.00     0.186 C 
HETATM   14  C   UNL     1     -42.922  55.038 -56.054  1.00  0.00     0.035 C 
HETATM   15  C   UNL     1     -43.262  54.636 -54.615  1.00  0.00     0.034 C 
BRANCH  13  16
HETATM   16  N   UNL     1     -44.441  56.968 -56.287  1.00  0.00    -0.067 N 
HETATM   17  H   UNL     1     -44.841  56.934 -55.341  1.00  0.00     0.278 HD
HETATM   18  H   UNL     1     -44.985  56.280 -56.828  1.00  0.00     0.278 HD
BRANCH  16  19
HETATM   19  C   UNL     1     -44.745  58.305 -56.890  1.00  0.00     0.280 C 
BRANCH  19  20
HETATM   20  C   UNL     1     -44.153  58.418 -58.246  1.00  0.00     0.034 A 
HETATM   21  C   UNL     1     -44.488  57.752 -59.414  1.00  0.00     0.046 A 
HETATM   22  C   UNL     1     -45.557  56.735 -59.606  1.00  0.00     0.071 C 
HETATM   23  N   UNL     1     -43.718  58.095 -60.507  1.00  0.00    -0.250 NA
HETATM   24  C   UNL     1     -42.842  59.024 -60.194  1.00  0.00     0.072 A 
HETATM   25  C   UNL     1     -41.892  59.649 -61.155  1.00  0.00     0.078 C 
HETATM   26  S   UNL     1     -42.853  59.499 -58.544  1.00  0.00    -0.076 SA
ENDBRANCH  19  20
ENDBRANCH  16  19
ENDBRANCH  13  16
ENDBRANCH   9  10
ENDBRANCH   1   9
TORSDOF 5
ENDMDL
MODEL 6
REMARK VINA RESULT:      -7.2      1.808      2.291
REMARK  5 active torsions:
REMARK  status: ('A' for Active; 'I' for Inactive)
REMARK    1  A    between atoms: C_7  and  C_8 
REMARK    2  A    between atoms: C_8  and  N_9 
REMARK    3  A    between atoms: N_9  and  C_12 
REMARK    4  A    between atoms: C_15  and  O_16 
REMARK    5  A    between atoms: O_16  and  C_17 
ROOT
HETATM    1  C   UNL     1     -41.487  55.785 -52.370  1.00  0.00     0.164 A 
HETATM    2  N   UNL     1     -41.156  54.481 -52.280  1.00  0.00    -0.236 NA
HETATM    3  C   UNL     1     -40.914  54.000 -51.034  1.00  0.00     0.142 A 
HETATM    4  C   UNL     1     -40.982  54.768 -49.880  1.00  0.00     0.062 A 
HETATM    5  C   UNL     1     -40.717  54.185 -48.603  1.00  0.00     0.101 C 
HETATM    6  N   UNL     1     -40.500  53.707 -47.569  1.00  0.00    -0.191 NA
HETATM    7  C   UNL     1     -41.313  56.116 -50.010  1.00  0.00     0.028 A 
HETATM    8  C   UNL     1     -41.564  56.637 -51.279  1.00  0.00     0.059 A 
ENDROOT
BRANCH   1   9
HETATM    9  O   UNL     1     -41.728  56.345 -53.607  1.00  0.00    -0.329 OA
BRANCH   9  10
HETATM   10  C   UNL     1     -43.116  56.482 -53.938  1.00  0.00     0.130 C 
HETATM   11  C   UNL     1     -43.263  57.835 -54.651  1.00  0.00     0.034 C 
HETATM   12  C   UNL     1     -42.495  57.873 -55.975  1.00  0.00     0.035 C 
HETATM   13  C   UNL     1     -42.873  56.730 -56.922  1.00  0.00     0.186 C 
HETATM   14  C   UNL     1     -42.799  55.373 -56.212  1.00  0.00     0.035 C 
HETATM   15  C   UNL     1     -43.550  55.346 -54.877  1.00  0.00     0.034 C 
BRANCH  13  16
HETATM   16  N   UNL     1     -44.268  56.915 -57.455  1.00  0.00    -0.067 N 
HETATM   17  H   UNL     1     -44.900  57.297 -56.740  1.00  0.00     0.278 HD
HETATM   18  H   UNL     1     -44.659  55.990 -57.685  1.00  0.00     0.278 HD
BRANCH  16  19
HETATM   19  C   UNL     1     -44.396  57.741 -58.699  1.00  0.00     0.280 C 
BRANCH  19  20
HETATM   20  C   UNL     1     -45.331  57.105 -59.660  1.00  0.00     0.034 A 
HETATM   21  C   UNL     1     -45.275  55.853 -60.249  1.00  0.00     0.046 A 
HETATM   22  C   UNL     1     -44.239  54.802 -60.055  1.00  0.00     0.071 C 
HETATM   23  N   UNL     1     -46.317  55.582 -61.113  1.00  0.00    -0.250 NA
HETATM   24  C   UNL     1     -47.167  56.584 -61.156  1.00  0.00     0.072 A 
HETATM   25  C   UNL     1     -48.424  56.593 -61.952  1.00  0.00     0.078 C 
HETATM   26  S   UNL     1     -46.729  57.942 -60.201  1.00  0.00    -0.076 SA
ENDBRANCH  19  20
ENDBRANCH  16  19
ENDBRANCH  13  16
ENDBRANCH   9  10
ENDBRANCH   1   9
TORSDOF 5
ENDMDL
MODEL 7
REMARK VINA RESULT:      -6.9      2.567      3.068
REMARK  5 active torsions:
REMARK  status: ('A' for Active; 'I' for Inactive)
REMARK    1  A    between atoms: C_7  and  C_8 
REMARK    2  A    between atoms: C_8  and  N_9 
REMARK    3  A    between atoms: N_9  and  C_12 
REMARK    4  A    between atoms: C_15  and  O_16 
REMARK    5  A    between atoms: O_16  and  C_17 
ROOT
HETATM    1  C   UNL     1     -42.341  55.886 -52.385  1.00  0.00     0.164 A 
HETATM    2  N   UNL     1     -41.405  56.567 -51.692  1.00  0.00    -0.236 NA
HETATM    3  C   UNL     1     -40.997  56.016 -50.521  1.00  0.00     0.142 A 
HETATM    4  C   UNL     1     -41.490  54.823 -50.011  1.00  0.00     0.062 A 
HETATM    5  C   UNL     1     -41.004  54.308 -48.770  1.00  0.00     0.101 C 
HETATM    6  N   UNL     1     -40.607  53.894 -47.762  1.00  0.00    -0.191 NA
HETATM    7  C   UNL     1     -42.467  54.152 -50.745  1.00  0.00     0.028 A 
HETATM    8  C   UNL     1     -42.906  54.697 -51.952  1.00  0.00     0.059 A 
ENDROOT
BRANCH   1   9
HETATM    9  O   UNL     1     -42.815  56.396 -53.575  1.00  0.00    -0.329 OA
BRANCH   9  10
HETATM   10  C   UNL     1     -41.799  56.713 -54.535  1.00  0.00     0.130 C 
HETATM   11  C   UNL     1     -41.474  55.407 -55.274  1.00  0.00     0.034 C 
HETATM   12  C   UNL     1     -42.673  54.884 -56.070  1.00  0.00     0.035 C 
HETATM   13  C   UNL     1     -43.245  55.918 -57.045  1.00  0.00     0.186 C 
HETATM   14  C   UNL     1     -43.515  57.253 -56.342  1.00  0.00     0.035 C 
HETATM   15  C   UNL     1     -42.319  57.762 -55.529  1.00  0.00     0.034 C 
BRANCH  13  16
HETATM   16  N   UNL     1     -42.294  56.162 -58.187  1.00  0.00    -0.067 N 
HETATM   17  H   UNL     1     -41.434  55.609 -58.088  1.00  0.00     0.278 HD
HETATM   18  H   UNL     1     -41.982  57.143 -58.152  1.00  0.00     0.278 HD
BRANCH  16  19
HETATM   19  C   UNL     1     -42.848  55.950 -59.562  1.00  0.00     0.280 C 
BRANCH  19  20
HETATM   20  C   UNL     1     -43.821  57.015 -59.908  1.00  0.00     0.034 A 
HETATM   21  C   UNL     1     -43.595  58.324 -60.301  1.00  0.00     0.046 A 
HETATM   22  C   UNL     1     -42.285  59.005 -60.486  1.00  0.00     0.071 C 
HETATM   23  N   UNL     1     -44.742  59.055 -60.539  1.00  0.00    -0.250 NA
HETATM   24  C   UNL     1     -45.816  58.316 -60.369  1.00  0.00     0.072 A 
HETATM   25  C   UNL     1     -47.210  58.786 -60.592  1.00  0.00     0.078 C 
HETATM   26  S   UNL     1     -45.509  56.708 -59.851  1.00  0.00    -0.076 SA
ENDBRANCH  19  20
ENDBRANCH  16  19
ENDBRANCH  13  16
ENDBRANCH   9  10
ENDBRANCH   1   9
TORSDOF 5
ENDMDL
MODEL 8
REMARK VINA RESULT:      -6.8     15.226     18.070
REMARK  5 active torsions:
REMARK  status: ('A' for Active; 'I' for Inactive)
REMARK    1  A    between atoms: C_7  and  C_8 
REMARK    2  A    between atoms: C_8  and  N_9 
REMARK    3  A    between atoms: N_9  and  C_12 
REMARK    4  A    between atoms: C_15  and  O_16 
REMARK    5  A    between atoms: O_16  and  C_17 
ROOT
HETATM    1  C   UNL     1     -37.623  39.856 -59.540  1.00  0.00     0.164 A 
HETATM    2  N   UNL     1     -38.698  39.120 -59.191  1.00  0.00    -0.236 NA
HETATM    3  C   UNL     1     -39.248  38.350 -60.164  1.00  0.00     0.142 A 
HETATM    4  C   UNL     1     -38.775  38.292 -61.467  1.00  0.00     0.062 A 
HETATM    5  C   UNL     1     -39.409  37.451 -62.433  1.00  0.00     0.101 C 
HETATM    6  N   UNL     1     -39.928  36.768 -63.214  1.00  0.00    -0.191 NA
HETATM    7  C   UNL     1     -37.671  39.076 -61.798  1.00  0.00     0.028 A 
HETATM    8  C   UNL     1     -37.087  39.878 -60.819  1.00  0.00     0.059 A 
ENDROOT
BRANCH   1   9
HETATM    9  O   UNL     1     -37.023  40.675 -58.607  1.00  0.00    -0.329 OA
BRANCH   9  10
HETATM   10  C   UNL     1     -36.704  40.032 -57.366  1.00  0.00     0.130 C 
HETATM   11  C   UNL     1     -35.187  40.179 -57.177  1.00  0.00     0.034 C 
HETATM   12  C   UNL     1     -34.766  41.644 -57.026  1.00  0.00     0.035 C 
HETATM   13  C   UNL     1     -35.514  42.373 -55.906  1.00  0.00     0.186 C 
HETATM   14  C   UNL     1     -37.030  42.183 -56.037  1.00  0.00     0.035 C 
HETATM   15  C   UNL     1     -37.445  40.718 -56.209  1.00  0.00     0.034 C 
BRANCH  13  16
HETATM   16  N   UNL     1     -35.084  41.866 -54.556  1.00  0.00    -0.067 N 
HETATM   17  H   UNL     1     -34.073  41.977 -54.414  1.00  0.00     0.278 HD
HETATM   18  H   UNL     1     -35.245  40.849 -54.518  1.00  0.00     0.278 HD
BRANCH  16  19
HETATM   19  C   UNL     1     -35.802  42.444 -53.375  1.00  0.00     0.280 C 
BRANCH  19  20
HETATM   20  C   UNL     1     -36.129  41.385 -52.388  1.00  0.00     0.034 A 
HETATM   21  C   UNL     1     -35.374  40.896 -51.334  1.00  0.00     0.046 A 
HETATM   22  C   UNL     1     -34.013  41.327 -50.914  1.00  0.00     0.071 C 
HETATM   23  N   UNL     1     -35.986  39.892 -50.612  1.00  0.00    -0.250 NA
HETATM   24  C   UNL     1     -37.190  39.643 -51.076  1.00  0.00     0.072 A 
HETATM   25  C   UNL     1     -38.133  38.650 -50.493  1.00  0.00     0.078 C 
HETATM   26  S   UNL     1     -37.636  40.566 -52.453  1.00  0.00    -0.076 SA
ENDBRANCH  19  20
ENDBRANCH  16  19
ENDBRANCH  13  16
ENDBRANCH   9  10
ENDBRANCH   1   9
TORSDOF 5
ENDMDL
MODEL 9
REMARK VINA RESULT:      -6.8      5.266      6.075
REMARK  5 active torsions:
REMARK  status: ('A' for Active; 'I' for Inactive)
REMARK    1  A    between atoms: C_7  and  C_8 
REMARK    2  A    between atoms: C_8  and  N_9 
REMARK    3  A    between atoms: N_9  and  C_12 
REMARK    4  A    between atoms: C_15  and  O_16 
REMARK    5  A    between atoms: O_16  and  C_17 
ROOT
HETATM    1  C   UNL     1     -40.686  54.502 -53.030  1.00  0.00     0.164 A 
HETATM    2  N   UNL     1     -40.423  53.677 -51.996  1.00  0.00    -0.236 NA
HETATM    3  C   UNL     1     -40.103  52.395 -52.310  1.00  0.00     0.142 A 
HETATM    4  C   UNL     1     -40.044  51.905 -53.607  1.00  0.00     0.062 A 
HETATM    5  C   UNL     1     -39.695  50.542 -53.853  1.00  0.00     0.101 C 
HETATM    6  N   UNL     1     -39.412  49.435 -54.048  1.00  0.00    -0.191 NA
HETATM    7  C   UNL     1     -40.336  52.782 -54.651  1.00  0.00     0.028 A 
HETATM    8  C   UNL     1     -40.670  54.104 -54.358  1.00  0.00     0.059 A 
ENDROOT
BRANCH   1   9
HETATM    9  O   UNL     1     -41.036  55.813 -52.785  1.00  0.00    -0.329 OA
BRANCH   9  10
HETATM   10  C   UNL     1     -41.645  56.040 -51.507  1.00  0.00     0.130 C 
HETATM   11  C   UNL     1     -41.138  57.405 -51.019  1.00  0.00     0.034 C 
HETATM   12  C   UNL     1     -41.600  58.548 -51.928  1.00  0.00     0.035 C 
HETATM   13  C   UNL     1     -43.119  58.583 -52.124  1.00  0.00     0.186 C 
HETATM   14  C   UNL     1     -43.656  57.211 -52.547  1.00  0.00     0.035 C 
HETATM   15  C   UNL     1     -43.174  56.068 -51.648  1.00  0.00     0.034 C 
BRANCH  13  16
HETATM   16  N   UNL     1     -43.814  58.998 -50.854  1.00  0.00    -0.067 N 
HETATM   17  H   UNL     1     -43.435  58.505 -50.036  1.00  0.00     0.278 HD
HETATM   18  H   UNL     1     -44.800  58.703 -50.906  1.00  0.00     0.278 HD
BRANCH  16  19
HETATM   19  C   UNL     1     -43.835  60.467 -50.563  1.00  0.00     0.280 C 
BRANCH  19  20
HETATM   20  C   UNL     1     -44.307  61.231 -51.744  1.00  0.00     0.034 A 
HETATM   21  C   UNL     1     -45.568  61.286 -52.314  1.00  0.00     0.046 A 
HETATM   22  C   UNL     1     -46.799  60.578 -51.868  1.00  0.00     0.071 C 
HETATM   23  N   UNL     1     -45.657  62.100 -53.425  1.00  0.00    -0.250 NA
HETATM   24  C   UNL     1     -44.505  62.682 -53.677  1.00  0.00     0.072 A 
HETATM   25  C   UNL     1     -44.274  63.658 -54.777  1.00  0.00     0.078 C 
HETATM   26  S   UNL     1     -43.226  62.234 -52.624  1.00  0.00    -0.076 SA
ENDBRANCH  19  20
ENDBRANCH  16  19
ENDBRANCH  13  16
ENDBRANCH   9  10
ENDBRANCH   1   9
TORSDOF 5
ENDMDL
MODEL 10
REMARK VINA RESULT:      -6.8      4.855      6.089
REMARK  5 active torsions:
REMARK  status: ('A' for Active; 'I' for Inactive)
REMARK    1  A    between atoms: C_7  and  C_8 
REMARK    2  A    between atoms: C_8  and  N_9 
REMARK    3  A    between atoms: N_9  and  C_12 
REMARK    4  A    between atoms: C_15  and  O_16 
REMARK    5  A    between atoms: O_16  and  C_17 
ROOT
HETATM    1  C   UNL     1     -40.168  53.500 -51.935  1.00  0.00     0.164 A 
HETATM    2  N   UNL     1     -39.817  52.325 -51.372  1.00  0.00    -0.236 NA
HETATM    3  C   UNL     1     -39.686  51.266 -52.211  1.00  0.00     0.142 A 
HETATM    4  C   UNL     1     -39.897  51.330 -53.581  1.00  0.00     0.062 A 
HETATM    5  C   UNL     1     -39.734  50.168 -54.396  1.00  0.00     0.101 C 
HETATM    6  N   UNL     1     -39.600  49.223 -55.054  1.00  0.00    -0.191 NA
HETATM    7  C   UNL     1     -40.272  52.556 -54.128  1.00  0.00     0.028 A 
HETATM    8  C   UNL     1     -40.418  53.661 -53.289  1.00  0.00     0.059 A 
ENDROOT
BRANCH   1   9
HETATM    9  O   UNL     1     -40.337  54.614 -51.141  1.00  0.00    -0.329 OA
BRANCH   9  10
HETATM   10  C   UNL     1     -41.570  54.644 -50.409  1.00  0.00     0.130 C 
HETATM   11  C   UNL     1     -41.509  55.883 -49.504  1.00  0.00     0.034 C 
HETATM   12  C   UNL     1     -41.454  57.183 -50.312  1.00  0.00     0.035 C 
HETATM   13  C   UNL     1     -42.602  57.314 -51.318  1.00  0.00     0.186 C 
HETATM   14  C   UNL     1     -42.724  56.059 -52.189  1.00  0.00     0.035 C 
HETATM   15  C   UNL     1     -42.757  54.759 -51.377  1.00  0.00     0.034 C 
BRANCH  13  16
HETATM   16  N   UNL     1     -43.913  57.534 -50.610  1.00  0.00    -0.067 N 
HETATM   17  H   UNL     1     -43.859  58.318 -49.948  1.00  0.00     0.278 HD
HETATM   18  H   UNL     1     -44.115  56.710 -50.026  1.00  0.00     0.278 HD
BRANCH  16  19
HETATM   19  C   UNL     1     -45.112  57.726 -51.486  1.00  0.00     0.280 C 
BRANCH  19  20
HETATM   20  C   UNL     1     -45.280  59.157 -51.842  1.00  0.00     0.034 A 
HETATM   21  C   UNL     1     -45.306  59.760 -53.089  1.00  0.00     0.046 A 
HETATM   22  C   UNL     1     -45.174  59.105 -54.418  1.00  0.00     0.071 C 
HETATM   23  N   UNL     1     -45.472  61.130 -53.057  1.00  0.00    -0.250 NA
HETATM   24  C   UNL     1     -45.608  61.560 -51.822  1.00  0.00     0.072 A 
HETATM   25  C   UNL     1     -45.852  62.978 -51.442  1.00  0.00     0.078 C 
HETATM   26  S   UNL     1     -45.481  60.344 -50.617  1.00  0.00    -0.076 SA
ENDBRANCH  19  20
ENDBRANCH  16  19
ENDBRANCH  13  16
ENDBRANCH   9  10
ENDBRANCH   1   9
TORSDOF 5
ENDMDL
