MODEL 1
REMARK VINA RESULT:      -9.8      0.000      0.000
REMARK  6 active torsions:
REMARK  status: ('A' for Active; 'I' for Inactive)
REMARK    1  A    between atoms: C_2  and  N_3 
REMARK    2  A    between atoms: C_2  and  C_32 
REMARK       I    between atoms: N_3  and  C_4 
REMARK    3  A    between atoms: C_4  and  C_5 
REMARK    4  A    between atoms: C_6  and  N_7 
REMARK       I    between atoms: N_7  and  C_8 
REMARK    5  A    between atoms: C_8  and  C_9 
REMARK    6  A    between atoms: C_9  and  N_10 
ROOT
HETATM    1  N   UNL     1     -44.212  58.754 -53.479  1.00  0.00    -0.325 N 
HETATM    2  C   UNL     1     -44.628  57.439 -53.440  1.00  0.00     0.240 C 
HETATM    3  O   UNL     1     -45.228  56.869 -54.352  1.00  0.00    -0.271 OA
HETATM    4  H   UNL     1     -43.460  59.038 -52.848  1.00  0.00     0.169 HD
ENDROOT
BRANCH   1   5
HETATM    5  C   UNL     1     -44.703  59.769 -54.340  1.00  0.00     0.050 A 
HETATM    6  C   UNL     1     -44.263  59.838 -55.677  1.00  0.00     0.058 A 
HETATM    7  C   UNL     1     -44.674  60.899 -56.505  1.00  0.00     0.019 A 
HETATM    8  C   UNL     1     -45.549  61.871 -56.024  1.00  0.00     0.001 A 
HETATM    9  C   UNL     1     -46.009  61.794 -54.715  1.00  0.00     0.002 A 
HETATM   10  C   UNL     1     -45.585  60.757 -53.880  1.00  0.00     0.030 A 
BRANCH   6  11
HETATM   11  C   UNL     1     -43.374  58.781 -56.241  1.00  0.00     0.254 C 
HETATM   12  N   UNL     1     -44.009  57.811 -56.983  1.00  0.00    -0.349 N 
HETATM   13  H   UNL     1     -45.014  57.833 -57.083  1.00  0.00     0.163 HD
HETATM   14  O   UNL     1     -42.171  58.795 -56.001  1.00  0.00    -0.268 OA
BRANCH  12  15
HETATM   15  C   UNL     1     -43.303  56.801 -57.753  1.00  0.00     0.114 C 
HETATM   16  C   UNL     1     -42.895  55.638 -56.846  1.00  0.00     0.037 C 
BRANCH  15  17
HETATM   17  C   UNL     1     -44.183  56.399 -58.926  1.00  0.00    -0.036 A 
HETATM   18  C   UNL     1     -45.362  57.124 -59.170  1.00  0.00     0.009 A 
HETATM   19  C   UNL     1     -46.228  56.761 -60.202  1.00  0.00     0.001 A 
HETATM   20  C   UNL     1     -45.935  55.658 -61.001  1.00  0.00     0.000 A 
HETATM   21  C   UNL     1     -44.778  54.919 -60.766  1.00  0.00     0.001 A 
HETATM   22  C   UNL     1     -43.910  55.282 -59.732  1.00  0.00     0.009 A 
ENDBRANCH  15  17
ENDBRANCH  12  15
ENDBRANCH   6  11
ENDBRANCH   1   5
BRANCH   2  23
HETATM   23  C   UNL     1     -44.134  56.633 -52.239  1.00  0.00     0.240 C 
BRANCH  23  24
HETATM   24  N   UNL     1     -42.764  56.176 -52.338  1.00  0.00    -0.259 N 
HETATM   25  C   UNL     1     -41.700  57.017 -52.239  1.00  0.00     0.326 C 
HETATM   26  O   UNL     1     -41.699  58.173 -51.854  1.00  0.00    -0.247 OA
HETATM   27  N   UNL     1     -40.590  56.380 -52.738  1.00  0.00    -0.324 N 
HETATM   28  C   UNL     1     -40.861  55.010 -53.143  1.00  0.00     0.120 C 
HETATM   29  H   UNL     1     -39.684  56.830 -52.728  1.00  0.00     0.165 HD
HETATM   30  C   UNL     1     -40.287  54.044 -52.099  1.00  0.00     0.080 C 
HETATM   31  C   UNL     1     -40.355  54.727 -54.553  1.00  0.00     0.046 C 
HETATM   32  C   UNL     1     -42.400  55.071 -53.062  1.00  0.00     0.257 C 
HETATM   33  C   UNL     1     -40.125  52.622 -52.572  1.00  0.00    -0.049 A 
HETATM   34  C   UNL     1     -40.244  52.269 -53.926  1.00  0.00    -0.052 A 
HETATM   35  C   UNL     1     -39.800  51.636 -51.627  1.00  0.00     0.007 A 
HETATM   36  C   UNL     1     -40.607  53.282 -54.982  1.00  0.00     0.042 C 
HETATM   37  C   UNL     1     -40.081  50.926 -54.301  1.00  0.00     0.007 A 
HETATM   38  C   UNL     1     -39.769  49.954 -53.351  1.00  0.00     0.001 A 
HETATM   39  C   UNL     1     -39.623  50.309 -52.014  1.00  0.00     0.001 A 
HETATM   40  O   UNL     1     -43.178  54.261 -53.547  1.00  0.00    -0.270 OA
ENDBRANCH  23  24
ENDBRANCH   2  23
TORSDOF 6
ENDMDL
MODEL 2
REMARK VINA RESULT:      -9.6      2.197      6.108
REMARK  6 active torsions:
REMARK  status: ('A' for Active; 'I' for Inactive)
REMARK    1  A    between atoms: C_2  and  N_3 
REMARK    2  A    between atoms: C_2  and  C_32 
REMARK       I    between atoms: N_3  and  C_4 
REMARK    3  A    between atoms: C_4  and  C_5 
REMARK    4  A    between atoms: C_6  and  N_7 
REMARK       I    between atoms: N_7  and  C_8 
REMARK    5  A    between atoms: C_8  and  C_9 
REMARK    6  A    between atoms: C_9  and  N_10 
ROOT
HETATM    1  N   UNL     1     -42.169  58.723 -56.653  1.00  0.00    -0.325 N 
HETATM    2  C   UNL     1     -42.843  59.914 -56.474  1.00  0.00     0.240 C 
HETATM    3  O   UNL     1     -43.951  60.167 -56.949  1.00  0.00    -0.271 OA
HETATM    4  H   UNL     1     -41.441  58.477 -55.980  1.00  0.00     0.169 HD
ENDROOT
BRANCH   1   5
HETATM    5  C   UNL     1     -42.404  57.765 -57.673  1.00  0.00     0.050 A 
HETATM    6  C   UNL     1     -42.834  56.465 -57.339  1.00  0.00     0.058 A 
HETATM    7  C   UNL     1     -42.975  55.486 -58.341  1.00  0.00     0.019 A 
HETATM    8  C   UNL     1     -42.729  55.801 -59.676  1.00  0.00     0.001 A 
HETATM    9  C   UNL     1     -42.333  57.089 -60.015  1.00  0.00     0.002 A 
HETATM   10  C   UNL     1     -42.166  58.060 -59.023  1.00  0.00     0.030 A 
BRANCH   6  11
HETATM   11  C   UNL     1     -43.163  56.111 -55.928  1.00  0.00     0.254 C 
HETATM   12  N   UNL     1     -42.467  55.041 -55.412  1.00  0.00    -0.349 N 
HETATM   13  H   UNL     1     -41.815  54.537 -55.996  1.00  0.00     0.163 HD
HETATM   14  O   UNL     1     -44.028  56.735 -55.322  1.00  0.00    -0.268 OA
BRANCH  12  15
HETATM   15  C   UNL     1     -42.519  54.653 -54.012  1.00  0.00     0.114 C 
HETATM   16  C   UNL     1     -43.939  54.220 -53.640  1.00  0.00     0.037 C 
BRANCH  15  17
HETATM   17  C   UNL     1     -41.460  53.588 -53.778  1.00  0.00    -0.036 A 
HETATM   18  C   UNL     1     -41.380  52.502 -54.667  1.00  0.00     0.009 A 
HETATM   19  C   UNL     1     -40.458  51.474 -54.464  1.00  0.00     0.001 A 
HETATM   20  C   UNL     1     -39.610  51.508 -53.360  1.00  0.00     0.000 A 
HETATM   21  C   UNL     1     -39.685  52.568 -52.459  1.00  0.00     0.001 A 
HETATM   22  C   UNL     1     -40.607  53.599 -52.662  1.00  0.00     0.009 A 
ENDBRANCH  15  17
ENDBRANCH  12  15
ENDBRANCH   6  11
ENDBRANCH   1   5
BRANCH   2  23
HETATM   23  C   UNL     1     -42.209  60.878 -55.473  1.00  0.00     0.240 C 
BRANCH  23  24
HETATM   24  N   UNL     1     -42.519  60.603 -54.086  1.00  0.00    -0.259 N 
HETATM   25  C   UNL     1     -43.037  61.541 -53.250  1.00  0.00     0.326 C 
HETATM   26  O   UNL     1     -43.509  62.624 -53.548  1.00  0.00    -0.247 OA
HETATM   27  N   UNL     1     -42.870  61.114 -51.954  1.00  0.00    -0.324 N 
HETATM   28  C   UNL     1     -42.271  59.792 -51.870  1.00  0.00     0.120 C 
HETATM   29  H   UNL     1     -43.216  61.662 -51.178  1.00  0.00     0.165 HD
HETATM   30  C   UNL     1     -43.349  58.764 -51.504  1.00  0.00     0.080 C 
HETATM   31  C   UNL     1     -41.082  59.769 -50.916  1.00  0.00     0.046 C 
HETATM   32  C   UNL     1     -41.852  59.659 -53.349  1.00  0.00     0.257 C 
HETATM   33  C   UNL     1     -42.822  57.451 -50.984  1.00  0.00    -0.049 A 
HETATM   34  C   UNL     1     -41.476  57.278 -50.622  1.00  0.00    -0.052 A 
HETATM   35  C   UNL     1     -43.724  56.387 -50.817  1.00  0.00     0.007 A 
HETATM   36  C   UNL     1     -40.461  58.378 -50.795  1.00  0.00     0.042 C 
HETATM   37  C   UNL     1     -41.050  56.030 -50.144  1.00  0.00     0.007 A 
HETATM   38  C   UNL     1     -41.953  54.977 -49.994  1.00  0.00     0.001 A 
HETATM   39  C   UNL     1     -43.292  55.158 -50.325  1.00  0.00     0.001 A 
HETATM   40  O   UNL     1     -41.066  58.840 -53.803  1.00  0.00    -0.270 OA
ENDBRANCH  23  24
ENDBRANCH   2  23
TORSDOF 6
ENDMDL
MODEL 3
REMARK VINA RESULT:      -9.6      1.846      2.160
REMARK  6 active torsions:
REMARK  status: ('A' for Active; 'I' for Inactive)
REMARK    1  A    between atoms: C_2  and  N_3 
REMARK    2  A    between atoms: C_2  and  C_32 
REMARK       I    between atoms: N_3  and  C_4 
REMARK    3  A    between atoms: C_4  and  C_5 
REMARK    4  A    between atoms: C_6  and  N_7 
REMARK       I    between atoms: N_7  and  C_8 
REMARK    5  A    between atoms: C_8  and  C_9 
REMARK    6  A    between atoms: C_9  and  N_10 
ROOT
HETATM    1  N   UNL     1     -44.718  57.959 -52.589  1.00  0.00    -0.325 N 
HETATM    2  C   UNL     1     -44.894  57.635 -51.259  1.00  0.00     0.240 C 
HETATM    3  O   UNL     1     -45.528  58.317 -50.453  1.00  0.00    -0.271 OA
HETATM    4  H   UNL     1     -44.476  57.208 -53.238  1.00  0.00     0.169 HD
ENDROOT
BRANCH   1   5
HETATM    5  C   UNL     1     -44.870  59.243 -53.172  1.00  0.00     0.050 A 
HETATM    6  C   UNL     1     -44.019  59.653 -54.218  1.00  0.00     0.058 A 
HETATM    7  C   UNL     1     -44.105  60.960 -54.732  1.00  0.00     0.019 A 
HETATM    8  C   UNL     1     -45.058  61.850 -54.240  1.00  0.00     0.001 A 
HETATM    9  C   UNL     1     -45.920  61.444 -53.229  1.00  0.00     0.002 A 
HETATM   10  C   UNL     1     -45.823  60.156 -52.696  1.00  0.00     0.030 A 
BRANCH   6  11
HETATM   11  C   UNL     1     -43.029  58.705 -54.808  1.00  0.00     0.254 C 
HETATM   12  N   UNL     1     -43.354  58.212 -56.051  1.00  0.00    -0.349 N 
HETATM   13  H   UNL     1     -44.230  58.472 -56.481  1.00  0.00     0.163 HD
HETATM   14  O   UNL     1     -42.027  58.388 -54.175  1.00  0.00    -0.268 OA
BRANCH  12  15
HETATM   15  C   UNL     1     -42.445  57.417 -56.861  1.00  0.00     0.114 C 
HETATM   16  C   UNL     1     -42.984  55.993 -57.011  1.00  0.00     0.037 C 
BRANCH  15  17
HETATM   17  C   UNL     1     -42.226  58.144 -58.177  1.00  0.00    -0.036 A 
HETATM   18  C   UNL     1     -42.165  59.549 -58.176  1.00  0.00     0.009 A 
HETATM   19  C   UNL     1     -42.018  60.262 -59.366  1.00  0.00     0.001 A 
HETATM   20  C   UNL     1     -41.941  59.584 -60.580  1.00  0.00     0.000 A 
HETATM   21  C   UNL     1     -42.015  58.193 -60.603  1.00  0.00     0.001 A 
HETATM   22  C   UNL     1     -42.162  57.477 -59.411  1.00  0.00     0.009 A 
ENDBRANCH  15  17
ENDBRANCH  12  15
ENDBRANCH   6  11
ENDBRANCH   1   5
BRANCH   2  23
HETATM   23  C   UNL     1     -44.400  56.248 -50.854  1.00  0.00     0.240 C 
BRANCH  23  24
HETATM   24  N   UNL     1     -43.042  55.947 -51.256  1.00  0.00    -0.259 N 
HETATM   25  C   UNL     1     -42.047  56.873 -51.236  1.00  0.00     0.326 C 
HETATM   26  O   UNL     1     -42.063  57.970 -50.704  1.00  0.00    -0.247 OA
HETATM   27  N   UNL     1     -41.005  56.416 -52.005  1.00  0.00    -0.324 N 
HETATM   28  C   UNL     1     -41.240  55.083 -52.536  1.00  0.00     0.120 C 
HETATM   29  H   UNL     1     -40.152  56.951 -52.096  1.00  0.00     0.165 HD
HETATM   30  C   UNL     1     -40.406  54.063 -51.751  1.00  0.00     0.080 C 
HETATM   31  C   UNL     1     -40.991  55.021 -54.039  1.00  0.00     0.046 C 
HETATM   32  C   UNL     1     -42.737  54.977 -52.175  1.00  0.00     0.257 C 
HETATM   33  C   UNL     1     -40.227  52.731 -52.433  1.00  0.00    -0.049 A 
HETATM   34  C   UNL     1     -40.572  52.530 -53.779  1.00  0.00    -0.052 A 
HETATM   35  C   UNL     1     -39.653  51.678 -51.703  1.00  0.00     0.007 A 
HETATM   36  C   UNL     1     -41.207  53.618 -54.607  1.00  0.00     0.042 C 
HETATM   37  C   UNL     1     -40.379  51.265 -54.355  1.00  0.00     0.007 A 
HETATM   38  C   UNL     1     -39.819  50.223 -53.615  1.00  0.00     0.001 A 
HETATM   39  C   UNL     1     -39.450  50.431 -52.290  1.00  0.00     0.001 A 
HETATM   40  O   UNL     1     -43.527  54.156 -52.619  1.00  0.00    -0.270 OA
ENDBRANCH  23  24
ENDBRANCH   2  23
TORSDOF 6
ENDMDL
MODEL 4
REMARK VINA RESULT:      -9.5      2.387      3.853
REMARK  6 active torsions:
REMARK  status: ('A' for Active; 'I' for Inactive)
REMARK    1  A    between atoms: C_2  and  N_3 
REMARK    2  A    between atoms: C_2  and  C_32 
REMARK       I    between atoms: N_3  and  C_4 
REMARK    3  A    between atoms: C_4  and  C_5 
REMARK    4  A    between atoms: C_6  and  N_7 
REMARK       I    between atoms: N_7  and  C_8 
REMARK    5  A    between atoms: C_8  and  C_9 
REMARK    6  A    between atoms: C_9  and  N_10 
ROOT
HETATM    1  N   UNL     1     -42.116  60.642 -56.690  1.00  0.00    -0.325 N 
HETATM    2  C   UNL     1     -42.206  59.303 -56.367  1.00  0.00     0.240 C 
HETATM    3  O   UNL     1     -41.770  58.386 -57.064  1.00  0.00    -0.271 OA
HETATM    4  H   UNL     1     -42.198  61.325 -55.935  1.00  0.00     0.169 HD
ENDROOT
BRANCH   1   5
HETATM    5  C   UNL     1     -41.884  61.185 -57.981  1.00  0.00     0.050 A 
HETATM    6  C   UNL     1     -42.858  61.052 -58.991  1.00  0.00     0.058 A 
HETATM    7  C   UNL     1     -42.590  61.505 -60.297  1.00  0.00     0.019 A 
HETATM    8  C   UNL     1     -41.377  62.122 -60.596  1.00  0.00     0.001 A 
HETATM    9  C   UNL     1     -40.424  62.282 -59.597  1.00  0.00     0.002 A 
HETATM   10  C   UNL     1     -40.672  61.812 -58.304  1.00  0.00     0.030 A 
BRANCH   6  11
HETATM   11  C   UNL     1     -44.189  60.450 -58.690  1.00  0.00     0.254 C 
HETATM   12  N   UNL     1     -44.545  59.382 -59.482  1.00  0.00    -0.349 N 
HETATM   13  H   UNL     1     -43.932  59.084 -60.227  1.00  0.00     0.163 HD
HETATM   14  O   UNL     1     -44.899  60.933 -57.814  1.00  0.00    -0.268 OA
BRANCH  12  15
HETATM   15  C   UNL     1     -45.716  58.558 -59.236  1.00  0.00     0.114 C 
HETATM   16  C   UNL     1     -46.865  58.992 -60.148  1.00  0.00     0.037 C 
BRANCH  15  17
HETATM   17  C   UNL     1     -45.311  57.102 -59.392  1.00  0.00    -0.036 A 
HETATM   18  C   UNL     1     -44.147  56.647 -58.748  1.00  0.00     0.009 A 
HETATM   19  C   UNL     1     -43.707  55.333 -58.904  1.00  0.00     0.001 A 
HETATM   20  C   UNL     1     -44.416  54.452 -59.717  1.00  0.00     0.000 A 
HETATM   21  C   UNL     1     -45.563  54.888 -60.376  1.00  0.00     0.001 A 
HETATM   22  C   UNL     1     -46.006  56.205 -60.220  1.00  0.00     0.009 A 
ENDBRANCH  15  17
ENDBRANCH  12  15
ENDBRANCH   6  11
ENDBRANCH   1   5
BRANCH   2  23
HETATM   23  C   UNL     1     -42.733  59.005 -54.965  1.00  0.00     0.240 C 
BRANCH  23  24
HETATM   24  N   UNL     1     -43.105  57.624 -54.738  1.00  0.00    -0.259 N 
HETATM   25  C   UNL     1     -44.364  57.158 -54.949  1.00  0.00     0.326 C 
HETATM   26  O   UNL     1     -45.275  57.716 -55.537  1.00  0.00    -0.247 OA
HETATM   27  N   UNL     1     -44.501  55.953 -54.305  1.00  0.00    -0.324 N 
HETATM   28  C   UNL     1     -43.270  55.512 -53.669  1.00  0.00     0.120 C 
HETATM   29  H   UNL     1     -45.362  55.426 -54.364  1.00  0.00     0.165 HD
HETATM   30  C   UNL     1     -42.636  54.390 -54.500  1.00  0.00     0.080 C 
HETATM   31  C   UNL     1     -43.496  55.117 -52.214  1.00  0.00     0.046 C 
HETATM   32  C   UNL     1     -42.479  56.829 -53.813  1.00  0.00     0.257 C 
HETATM   33  C   UNL     1     -41.605  53.566 -53.772  1.00  0.00    -0.049 A 
HETATM   34  C   UNL     1     -41.429  53.652 -52.381  1.00  0.00    -0.052 A 
HETATM   35  C   UNL     1     -40.834  52.655 -54.511  1.00  0.00     0.007 A 
HETATM   36  C   UNL     1     -42.216  54.624 -51.540  1.00  0.00     0.042 C 
HETATM   37  C   UNL     1     -40.450  52.857 -51.764  1.00  0.00     0.007 A 
HETATM   38  C   UNL     1     -39.683  51.963 -52.511  1.00  0.00     0.001 A 
HETATM   39  C   UNL     1     -39.878  51.858 -53.884  1.00  0.00     0.001 A 
HETATM   40  O   UNL     1     -41.451  57.119 -53.217  1.00  0.00    -0.270 OA
ENDBRANCH  23  24
ENDBRANCH   2  23
TORSDOF 6
ENDMDL
MODEL 5
REMARK VINA RESULT:      -9.3      2.730      5.923
REMARK  6 active torsions:
REMARK  status: ('A' for Active; 'I' for Inactive)
REMARK    1  A    between atoms: C_2  and  N_3 
REMARK    2  A    between atoms: C_2  and  C_32 
REMARK       I    between atoms: N_3  and  C_4 
REMARK    3  A    between atoms: C_4  and  C_5 
REMARK    4  A    between atoms: C_6  and  N_7 
REMARK       I    between atoms: N_7  and  C_8 
REMARK    5  A    between atoms: C_8  and  C_9 
REMARK    6  A    between atoms: C_9  and  N_10 
ROOT
HETATM    1  N   UNL     1     -45.478  61.050 -52.212  1.00  0.00    -0.325 N 
HETATM    2  C   UNL     1     -45.493  59.730 -52.613  1.00  0.00     0.240 C 
HETATM    3  O   UNL     1     -45.724  58.777 -51.868  1.00  0.00    -0.271 OA
HETATM    4  H   UNL     1     -45.606  61.771 -52.925  1.00  0.00     0.169 HD
ENDROOT
BRANCH   1   5
HETATM    5  C   UNL     1     -45.335  61.527 -50.883  1.00  0.00     0.050 A 
HETATM    6  C   UNL     1     -44.133  61.314 -50.179  1.00  0.00     0.058 A 
HETATM    7  C   UNL     1     -44.023  61.700 -48.830  1.00  0.00     0.019 A 
HETATM    8  C   UNL     1     -45.086  62.332 -48.188  1.00  0.00     0.001 A 
HETATM    9  C   UNL     1     -46.264  62.571 -48.884  1.00  0.00     0.002 A 
HETATM   10  C   UNL     1     -46.390  62.167 -50.217  1.00  0.00     0.030 A 
BRANCH   6  11
HETATM   11  C   UNL     1     -42.956  60.695 -50.854  1.00  0.00     0.254 C 
HETATM   12  N   UNL     1     -42.489  59.534 -50.279  1.00  0.00    -0.349 N 
HETATM   13  H   UNL     1     -42.923  59.182 -49.437  1.00  0.00     0.163 HD
HETATM   14  O   UNL     1     -42.448  61.239 -51.829  1.00  0.00    -0.268 OA
BRANCH  12  15
HETATM   15  C   UNL     1     -41.468  58.695 -50.883  1.00  0.00     0.114 C 
HETATM   16  C   UNL     1     -40.092  59.053 -50.318  1.00  0.00     0.037 C 
BRANCH  15  17
HETATM   17  C   UNL     1     -41.869  57.243 -50.679  1.00  0.00    -0.036 A 
HETATM   18  C   UNL     1     -43.096  56.797 -51.199  1.00  0.00     0.009 A 
HETATM   19  C   UNL     1     -43.530  55.487 -50.993  1.00  0.00     0.001 A 
HETATM   20  C   UNL     1     -42.749  54.603 -50.252  1.00  0.00     0.000 A 
HETATM   21  C   UNL     1     -41.537  55.031 -49.715  1.00  0.00     0.001 A 
HETATM   22  C   UNL     1     -41.101  56.343 -49.922  1.00  0.00     0.009 A 
ENDBRANCH  15  17
ENDBRANCH  12  15
ENDBRANCH   6  11
ENDBRANCH   1   5
BRANCH   2  23
HETATM   23  C   UNL     1     -45.383  59.505 -54.119  1.00  0.00     0.240 C 
BRANCH  23  24
HETATM   24  N   UNL     1     -44.123  58.942 -54.558  1.00  0.00    -0.259 N 
HETATM   25  C   UNL     1     -43.210  59.652 -55.272  1.00  0.00     0.326 C 
HETATM   26  O   UNL     1     -43.186  60.856 -55.459  1.00  0.00    -0.247 OA
HETATM   27  N   UNL     1     -42.326  58.774 -55.851  1.00  0.00    -0.324 N 
HETATM   28  C   UNL     1     -42.579  57.392 -55.479  1.00  0.00     0.120 C 
HETATM   29  H   UNL     1     -41.548  59.109 -56.404  1.00  0.00     0.165 HD
HETATM   30  C   UNL     1     -41.533  56.937 -54.453  1.00  0.00     0.080 C 
HETATM   31  C   UNL     1     -42.649  56.481 -56.699  1.00  0.00     0.046 C 
HETATM   32  C   UNL     1     -43.955  57.606 -54.814  1.00  0.00     0.257 C 
HETATM   33  C   UNL     1     -41.414  55.444 -54.290  1.00  0.00    -0.049 A 
HETATM   34  C   UNL     1     -42.021  54.545 -55.182  1.00  0.00    -0.052 A 
HETATM   35  C   UNL     1     -40.631  54.947 -53.236  1.00  0.00     0.007 A 
HETATM   36  C   UNL     1     -42.886  55.020 -56.321  1.00  0.00     0.042 C 
HETATM   37  C   UNL     1     -41.871  53.165 -54.973  1.00  0.00     0.007 A 
HETATM   38  C   UNL     1     -41.099  52.684 -53.915  1.00  0.00     0.001 A 
HETATM   39  C   UNL     1     -40.474  53.575 -53.049  1.00  0.00     0.001 A 
HETATM   40  O   UNL     1     -44.766  56.731 -54.542  1.00  0.00    -0.270 OA
ENDBRANCH  23  24
ENDBRANCH   2  23
TORSDOF 6
ENDMDL
MODEL 6
REMARK VINA RESULT:      -9.2      1.505      2.569
REMARK  6 active torsions:
REMARK  status: ('A' for Active; 'I' for Inactive)
REMARK    1  A    between atoms: C_2  and  N_3 
REMARK    2  A    between atoms: C_2  and  C_32 
REMARK       I    between atoms: N_3  and  C_4 
REMARK    3  A    between atoms: C_4  and  C_5 
REMARK    4  A    between atoms: C_6  and  N_7 
REMARK       I    between atoms: N_7  and  C_8 
REMARK    5  A    between atoms: C_8  and  C_9 
REMARK    6  A    between atoms: C_9  and  N_10 
ROOT
HETATM    1  N   UNL     1     -44.221  59.524 -53.277  1.00  0.00    -0.325 N 
HETATM    2  C   UNL     1     -43.803  59.973 -52.041  1.00  0.00     0.240 C 
HETATM    3  O   UNL     1     -44.250  60.971 -51.473  1.00  0.00    -0.271 OA
HETATM    4  H   UNL     1     -44.049  58.546 -53.517  1.00  0.00     0.169 HD
ENDROOT
BRANCH   1   5
HETATM    5  C   UNL     1     -44.908  60.280 -54.261  1.00  0.00     0.050 A 
HETATM    6  C   UNL     1     -44.575  60.140 -55.624  1.00  0.00     0.058 A 
HETATM    7  C   UNL     1     -45.188  60.958 -56.591  1.00  0.00     0.019 A 
HETATM    8  C   UNL     1     -46.157  61.887 -56.219  1.00  0.00     0.001 A 
HETATM    9  C   UNL     1     -46.512  62.010 -54.881  1.00  0.00     0.002 A 
HETATM   10  C   UNL     1     -45.889  61.219 -53.911  1.00  0.00     0.030 A 
BRANCH   6  11
HETATM   11  C   UNL     1     -43.585  59.114 -56.063  1.00  0.00     0.254 C 
HETATM   12  N   UNL     1     -44.123  57.985 -56.638  1.00  0.00    -0.349 N 
HETATM   13  H   UNL     1     -45.126  57.885 -56.705  1.00  0.00     0.163 HD
HETATM   14  O   UNL     1     -42.386  59.292 -55.870  1.00  0.00    -0.268 OA
BRANCH  12  15
HETATM   15  C   UNL     1     -43.324  56.956 -57.282  1.00  0.00     0.114 C 
HETATM   16  C   UNL     1     -42.969  55.860 -56.275  1.00  0.00     0.037 C 
BRANCH  15  17
HETATM   17  C   UNL     1     -44.083  56.461 -58.502  1.00  0.00    -0.036 A 
HETATM   18  C   UNL     1     -43.740  55.216 -59.057  1.00  0.00     0.009 A 
HETATM   19  C   UNL     1     -44.374  54.744 -60.207  1.00  0.00     0.001 A 
HETATM   20  C   UNL     1     -45.354  55.514 -60.829  1.00  0.00     0.000 A 
HETATM   21  C   UNL     1     -45.697  56.757 -60.302  1.00  0.00     0.001 A 
HETATM   22  C   UNL     1     -45.063  57.231 -59.150  1.00  0.00     0.009 A 
ENDBRANCH  15  17
ENDBRANCH  12  15
ENDBRANCH   6  11
ENDBRANCH   1   5
BRANCH   2  23
HETATM   23  C   UNL     1     -42.850  59.041 -51.297  1.00  0.00     0.240 C 
BRANCH  23  24
HETATM   24  N   UNL     1     -43.183  57.635 -51.386  1.00  0.00    -0.259 N 
HETATM   25  C   UNL     1     -44.404  57.146 -51.038  1.00  0.00     0.326 C 
HETATM   26  O   UNL     1     -45.424  57.777 -50.826  1.00  0.00    -0.247 OA
HETATM   27  N   UNL     1     -44.300  55.787 -50.869  1.00  0.00    -0.324 N 
HETATM   28  C   UNL     1     -42.972  55.281 -51.174  1.00  0.00     0.120 C 
HETATM   29  H   UNL     1     -45.111  55.229 -50.635  1.00  0.00     0.165 HD
HETATM   30  C   UNL     1     -42.993  54.572 -52.534  1.00  0.00     0.080 C 
HETATM   31  C   UNL     1     -42.432  54.398 -50.054  1.00  0.00     0.046 C 
HETATM   32  C   UNL     1     -42.248  56.640 -51.264  1.00  0.00     0.257 C 
HETATM   33  C   UNL     1     -41.823  53.656 -52.790  1.00  0.00    -0.049 A 
HETATM   34  C   UNL     1     -40.929  53.286 -51.772  1.00  0.00    -0.052 A 
HETATM   35  C   UNL     1     -41.658  53.127 -54.080  1.00  0.00     0.007 A 
HETATM   36  C   UNL     1     -41.047  53.836 -50.374  1.00  0.00     0.042 C 
HETATM   37  C   UNL     1     -39.860  52.430 -52.077  1.00  0.00     0.007 A 
HETATM   38  C   UNL     1     -39.700  51.920 -53.365  1.00  0.00     0.001 A 
HETATM   39  C   UNL     1     -40.603  52.264 -54.366  1.00  0.00     0.001 A 
HETATM   40  O   UNL     1     -41.037  56.812 -51.248  1.00  0.00    -0.270 OA
ENDBRANCH  23  24
ENDBRANCH   2  23
TORSDOF 6
ENDMDL
MODEL 7
REMARK VINA RESULT:      -9.2      2.291      3.729
REMARK  6 active torsions:
REMARK  status: ('A' for Active; 'I' for Inactive)
REMARK    1  A    between atoms: C_2  and  N_3 
REMARK    2  A    between atoms: C_2  and  C_32 
REMARK       I    between atoms: N_3  and  C_4 
REMARK    3  A    between atoms: C_4  and  C_5 
REMARK    4  A    between atoms: C_6  and  N_7 
REMARK       I    between atoms: N_7  and  C_8 
REMARK    5  A    between atoms: C_8  and  C_9 
REMARK    6  A    between atoms: C_9  and  N_10 
ROOT
HETATM    1  N   UNL     1     -42.107  59.497 -56.441  1.00  0.00    -0.325 N 
HETATM    2  C   UNL     1     -42.779  60.069 -55.380  1.00  0.00     0.240 C 
HETATM    3  O   UNL     1     -43.681  60.901 -55.491  1.00  0.00    -0.271 OA
HETATM    4  H   UNL     1     -41.629  58.608 -56.283  1.00  0.00     0.169 HD
ENDROOT
BRANCH   1   5
HETATM    5  C   UNL     1     -42.034  60.002 -57.764  1.00  0.00     0.050 A 
HETATM    6  C   UNL     1     -42.789  59.404 -58.794  1.00  0.00     0.058 A 
HETATM    7  C   UNL     1     -42.645  59.842 -60.124  1.00  0.00     0.019 A 
HETATM    8  C   UNL     1     -41.785  60.894 -60.432  1.00  0.00     0.001 A 
HETATM    9  C   UNL     1     -41.059  61.506 -59.417  1.00  0.00     0.002 A 
HETATM   10  C   UNL     1     -41.178  61.061 -58.098  1.00  0.00     0.030 A 
BRANCH   6  11
HETATM   11  C   UNL     1     -43.763  58.316 -58.490  1.00  0.00     0.254 C 
HETATM   12  N   UNL     1     -45.084  58.625 -58.726  1.00  0.00    -0.349 N 
HETATM   13  H   UNL     1     -45.333  59.549 -59.048  1.00  0.00     0.163 HD
HETATM   14  O   UNL     1     -43.371  57.250 -58.027  1.00  0.00    -0.268 OA
BRANCH  12  15
HETATM   15  C   UNL     1     -46.159  57.649 -58.657  1.00  0.00     0.114 C 
HETATM   16  C   UNL     1     -47.026  57.911 -57.424  1.00  0.00     0.037 C 
BRANCH  15  17
HETATM   17  C   UNL     1     -46.917  57.687 -59.973  1.00  0.00    -0.036 A 
HETATM   18  C   UNL     1     -47.337  58.930 -60.480  1.00  0.00     0.009 A 
HETATM   19  C   UNL     1     -48.081  59.011 -61.658  1.00  0.00     0.001 A 
HETATM   20  C   UNL     1     -48.428  57.849 -62.344  1.00  0.00     0.000 A 
HETATM   21  C   UNL     1     -48.033  56.608 -61.850  1.00  0.00     0.001 A 
HETATM   22  C   UNL     1     -47.288  56.526 -60.670  1.00  0.00     0.009 A 
ENDBRANCH  15  17
ENDBRANCH  12  15
ENDBRANCH   6  11
ENDBRANCH   1   5
BRANCH   2  23
HETATM   23  C   UNL     1     -42.468  59.469 -54.010  1.00  0.00     0.240 C 
BRANCH  23  24
HETATM   24  N   UNL     1     -42.946  58.115 -53.818  1.00  0.00    -0.259 N 
HETATM   25  C   UNL     1     -44.268  57.804 -53.769  1.00  0.00     0.326 C 
HETATM   26  O   UNL     1     -45.211  58.510 -54.082  1.00  0.00    -0.247 OA
HETATM   27  N   UNL     1     -44.404  56.555 -53.213  1.00  0.00    -0.324 N 
HETATM   28  C   UNL     1     -43.126  55.927 -52.918  1.00  0.00     0.120 C 
HETATM   29  H   UNL     1     -45.315  56.126 -53.114  1.00  0.00     0.165 HD
HETATM   30  C   UNL     1     -42.833  54.844 -53.964  1.00  0.00     0.080 C 
HETATM   31  C   UNL     1     -43.071  55.401 -51.488  1.00  0.00     0.046 C 
HETATM   32  C   UNL     1     -42.233  57.166 -53.132  1.00  0.00     0.257 C 
HETATM   33  C   UNL     1     -41.775  53.848 -53.565  1.00  0.00    -0.049 A 
HETATM   34  C   UNL     1     -41.286  53.765 -52.251  1.00  0.00    -0.052 A 
HETATM   35  C   UNL     1     -41.303  52.949 -54.535  1.00  0.00     0.007 A 
HETATM   36  C   UNL     1     -41.744  54.713 -51.173  1.00  0.00     0.042 C 
HETATM   37  C   UNL     1     -40.300  52.814 -51.945  1.00  0.00     0.007 A 
HETATM   38  C   UNL     1     -39.831  51.934 -52.921  1.00  0.00     0.001 A 
HETATM   39  C   UNL     1     -40.337  51.998 -54.215  1.00  0.00     0.001 A 
HETATM   40  O   UNL     1     -41.071  57.287 -52.769  1.00  0.00    -0.270 OA
ENDBRANCH  23  24
ENDBRANCH   2  23
TORSDOF 6
ENDMDL
MODEL 8
REMARK VINA RESULT:      -9.1      1.913      7.467
REMARK  6 active torsions:
REMARK  status: ('A' for Active; 'I' for Inactive)
REMARK    1  A    between atoms: C_2  and  N_3 
REMARK    2  A    between atoms: C_2  and  C_32 
REMARK       I    between atoms: N_3  and  C_4 
REMARK    3  A    between atoms: C_4  and  C_5 
REMARK    4  A    between atoms: C_6  and  N_7 
REMARK       I    between atoms: N_7  and  C_8 
REMARK    5  A    between atoms: C_8  and  C_9 
REMARK    6  A    between atoms: C_9  and  N_10 
ROOT
HETATM    1  N   UNL     1     -42.991  59.472 -53.216  1.00  0.00    -0.325 N 
HETATM    2  C   UNL     1     -42.565  60.026 -54.406  1.00  0.00     0.240 C 
HETATM    3  O   UNL     1     -41.423  59.922 -54.856  1.00  0.00    -0.271 OA
HETATM    4  H   UNL     1     -43.994  59.327 -53.086  1.00  0.00     0.169 HD
ENDROOT
BRANCH   1   5
HETATM    5  C   UNL     1     -42.168  59.043 -52.143  1.00  0.00     0.050 A 
HETATM    6  C   UNL     1     -41.960  57.668 -51.916  1.00  0.00     0.058 A 
HETATM    7  C   UNL     1     -41.223  57.238 -50.796  1.00  0.00     0.019 A 
HETATM    8  C   UNL     1     -40.660  58.166 -49.922  1.00  0.00     0.001 A 
HETATM    9  C   UNL     1     -40.838  59.524 -50.157  1.00  0.00     0.002 A 
HETATM   10  C   UNL     1     -41.589  59.958 -51.252  1.00  0.00     0.030 A 
BRANCH   6  11
HETATM   11  C   UNL     1     -42.497  56.650 -52.864  1.00  0.00     0.254 C 
HETATM   12  N   UNL     1     -41.582  55.729 -53.322  1.00  0.00    -0.349 N 
HETATM   13  H   UNL     1     -40.615  55.799 -53.038  1.00  0.00     0.163 HD
HETATM   14  O   UNL     1     -43.673  56.693 -53.213  1.00  0.00    -0.268 OA
BRANCH  12  15
HETATM   15  C   UNL     1     -41.944  54.564 -54.112  1.00  0.00     0.114 C 
HETATM   16  C   UNL     1     -41.762  54.862 -55.601  1.00  0.00     0.037 C 
BRANCH  15  17
HETATM   17  C   UNL     1     -41.133  53.381 -53.608  1.00  0.00    -0.036 A 
HETATM   18  C   UNL     1     -40.691  53.380 -52.273  1.00  0.00     0.009 A 
HETATM   19  C   UNL     1     -39.900  52.342 -51.780  1.00  0.00     0.001 A 
HETATM   20  C   UNL     1     -39.528  51.292 -52.616  1.00  0.00     0.000 A 
HETATM   21  C   UNL     1     -39.944  51.283 -53.945  1.00  0.00     0.001 A 
HETATM   22  C   UNL     1     -40.736  52.322 -54.441  1.00  0.00     0.009 A 
ENDBRANCH  15  17
ENDBRANCH  12  15
ENDBRANCH   6  11
ENDBRANCH   1   5
BRANCH   2  23
HETATM   23  C   UNL     1     -43.663  60.649 -55.266  1.00  0.00     0.240 C 
BRANCH  23  24
HETATM   24  N   UNL     1     -43.605  60.303 -56.670  1.00  0.00    -0.259 N 
HETATM   25  C   UNL     1     -43.096  61.140 -57.612  1.00  0.00     0.326 C 
HETATM   26  O   UNL     1     -42.442  62.152 -57.433  1.00  0.00    -0.247 OA
HETATM   27  N   UNL     1     -43.512  60.713 -58.850  1.00  0.00    -0.324 N 
HETATM   28  C   UNL     1     -44.290  59.486 -58.790  1.00  0.00     0.120 C 
HETATM   29  H   UNL     1     -43.215  61.189 -59.691  1.00  0.00     0.165 HD
HETATM   30  C   UNL     1     -43.429  58.309 -59.265  1.00  0.00     0.080 C 
HETATM   31  C   UNL     1     -45.601  59.610 -59.559  1.00  0.00     0.046 C 
HETATM   32  C   UNL     1     -44.497  59.446 -57.262  1.00  0.00     0.257 C 
HETATM   33  C   UNL     1     -44.201  57.072 -59.646  1.00  0.00    -0.049 A 
HETATM   34  C   UNL     1     -45.597  57.082 -59.801  1.00  0.00    -0.052 A 
HETATM   35  C   UNL     1     -43.488  55.889 -59.897  1.00  0.00     0.007 A 
HETATM   36  C   UNL     1     -46.416  58.318 -59.529  1.00  0.00     0.042 C 
HETATM   37  C   UNL     1     -46.256  55.896 -60.158  1.00  0.00     0.007 A 
HETATM   38  C   UNL     1     -45.536  54.724 -60.393  1.00  0.00     0.001 A 
HETATM   39  C   UNL     1     -44.151  54.722 -60.268  1.00  0.00     0.001 A 
HETATM   40  O   UNL     1     -45.310  58.755 -56.664  1.00  0.00    -0.270 OA
ENDBRANCH  23  24
ENDBRANCH   2  23
TORSDOF 6
ENDMDL
MODEL 9
REMARK VINA RESULT:      -8.9      2.141      6.962
REMARK  6 active torsions:
REMARK  status: ('A' for Active; 'I' for Inactive)
REMARK    1  A    between atoms: C_2  and  N_3 
REMARK    2  A    between atoms: C_2  and  C_32 
REMARK       I    between atoms: N_3  and  C_4 
REMARK    3  A    between atoms: C_4  and  C_5 
REMARK    4  A    between atoms: C_6  and  N_7 
REMARK       I    between atoms: N_7  and  C_8 
REMARK    5  A    between atoms: C_8  and  C_9 
REMARK    6  A    between atoms: C_9  and  N_10 
ROOT
HETATM    1  N   UNL     1     -41.347  54.447 -51.658  1.00  0.00    -0.325 N 
HETATM    2  C   UNL     1     -42.688  54.629 -51.388  1.00  0.00     0.240 C 
HETATM    3  O   UNL     1     -43.566  53.798 -51.622  1.00  0.00    -0.271 OA
HETATM    4  H   UNL     1     -40.672  55.020 -51.149  1.00  0.00     0.169 HD
ENDROOT
BRANCH   1   5
HETATM    5  C   UNL     1     -40.788  53.506 -52.562  1.00  0.00     0.050 A 
HETATM    6  C   UNL     1     -40.928  53.690 -53.953  1.00  0.00     0.058 A 
HETATM    7  C   UNL     1     -40.459  52.710 -54.848  1.00  0.00     0.019 A 
HETATM    8  C   UNL     1     -39.819  51.567 -54.371  1.00  0.00     0.001 A 
HETATM    9  C   UNL     1     -39.653  51.393 -53.003  1.00  0.00     0.002 A 
HETATM   10  C   UNL     1     -40.138  52.350 -52.107  1.00  0.00     0.030 A 
BRANCH   6  11
HETATM   11  C   UNL     1     -41.554  54.929 -54.497  1.00  0.00     0.254 C 
HETATM   12  N   UNL     1     -42.715  54.737 -55.211  1.00  0.00    -0.349 N 
HETATM   13  H   UNL     1     -43.063  53.801 -55.362  1.00  0.00     0.163 HD
HETATM   14  O   UNL     1     -41.015  56.018 -54.327  1.00  0.00    -0.268 OA
BRANCH  12  15
HETATM   15  C   UNL     1     -43.561  55.826 -55.672  1.00  0.00     0.114 C 
HETATM   16  C   UNL     1     -43.626  56.926 -54.610  1.00  0.00     0.037 C 
BRANCH  15  17
HETATM   17  C   UNL     1     -43.040  56.291 -57.022  1.00  0.00    -0.036 A 
HETATM   18  C   UNL     1     -42.481  57.576 -57.128  1.00  0.00     0.009 A 
HETATM   19  C   UNL     1     -42.037  58.067 -58.357  1.00  0.00     0.001 A 
HETATM   20  C   UNL     1     -42.155  57.284 -59.503  1.00  0.00     0.000 A 
HETATM   21  C   UNL     1     -42.719  56.013 -59.420  1.00  0.00     0.001 A 
HETATM   22  C   UNL     1     -43.164  55.521 -58.190  1.00  0.00     0.009 A 
ENDBRANCH  15  17
ENDBRANCH  12  15
ENDBRANCH   6  11
ENDBRANCH   1   5
BRANCH   2  23
HETATM   23  C   UNL     1     -43.027  55.886 -50.590  1.00  0.00     0.240 C 
BRANCH  23  24
HETATM   24  N   UNL     1     -42.344  57.086 -51.027  1.00  0.00    -0.259 N 
HETATM   25  C   UNL     1     -41.079  57.394 -50.635  1.00  0.00     0.326 C 
HETATM   26  O   UNL     1     -40.275  56.667 -50.078  1.00  0.00    -0.247 OA
HETATM   27  N   UNL     1     -40.853  58.725 -50.889  1.00  0.00    -0.324 N 
HETATM   28  C   UNL     1     -41.975  59.371 -51.549  1.00  0.00     0.120 C 
HETATM   29  H   UNL     1     -39.954  59.146 -50.694  1.00  0.00     0.165 HD
HETATM   30  C   UNL     1     -41.646  59.581 -53.033  1.00  0.00     0.080 C 
HETATM   31  C   UNL     1     -42.381  60.660 -50.843  1.00  0.00     0.046 C 
HETATM   32  C   UNL     1     -43.006  58.238 -51.361  1.00  0.00     0.257 C 
HETATM   33  C   UNL     1     -42.518  60.587 -53.738  1.00  0.00    -0.049 A 
HETATM   34  C   UNL     1     -43.383  61.445 -53.040  1.00  0.00    -0.052 A 
HETATM   35  C   UNL     1     -42.421  60.693 -55.135  1.00  0.00     0.007 A 
HETATM   36  C   UNL     1     -43.542  61.365 -51.543  1.00  0.00     0.042 C 
HETATM   37  C   UNL     1     -44.168  62.360 -53.758  1.00  0.00     0.007 A 
HETATM   38  C   UNL     1     -44.070  62.448 -55.147  1.00  0.00     0.001 A 
HETATM   39  C   UNL     1     -43.192  61.619 -55.836  1.00  0.00     0.001 A 
HETATM   40  O   UNL     1     -44.217  58.337 -51.501  1.00  0.00    -0.270 OA
ENDBRANCH  23  24
ENDBRANCH   2  23
TORSDOF 6
ENDMDL
MODEL 10
REMARK VINA RESULT:      -8.8      2.729      5.887
REMARK  6 active torsions:
REMARK  status: ('A' for Active; 'I' for Inactive)
REMARK    1  A    between atoms: C_2  and  N_3 
REMARK    2  A    between atoms: C_2  and  C_32 
REMARK       I    between atoms: N_3  and  C_4 
REMARK    3  A    between atoms: C_4  and  C_5 
REMARK    4  A    between atoms: C_6  and  N_7 
REMARK       I    between atoms: N_7  and  C_8 
REMARK    5  A    between atoms: C_8  and  C_9 
REMARK    6  A    between atoms: C_9  and  N_10 
ROOT
HETATM    1  N   UNL     1     -44.310  56.878 -52.836  1.00  0.00    -0.325 N 
HETATM    2  C   UNL     1     -44.696  56.966 -51.515  1.00  0.00     0.240 C 
HETATM    3  O   UNL     1     -45.618  57.672 -51.102  1.00  0.00    -0.271 OA
HETATM    4  H   UNL     1     -43.782  56.053 -53.128  1.00  0.00     0.169 HD
ENDROOT
BRANCH   1   5
HETATM    5  C   UNL     1     -44.599  57.812 -53.864  1.00  0.00     0.050 A 
HETATM    6  C   UNL     1     -44.239  59.166 -53.714  1.00  0.00     0.058 A 
HETATM    7  C   UNL     1     -44.610  60.111 -54.689  1.00  0.00     0.019 A 
HETATM    8  C   UNL     1     -45.304  59.713 -55.830  1.00  0.00     0.001 A 
HETATM    9  C   UNL     1     -45.637  58.375 -55.998  1.00  0.00     0.002 A 
HETATM   10  C   UNL     1     -45.294  57.435 -55.022  1.00  0.00     0.030 A 
BRANCH   6  11
HETATM   11  C   UNL     1     -43.444  59.616 -52.534  1.00  0.00     0.254 C 
HETATM   12  N   UNL     1     -44.138  60.358 -51.605  1.00  0.00    -0.349 N 
HETATM   13  H   UNL     1     -45.107  60.589 -51.770  1.00  0.00     0.163 HD
HETATM   14  O   UNL     1     -42.249  59.350 -52.459  1.00  0.00    -0.268 OA
BRANCH  12  15
HETATM   15  C   UNL     1     -43.590  60.739 -50.314  1.00  0.00     0.114 C 
HETATM   16  C   UNL     1     -42.401  61.682 -50.505  1.00  0.00     0.037 C 
BRANCH  15  17
HETATM   17  C   UNL     1     -44.718  61.317 -49.474  1.00  0.00    -0.036 A 
HETATM   18  C   UNL     1     -45.721  62.068 -50.110  1.00  0.00     0.009 A 
HETATM   19  C   UNL     1     -46.748  62.662 -49.375  1.00  0.00     0.001 A 
HETATM   20  C   UNL     1     -46.781  62.525 -47.989  1.00  0.00     0.000 A 
HETATM   21  C   UNL     1     -45.788  61.797 -47.340  1.00  0.00     0.001 A 
HETATM   22  C   UNL     1     -44.759  61.201 -48.075  1.00  0.00     0.009 A 
ENDBRANCH  15  17
ENDBRANCH  12  15
ENDBRANCH   6  11
ENDBRANCH   1   5
BRANCH   2  23
HETATM   23  C   UNL     1     -44.020  55.975 -50.570  1.00  0.00     0.240 C 
BRANCH  23  24
HETATM   24  N   UNL     1     -42.675  55.596 -50.948  1.00  0.00    -0.259 N 
HETATM   25  C   UNL     1     -41.609  56.426 -50.795  1.00  0.00     0.326 C 
HETATM   26  O   UNL     1     -41.558  57.461 -50.154  1.00  0.00    -0.247 OA
HETATM   27  N   UNL     1     -40.573  55.957 -51.567  1.00  0.00    -0.324 N 
HETATM   28  C   UNL     1     -40.894  54.709 -52.241  1.00  0.00     0.120 C 
HETATM   29  H   UNL     1     -39.675  56.422 -51.570  1.00  0.00     0.165 HD
HETATM   30  C   UNL     1     -40.186  53.547 -51.533  1.00  0.00     0.080 C 
HETATM   31  C   UNL     1     -40.580  54.775 -53.732  1.00  0.00     0.046 C 
HETATM   32  C   UNL     1     -42.409  54.700 -51.950  1.00  0.00     0.257 C 
HETATM   33  C   UNL     1     -40.086  52.279 -52.341  1.00  0.00    -0.049 A 
HETATM   34  C   UNL     1     -40.383  52.244 -53.714  1.00  0.00    -0.052 A 
HETATM   35  C   UNL     1     -39.637  51.112 -51.702  1.00  0.00     0.007 A 
HETATM   36  C   UNL     1     -40.885  53.460 -54.448  1.00  0.00     0.042 C 
HETATM   37  C   UNL     1     -40.270  51.030 -54.408  1.00  0.00     0.007 A 
HETATM   38  C   UNL     1     -39.834  49.875 -53.759  1.00  0.00     0.001 A 
HETATM   39  C   UNL     1     -39.511  49.917 -52.407  1.00  0.00     0.001 A 
HETATM   40  O   UNL     1     -43.244  53.999 -52.506  1.00  0.00    -0.270 OA
ENDBRANCH  23  24
ENDBRANCH   2  23
TORSDOF 6
ENDMDL
