MODEL 1
REMARK VINA RESULT:      -7.1      0.000      0.000
REMARK  6 active torsions:
REMARK  status: ('A' for Active; 'I' for Inactive)
REMARK    1  A    between atoms: C_2  and  S_3 
REMARK    2  A    between atoms: C_2  and  C_11 
REMARK    3  A    between atoms: S_3  and  C_4 
REMARK    4  A    between atoms: C_4  and  C_5 
REMARK       I    between atoms: C_11  and  N_12 
REMARK    5  A    between atoms: N_12  and  C_13 
REMARK    6  A    between atoms: C_15  and  C_16 
ROOT
HETATM    1  C   UNL     1     -41.248  58.864 -50.617  1.00  0.00     0.235 C 
HETATM    2  N   UNL     1     -41.076  57.577 -50.201  1.00  0.00    -0.326 N 
HETATM    3  O   UNL     1     -40.574  59.720 -50.027  1.00  0.00    -0.272 OA
HETATM    4  H   UNL     1     -40.458  57.568 -49.396  1.00  0.00     0.169 HD
ENDROOT
BRANCH   2   5
HETATM    5  C   UNL     1     -41.572  56.320 -50.589  1.00  0.00     0.035 A 
HETATM    6  C   UNL     1     -40.824  55.151 -50.731  1.00  0.00     0.042 A 
HETATM    7  C   UNL     1     -41.424  53.943 -51.136  1.00  0.00    -0.021 A 
HETATM    8  C   UNL     1     -42.797  53.915 -51.394  1.00  0.00     0.012 A 
HETATM    9  C   UNL     1     -43.563  55.066 -51.230  1.00  0.00     0.003 A 
HETATM   10  C   UNL     1     -42.954  56.255 -50.823  1.00  0.00     0.029 A 
BRANCH   7  11
HETATM   11  C   UNL     1     -40.631  52.735 -51.291  1.00  0.00     0.010 A 
HETATM   12  C   UNL     1     -39.929  52.224 -52.408  1.00  0.00     0.152 A 
HETATM   13  N   UNL     1     -39.326  51.060 -52.153  1.00  0.00    -0.187 NA
HETATM   14  N   UNL     1     -39.641  50.818 -50.870  1.00  0.00    -0.289 N 
HETATM   15  H   UNL     1     -39.293  49.967 -50.440  1.00  0.00     0.188 HD
HETATM   16  C   UNL     1     -40.422  51.788 -50.310  1.00  0.00     0.123 A 
ENDBRANCH   7  11
ENDBRANCH   2   5
BRANCH   1  17
HETATM   17  C   UNL     1     -42.229  59.274 -51.712  1.00  0.00     0.135 C 
HETATM   18  C   UNL     1     -42.666  60.730 -51.542  1.00  0.00     0.031 C 
BRANCH  17  19
HETATM   19  S   UNL     1     -41.493  59.006 -53.379  1.00  0.00    -0.150 SA
BRANCH  19  20
HETATM   20  C   UNL     1     -42.796  58.016 -54.191  1.00  0.00     0.113 C 
BRANCH  20  21
HETATM   21  C   UNL     1     -42.312  56.613 -54.472  1.00  0.00    -0.049 A 
HETATM   22  C   UNL     1     -43.215  55.608 -54.850  1.00  0.00     0.008 A 
HETATM   23  C   UNL     1     -42.765  54.312 -55.109  1.00  0.00     0.001 A 
HETATM   24  C   UNL     1     -41.411  54.007 -54.993  1.00  0.00     0.000 A 
HETATM   25  C   UNL     1     -40.505  54.995 -54.611  1.00  0.00     0.001 A 
HETATM   26  C   UNL     1     -40.953  56.290 -54.348  1.00  0.00     0.008 A 
ENDBRANCH  20  21
ENDBRANCH  19  20
ENDBRANCH  17  19
ENDBRANCH   1  17
TORSDOF 6
ENDMDL
MODEL 2
REMARK VINA RESULT:      -6.9      3.523      6.227
REMARK  6 active torsions:
REMARK  status: ('A' for Active; 'I' for Inactive)
REMARK    1  A    between atoms: C_2  and  S_3 
REMARK    2  A    between atoms: C_2  and  C_11 
REMARK    3  A    between atoms: S_3  and  C_4 
REMARK    4  A    between atoms: C_4  and  C_5 
REMARK       I    between atoms: C_11  and  N_12 
REMARK    5  A    between atoms: N_12  and  C_13 
REMARK    6  A    between atoms: C_15  and  C_16 
ROOT
HETATM    1  C   UNL     1     -43.538  56.225 -51.596  1.00  0.00     0.235 C 
HETATM    2  N   UNL     1     -44.086  56.307 -52.843  1.00  0.00    -0.326 N 
HETATM    3  O   UNL     1     -44.296  56.490 -50.652  1.00  0.00    -0.272 OA
HETATM    4  H   UNL     1     -45.033  56.662 -52.767  1.00  0.00     0.169 HD
ENDROOT
BRANCH   2   5
HETATM    5  C   UNL     1     -43.641  56.066 -54.154  1.00  0.00     0.035 A 
HETATM    6  C   UNL     1     -43.271  57.034 -55.087  1.00  0.00     0.042 A 
HETATM    7  C   UNL     1     -42.849  56.681 -56.383  1.00  0.00    -0.021 A 
HETATM    8  C   UNL     1     -42.793  55.330 -56.738  1.00  0.00     0.012 A 
HETATM    9  C   UNL     1     -43.132  54.349 -55.810  1.00  0.00     0.003 A 
HETATM   10  C   UNL     1     -43.545  54.716 -54.528  1.00  0.00     0.029 A 
BRANCH   7  11
HETATM   11  C   UNL     1     -42.476  57.700 -57.348  1.00  0.00     0.010 A 
HETATM   12  C   UNL     1     -42.109  59.055 -57.170  1.00  0.00     0.152 A 
HETATM   13  N   UNL     1     -41.848  59.678 -58.321  1.00  0.00    -0.187 NA
HETATM   14  N   UNL     1     -42.050  58.725 -59.246  1.00  0.00    -0.289 N 
HETATM   15  H   UNL     1     -41.915  58.964 -60.223  1.00  0.00     0.188 HD
HETATM   16  C   UNL     1     -42.429  57.525 -58.716  1.00  0.00     0.123 A 
ENDBRANCH   7  11
ENDBRANCH   2   5
BRANCH   1  17
HETATM   17  C   UNL     1     -42.077  55.872 -51.338  1.00  0.00     0.135 C 
HETATM   18  C   UNL     1     -41.398  56.935 -50.472  1.00  0.00     0.031 C 
BRANCH  17  19
HETATM   19  S   UNL     1     -41.937  54.210 -50.555  1.00  0.00    -0.150 SA
BRANCH  19  20
HETATM   20  C   UNL     1     -40.200  53.784 -50.925  1.00  0.00     0.113 C 
BRANCH  20  21
HETATM   21  C   UNL     1     -40.118  52.784 -52.053  1.00  0.00    -0.049 A 
HETATM   22  C   UNL     1     -39.628  51.489 -51.827  1.00  0.00     0.008 A 
HETATM   23  C   UNL     1     -39.553  50.566 -52.872  1.00  0.00     0.001 A 
HETATM   24  C   UNL     1     -39.967  50.926 -54.152  1.00  0.00     0.000 A 
HETATM   25  C   UNL     1     -40.449  52.212 -54.392  1.00  0.00     0.001 A 
HETATM   26  C   UNL     1     -40.521  53.137 -53.350  1.00  0.00     0.008 A 
ENDBRANCH  20  21
ENDBRANCH  19  20
ENDBRANCH  17  19
ENDBRANCH   1  17
TORSDOF 6
ENDMDL
MODEL 3
REMARK VINA RESULT:      -6.9      4.556      7.257
REMARK  6 active torsions:
REMARK  status: ('A' for Active; 'I' for Inactive)
REMARK    1  A    between atoms: C_2  and  S_3 
REMARK    2  A    between atoms: C_2  and  C_11 
REMARK    3  A    between atoms: S_3  and  C_4 
REMARK    4  A    between atoms: C_4  and  C_5 
REMARK       I    between atoms: C_11  and  N_12 
REMARK    5  A    between atoms: N_12  and  C_13 
REMARK    6  A    between atoms: C_15  and  C_16 
ROOT
HETATM    1  C   UNL     1     -42.544  56.540 -54.053  1.00  0.00     0.235 C 
HETATM    2  N   UNL     1     -42.838  57.478 -54.998  1.00  0.00    -0.326 N 
HETATM    3  O   UNL     1     -42.751  56.871 -52.877  1.00  0.00    -0.272 OA
HETATM    4  H   UNL     1     -43.109  58.340 -54.537  1.00  0.00     0.169 HD
ENDROOT
BRANCH   2   5
HETATM    5  C   UNL     1     -42.808  57.534 -56.403  1.00  0.00     0.035 A 
HETATM    6  C   UNL     1     -43.423  56.634 -57.272  1.00  0.00     0.042 A 
HETATM    7  C   UNL     1     -43.321  56.779 -58.670  1.00  0.00    -0.021 A 
HETATM    8  C   UNL     1     -42.592  57.851 -59.193  1.00  0.00     0.012 A 
HETATM    9  C   UNL     1     -41.996  58.774 -58.339  1.00  0.00     0.003 A 
HETATM   10  C   UNL     1     -42.111  58.618 -56.956  1.00  0.00     0.029 A 
BRANCH   7  11
HETATM   11  C   UNL     1     -43.958  55.828 -59.565  1.00  0.00     0.010 A 
HETATM   12  C   UNL     1     -44.458  55.985 -60.879  1.00  0.00     0.152 A 
HETATM   13  N   UNL     1     -44.992  54.864 -61.368  1.00  0.00    -0.187 NA
HETATM   14  N   UNL     1     -44.840  53.981 -60.367  1.00  0.00    -0.289 N 
HETATM   15  H   UNL     1     -45.180  53.035 -60.502  1.00  0.00     0.188 HD
HETATM   16  C   UNL     1     -44.229  54.509 -59.266  1.00  0.00     0.123 A 
ENDBRANCH   7  11
ENDBRANCH   2   5
BRANCH   1  17
HETATM   17  C   UNL     1     -41.959  55.169 -54.377  1.00  0.00     0.135 C 
HETATM   18  C   UNL     1     -40.486  55.279 -54.777  1.00  0.00     0.031 C 
BRANCH  17  19
HETATM   19  S   UNL     1     -42.160  54.021 -52.950  1.00  0.00    -0.150 SA
BRANCH  19  20
HETATM   20  C   UNL     1     -40.418  53.682 -52.515  1.00  0.00     0.113 C 
BRANCH  20  21
HETATM   21  C   UNL     1     -40.107  52.209 -52.643  1.00  0.00    -0.049 A 
HETATM   22  C   UNL     1     -40.139  51.578 -53.894  1.00  0.00     0.008 A 
HETATM   23  C   UNL     1     -39.850  50.217 -54.010  1.00  0.00     0.001 A 
HETATM   24  C   UNL     1     -39.527  49.474 -52.877  1.00  0.00     0.000 A 
HETATM   25  C   UNL     1     -39.498  50.087 -51.626  1.00  0.00     0.001 A 
HETATM   26  C   UNL     1     -39.790  51.447 -51.508  1.00  0.00     0.008 A 
ENDBRANCH  20  21
ENDBRANCH  19  20
ENDBRANCH  17  19
ENDBRANCH   1  17
TORSDOF 6
ENDMDL
MODEL 4
REMARK VINA RESULT:      -6.8      1.710      2.328
REMARK  6 active torsions:
REMARK  status: ('A' for Active; 'I' for Inactive)
REMARK    1  A    between atoms: C_2  and  S_3 
REMARK    2  A    between atoms: C_2  and  C_11 
REMARK    3  A    between atoms: S_3  and  C_4 
REMARK    4  A    between atoms: C_4  and  C_5 
REMARK       I    between atoms: C_11  and  N_12 
REMARK    5  A    between atoms: N_12  and  C_13 
REMARK    6  A    between atoms: C_15  and  C_16 
ROOT
HETATM    1  C   UNL     1     -41.736  56.991 -51.528  1.00  0.00     0.235 C 
HETATM    2  N   UNL     1     -40.817  56.353 -50.749  1.00  0.00    -0.326 N 
HETATM    3  O   UNL     1     -41.463  58.157 -51.846  1.00  0.00    -0.272 OA
HETATM    4  H   UNL     1     -40.084  57.008 -50.497  1.00  0.00     0.169 HD
ENDROOT
BRANCH   2   5
HETATM    5  C   UNL     1     -40.682  55.065 -50.202  1.00  0.00     0.035 A 
HETATM    6  C   UNL     1     -40.371  53.903 -50.908  1.00  0.00     0.042 A 
HETATM    7  C   UNL     1     -40.270  52.657 -50.259  1.00  0.00    -0.021 A 
HETATM    8  C   UNL     1     -40.481  52.586 -48.879  1.00  0.00     0.012 A 
HETATM    9  C   UNL     1     -40.765  53.741 -48.156  1.00  0.00     0.003 A 
HETATM   10  C   UNL     1     -40.857  54.970 -48.813  1.00  0.00     0.029 A 
BRANCH   7  11
HETATM   11  C   UNL     1     -39.955  51.452 -51.008  1.00  0.00     0.010 A 
HETATM   12  C   UNL     1     -39.582  51.273 -52.360  1.00  0.00     0.152 A 
HETATM   13  N   UNL     1     -39.388  49.991 -52.679  1.00  0.00    -0.187 NA
HETATM   14  N   UNL     1     -39.639  49.340 -51.531  1.00  0.00    -0.289 N 
HETATM   15  H   UNL     1     -39.560  48.329 -51.523  1.00  0.00     0.188 HD
HETATM   16  C   UNL     1     -39.984  50.169 -50.502  1.00  0.00     0.123 A 
ENDBRANCH   7  11
ENDBRANCH   2   5
BRANCH   1  17
HETATM   17  C   UNL     1     -43.051  56.358 -51.972  1.00  0.00     0.135 C 
HETATM   18  C   UNL     1     -44.016  56.208 -50.794  1.00  0.00     0.031 C 
BRANCH  17  19
HETATM   19  S   UNL     1     -43.824  57.342 -53.324  1.00  0.00    -0.150 SA
BRANCH  19  20
HETATM   20  C   UNL     1     -43.905  56.106 -54.666  1.00  0.00     0.113 C 
BRANCH  20  21
HETATM   21  C   UNL     1     -42.656  55.257 -54.695  1.00  0.00    -0.049 A 
HETATM   22  C   UNL     1     -42.727  53.873 -54.483  1.00  0.00     0.008 A 
HETATM   23  C   UNL     1     -41.571  53.091 -54.511  1.00  0.00     0.001 A 
HETATM   24  C   UNL     1     -40.333  53.683 -54.750  1.00  0.00     0.000 A 
HETATM   25  C   UNL     1     -40.248  55.059 -54.956  1.00  0.00     0.001 A 
HETATM   26  C   UNL     1     -41.402  55.844 -54.925  1.00  0.00     0.008 A 
ENDBRANCH  20  21
ENDBRANCH  19  20
ENDBRANCH  17  19
ENDBRANCH   1  17
TORSDOF 6
ENDMDL
MODEL 5
REMARK VINA RESULT:      -6.8      4.740      8.084
REMARK  6 active torsions:
REMARK  status: ('A' for Active; 'I' for Inactive)
REMARK    1  A    between atoms: C_2  and  S_3 
REMARK    2  A    between atoms: C_2  and  C_11 
REMARK    3  A    between atoms: S_3  and  C_4 
REMARK    4  A    between atoms: C_4  and  C_5 
REMARK       I    between atoms: C_11  and  N_12 
REMARK    5  A    between atoms: N_12  and  C_13 
REMARK    6  A    between atoms: C_15  and  C_16 
ROOT
HETATM    1  C   UNL     1     -42.837  55.034 -55.724  1.00  0.00     0.235 C 
HETATM    2  N   UNL     1     -43.283  55.438 -56.948  1.00  0.00    -0.326 N 
HETATM    3  O   UNL     1     -43.461  54.100 -55.200  1.00  0.00    -0.272 OA
HETATM    4  H   UNL     1     -44.130  54.929 -57.178  1.00  0.00     0.169 HD
ENDROOT
BRANCH   2   5
HETATM    5  C   UNL     1     -42.880  56.390 -57.901  1.00  0.00     0.035 A 
HETATM    6  C   UNL     1     -42.587  57.729 -57.649  1.00  0.00     0.042 A 
HETATM    7  C   UNL     1     -42.201  58.602 -58.685  1.00  0.00    -0.021 A 
HETATM    8  C   UNL     1     -42.103  58.112 -59.990  1.00  0.00     0.012 A 
HETATM    9  C   UNL     1     -42.366  56.771 -60.254  1.00  0.00     0.003 A 
HETATM   10  C   UNL     1     -42.743  55.917 -59.215  1.00  0.00     0.029 A 
BRANCH   7  11
HETATM   11  C   UNL     1     -41.907  59.999 -58.411  1.00  0.00     0.010 A 
HETATM   12  C   UNL     1     -41.598  61.069 -59.283  1.00  0.00     0.152 A 
HETATM   13  N   UNL     1     -41.374  62.216 -58.637  1.00  0.00    -0.187 NA
HETATM   14  N   UNL     1     -41.537  61.886 -57.345  1.00  0.00    -0.289 N 
HETATM   15  H   UNL     1     -41.412  62.608 -56.643  1.00  0.00     0.188 HD
HETATM   16  C   UNL     1     -41.855  60.571 -57.157  1.00  0.00     0.123 A 
ENDBRANCH   7  11
ENDBRANCH   2   5
BRANCH   1  17
HETATM   17  C   UNL     1     -41.670  55.689 -54.992  1.00  0.00     0.135 C 
HETATM   18  C   UNL     1     -42.098  56.194 -53.613  1.00  0.00     0.031 C 
BRANCH  17  19
HETATM   19  S   UNL     1     -40.255  54.519 -54.845  1.00  0.00    -0.150 SA
BRANCH  19  20
HETATM   20  C   UNL     1     -40.517  53.849 -53.166  1.00  0.00     0.113 C 
BRANCH  20  21
HETATM   21  C   UNL     1     -40.211  52.370 -53.121  1.00  0.00    -0.049 A 
HETATM   22  C   UNL     1     -39.715  51.778 -51.950  1.00  0.00     0.008 A 
HETATM   23  C   UNL     1     -39.435  50.411 -51.911  1.00  0.00     0.001 A 
HETATM   24  C   UNL     1     -39.645  49.623 -53.040  1.00  0.00     0.000 A 
HETATM   25  C   UNL     1     -40.131  50.200 -54.212  1.00  0.00     0.001 A 
HETATM   26  C   UNL     1     -40.409  51.567 -54.254  1.00  0.00     0.008 A 
ENDBRANCH  20  21
ENDBRANCH  19  20
ENDBRANCH  17  19
ENDBRANCH   1  17
TORSDOF 6
ENDMDL
MODEL 6
REMARK VINA RESULT:      -6.6      2.538      3.422
REMARK  6 active torsions:
REMARK  status: ('A' for Active; 'I' for Inactive)
REMARK    1  A    between atoms: C_2  and  S_3 
REMARK    2  A    between atoms: C_2  and  C_11 
REMARK    3  A    between atoms: S_3  and  C_4 
REMARK    4  A    between atoms: C_4  and  C_5 
REMARK       I    between atoms: C_11  and  N_12 
REMARK    5  A    between atoms: N_12  and  C_13 
REMARK    6  A    between atoms: C_15  and  C_16 
ROOT
HETATM    1  C   UNL     1     -42.113  57.053 -52.130  1.00  0.00     0.235 C 
HETATM    2  N   UNL     1     -41.072  56.172 -52.123  1.00  0.00    -0.326 N 
HETATM    3  O   UNL     1     -42.019  58.010 -51.347  1.00  0.00    -0.272 OA
HETATM    4  H   UNL     1     -40.421  56.431 -51.389  1.00  0.00     0.169 HD
ENDROOT
BRANCH   2   5
HETATM    5  C   UNL     1     -40.733  55.010 -52.839  1.00  0.00     0.035 A 
HETATM    6  C   UNL     1     -40.510  53.747 -52.294  1.00  0.00     0.042 A 
HETATM    7  C   UNL     1     -40.164  52.649 -53.107  1.00  0.00    -0.021 A 
HETATM    8  C   UNL     1     -40.049  52.831 -54.488  1.00  0.00     0.012 A 
HETATM    9  C   UNL     1     -40.296  54.080 -55.051  1.00  0.00     0.003 A 
HETATM   10  C   UNL     1     -40.643  55.157 -54.232  1.00  0.00     0.029 A 
BRANCH   7  11
HETATM   11  C   UNL     1     -39.923  51.340 -52.525  1.00  0.00     0.010 A 
HETATM   12  C   UNL     1     -39.751  50.942 -51.179  1.00  0.00     0.152 A 
HETATM   13  N   UNL     1     -39.533  49.630 -51.049  1.00  0.00    -0.187 NA
HETATM   14  N   UNL     1     -39.562  49.181 -52.315  1.00  0.00    -0.289 N 
HETATM   15  H   UNL     1     -39.414  48.191 -52.479  1.00  0.00     0.188 HD
HETATM   16  C   UNL     1     -39.790  50.164 -53.235  1.00  0.00     0.123 A 
ENDBRANCH   7  11
ENDBRANCH   2   5
BRANCH   1  17
HETATM   17  C   UNL     1     -43.353  56.889 -53.002  1.00  0.00     0.135 C 
HETATM   18  C   UNL     1     -44.594  57.454 -52.308  1.00  0.00     0.031 C 
BRANCH  17  19
HETATM   19  S   UNL     1     -43.106  57.688 -54.643  1.00  0.00    -0.150 SA
BRANCH  19  20
HETATM   20  C   UNL     1     -43.548  56.325 -55.776  1.00  0.00     0.113 C 
BRANCH  20  21
HETATM   21  C   UNL     1     -43.076  56.617 -57.181  1.00  0.00    -0.049 A 
HETATM   22  C   UNL     1     -43.307  55.701 -58.218  1.00  0.00     0.008 A 
HETATM   23  C   UNL     1     -42.871  55.974 -59.516  1.00  0.00     0.001 A 
HETATM   24  C   UNL     1     -42.199  57.163 -59.791  1.00  0.00     0.000 A 
HETATM   25  C   UNL     1     -41.957  58.078 -58.768  1.00  0.00     0.001 A 
HETATM   26  C   UNL     1     -42.389  57.806 -57.469  1.00  0.00     0.008 A 
ENDBRANCH  20  21
ENDBRANCH  19  20
ENDBRANCH  17  19
ENDBRANCH   1  17
TORSDOF 6
ENDMDL
MODEL 7
REMARK VINA RESULT:      -6.6     15.322     17.231
REMARK  6 active torsions:
REMARK  status: ('A' for Active; 'I' for Inactive)
REMARK    1  A    between atoms: C_2  and  S_3 
REMARK    2  A    between atoms: C_2  and  C_11 
REMARK    3  A    between atoms: S_3  and  C_4 
REMARK    4  A    between atoms: C_4  and  C_5 
REMARK       I    between atoms: C_11  and  N_12 
REMARK    5  A    between atoms: N_12  and  C_13 
REMARK    6  A    between atoms: C_15  and  C_16 
ROOT
HETATM    1  C   UNL     1     -37.605  40.604 -52.497  1.00  0.00     0.235 C 
HETATM    2  N   UNL     1     -37.859  41.153 -53.720  1.00  0.00    -0.326 N 
HETATM    3  O   UNL     1     -38.594  40.385 -51.784  1.00  0.00    -0.272 OA
HETATM    4  H   UNL     1     -38.850  41.362 -53.790  1.00  0.00     0.169 HD
ENDROOT
BRANCH   2   5
HETATM    5  C   UNL     1     -37.090  41.519 -54.838  1.00  0.00     0.035 A 
HETATM    6  C   UNL     1     -37.397  41.246 -56.170  1.00  0.00     0.042 A 
HETATM    7  C   UNL     1     -36.546  41.653 -57.216  1.00  0.00    -0.021 A 
HETATM    8  C   UNL     1     -35.373  42.350 -56.911  1.00  0.00     0.012 A 
HETATM    9  C   UNL     1     -35.066  42.654 -55.588  1.00  0.00     0.003 A 
HETATM   10  C   UNL     1     -35.923  42.248 -54.563  1.00  0.00     0.029 A 
BRANCH   7  11
HETATM   11  C   UNL     1     -36.873  41.353 -58.600  1.00  0.00     0.010 A 
HETATM   12  C   UNL     1     -36.888  40.126 -59.303  1.00  0.00     0.152 A 
HETATM   13  N   UNL     1     -37.234  40.267 -60.585  1.00  0.00    -0.187 NA
HETATM   14  N   UNL     1     -37.439  41.588 -60.711  1.00  0.00    -0.289 N 
HETATM   15  H   UNL     1     -37.714  41.950 -61.619  1.00  0.00     0.188 HD
HETATM   16  C   UNL     1     -37.234  42.282 -59.553  1.00  0.00     0.123 A 
ENDBRANCH   7  11
ENDBRANCH   2   5
BRANCH   1  17
HETATM   17  C   UNL     1     -36.200  40.299 -51.984  1.00  0.00     0.135 C 
HETATM   18  C   UNL     1     -36.136  40.408 -50.460  1.00  0.00     0.031 C 
BRANCH  17  19
HETATM   19  S   UNL     1     -35.652  38.632 -52.541  1.00  0.00    -0.150 SA
BRANCH  19  20
HETATM   20  C   UNL     1     -33.866  38.912 -52.808  1.00  0.00     0.113 C 
BRANCH  20  21
HETATM   21  C   UNL     1     -33.577  39.202 -54.262  1.00  0.00    -0.049 A 
HETATM   22  C   UNL     1     -34.377  38.651 -55.274  1.00  0.00     0.008 A 
HETATM   23  C   UNL     1     -34.107  38.921 -56.617  1.00  0.00     0.001 A 
HETATM   24  C   UNL     1     -33.036  39.742 -56.962  1.00  0.00     0.000 A 
HETATM   25  C   UNL     1     -32.229  40.290 -55.967  1.00  0.00     0.001 A 
HETATM   26  C   UNL     1     -32.495  40.018 -54.624  1.00  0.00     0.008 A 
ENDBRANCH  20  21
ENDBRANCH  19  20
ENDBRANCH  17  19
ENDBRANCH   1  17
TORSDOF 6
ENDMDL
MODEL 8
REMARK VINA RESULT:      -6.5      2.218      4.179
REMARK  6 active torsions:
REMARK  status: ('A' for Active; 'I' for Inactive)
REMARK    1  A    between atoms: C_2  and  S_3 
REMARK    2  A    between atoms: C_2  and  C_11 
REMARK    3  A    between atoms: S_3  and  C_4 
REMARK    4  A    between atoms: C_4  and  C_5 
REMARK       I    between atoms: C_11  and  N_12 
REMARK    5  A    between atoms: N_12  and  C_13 
REMARK    6  A    between atoms: C_15  and  C_16 
ROOT
HETATM    1  C   UNL     1     -44.278  56.949 -54.449  1.00  0.00     0.235 C 
HETATM    2  N   UNL     1     -44.246  56.333 -53.233  1.00  0.00    -0.326 N 
HETATM    3  O   UNL     1     -45.381  57.384 -54.809  1.00  0.00    -0.272 OA
HETATM    4  H   UNL     1     -45.191  56.272 -52.867  1.00  0.00     0.169 HD
ENDROOT
BRANCH   2   5
HETATM    5  C   UNL     1     -43.254  55.748 -52.428  1.00  0.00     0.035 A 
HETATM    6  C   UNL     1     -42.421  54.690 -52.791  1.00  0.00     0.042 A 
HETATM    7  C   UNL     1     -41.462  54.172 -51.898  1.00  0.00    -0.021 A 
HETATM    8  C   UNL     1     -41.341  54.735 -50.624  1.00  0.00     0.012 A 
HETATM    9  C   UNL     1     -42.146  55.810 -50.256  1.00  0.00     0.003 A 
HETATM   10  C   UNL     1     -43.088  56.314 -51.155  1.00  0.00     0.029 A 
BRANCH   7  11
HETATM   11  C   UNL     1     -40.607  53.063 -52.285  1.00  0.00     0.010 A 
HETATM   12  C   UNL     1     -40.305  52.528 -53.559  1.00  0.00     0.152 A 
HETATM   13  N   UNL     1     -39.475  51.483 -53.499  1.00  0.00    -0.187 NA
HETATM   14  N   UNL     1     -39.245  51.341 -52.183  1.00  0.00    -0.289 N 
HETATM   15  H   UNL     1     -38.632  50.591 -51.879  1.00  0.00     0.188 HD
HETATM   16  C   UNL     1     -39.900  52.260 -51.415  1.00  0.00     0.123 A 
ENDBRANCH   7  11
ENDBRANCH   2   5
BRANCH   1  17
HETATM   17  C   UNL     1     -43.061  57.081 -55.361  1.00  0.00     0.135 C 
HETATM   18  C   UNL     1     -43.448  56.886 -56.828  1.00  0.00     0.031 C 
BRANCH  17  19
HETATM   19  S   UNL     1     -42.240  58.712 -55.117  1.00  0.00    -0.150 SA
BRANCH  19  20
HETATM   20  C   UNL     1     -40.948  58.283 -53.898  1.00  0.00     0.113 C 
BRANCH  20  21
HETATM   21  C   UNL     1     -41.209  58.962 -52.574  1.00  0.00    -0.049 A 
HETATM   22  C   UNL     1     -40.305  58.825 -51.510  1.00  0.00     0.008 A 
HETATM   23  C   UNL     1     -40.548  59.454 -50.287  1.00  0.00     0.001 A 
HETATM   24  C   UNL     1     -41.696  60.225 -50.115  1.00  0.00     0.000 A 
HETATM   25  C   UNL     1     -42.606  60.363 -51.162  1.00  0.00     0.001 A 
HETATM   26  C   UNL     1     -42.366  59.732 -52.384  1.00  0.00     0.008 A 
ENDBRANCH  20  21
ENDBRANCH  19  20
ENDBRANCH  17  19
ENDBRANCH   1  17
TORSDOF 6
ENDMDL
MODEL 9
REMARK VINA RESULT:      -6.4      3.474      4.645
REMARK  6 active torsions:
REMARK  status: ('A' for Active; 'I' for Inactive)
REMARK    1  A    between atoms: C_2  and  S_3 
REMARK    2  A    between atoms: C_2  and  C_11 
REMARK    3  A    between atoms: S_3  and  C_4 
REMARK    4  A    between atoms: C_4  and  C_5 
REMARK       I    between atoms: C_11  and  N_12 
REMARK    5  A    between atoms: N_12  and  C_13 
REMARK    6  A    between atoms: C_15  and  C_16 
ROOT
HETATM    1  C   UNL     1     -43.422  55.939 -53.968  1.00  0.00     0.235 C 
HETATM    2  N   UNL     1     -43.046  55.425 -52.762  1.00  0.00    -0.326 N 
HETATM    3  O   UNL     1     -44.432  56.657 -53.961  1.00  0.00    -0.272 OA
HETATM    4  H   UNL     1     -43.740  55.673 -52.064  1.00  0.00     0.169 HD
ENDROOT
BRANCH   2   5
HETATM    5  C   UNL     1     -41.988  54.626 -52.294  1.00  0.00     0.035 A 
HETATM    6  C   UNL     1     -41.561  53.422 -52.852  1.00  0.00     0.042 A 
HETATM    7  C   UNL     1     -40.491  52.694 -52.295  1.00  0.00    -0.021 A 
HETATM    8  C   UNL     1     -39.840  53.196 -51.164  1.00  0.00     0.012 A 
HETATM    9  C   UNL     1     -40.236  54.411 -50.612  1.00  0.00     0.003 A 
HETATM   10  C   UNL     1     -41.295  55.122 -51.179  1.00  0.00     0.029 A 
BRANCH   7  11
HETATM   11  C   UNL     1     -40.063  51.435 -52.879  1.00  0.00     0.010 A 
HETATM   12  C   UNL     1     -40.003  51.013 -54.228  1.00  0.00     0.152 A 
HETATM   13  N   UNL     1     -39.561  49.760 -54.360  1.00  0.00    -0.187 NA
HETATM   14  N   UNL     1     -39.339  49.370 -53.093  1.00  0.00    -0.289 N 
HETATM   15  H   UNL     1     -38.995  48.429 -52.931  1.00  0.00     0.188 HD
HETATM   16  C   UNL     1     -39.626  50.335 -52.171  1.00  0.00     0.123 A 
ENDBRANCH   7  11
ENDBRANCH   2   5
BRANCH   1  17
HETATM   17  C   UNL     1     -42.695  55.641 -55.276  1.00  0.00     0.135 C 
HETATM   18  C   UNL     1     -43.082  54.265 -55.820  1.00  0.00     0.031 C 
BRANCH  17  19
HETATM   19  S   UNL     1     -43.037  56.952 -56.523  1.00  0.00    -0.150 SA
BRANCH  19  20
HETATM   20  C   UNL     1     -42.718  56.056 -58.082  1.00  0.00     0.113 C 
BRANCH  20  21
HETATM   21  C   UNL     1     -43.947  56.045 -58.961  1.00  0.00    -0.049 A 
HETATM   22  C   UNL     1     -44.097  55.082 -59.969  1.00  0.00     0.008 A 
HETATM   23  C   UNL     1     -45.235  55.074 -60.779  1.00  0.00     0.001 A 
HETATM   24  C   UNL     1     -46.232  56.028 -60.590  1.00  0.00     0.000 A 
HETATM   25  C   UNL     1     -46.092  56.995 -59.596  1.00  0.00     0.001 A 
HETATM   26  C   UNL     1     -44.954  57.007 -58.788  1.00  0.00     0.008 A 
ENDBRANCH  20  21
ENDBRANCH  19  20
ENDBRANCH  17  19
ENDBRANCH   1  17
TORSDOF 6
ENDMDL
MODEL 10
REMARK VINA RESULT:      -6.4      3.047      4.591
REMARK  6 active torsions:
REMARK  status: ('A' for Active; 'I' for Inactive)
REMARK    1  A    between atoms: C_2  and  S_3 
REMARK    2  A    between atoms: C_2  and  C_11 
REMARK    3  A    between atoms: S_3  and  C_4 
REMARK    4  A    between atoms: C_4  and  C_5 
REMARK       I    between atoms: C_11  and  N_12 
REMARK    5  A    between atoms: N_12  and  C_13 
REMARK    6  A    between atoms: C_15  and  C_16 
ROOT
HETATM    1  C   UNL     1     -43.212  56.494 -57.452  1.00  0.00     0.235 C 
HETATM    2  N   UNL     1     -43.415  55.405 -56.656  1.00  0.00    -0.326 N 
HETATM    3  O   UNL     1     -43.737  56.452 -58.573  1.00  0.00    -0.272 OA
HETATM    4  H   UNL     1     -43.916  54.697 -57.183  1.00  0.00     0.169 HD
ENDROOT
BRANCH   2   5
HETATM    5  C   UNL     1     -43.066  55.039 -55.344  1.00  0.00     0.035 A 
HETATM    6  C   UNL     1     -42.077  54.125 -54.984  1.00  0.00     0.042 A 
HETATM    7  C   UNL     1     -41.815  53.823 -53.633  1.00  0.00    -0.021 A 
HETATM    8  C   UNL     1     -42.558  54.459 -52.635  1.00  0.00     0.012 A 
HETATM    9  C   UNL     1     -43.530  55.396 -52.977  1.00  0.00     0.003 A 
HETATM   10  C   UNL     1     -43.774  55.687 -54.320  1.00  0.00     0.029 A 
BRANCH   7  11
HETATM   11  C   UNL     1     -40.789  52.860 -53.271  1.00  0.00     0.010 A 
HETATM   12  C   UNL     1     -40.110  52.645 -52.049  1.00  0.00     0.152 A 
HETATM   13  N   UNL     1     -39.212  51.659 -52.121  1.00  0.00    -0.187 NA
HETATM   14  N   UNL     1     -39.309  51.239 -53.393  1.00  0.00    -0.289 N 
HETATM   15  H   UNL     1     -38.708  50.480 -53.697  1.00  0.00     0.188 HD
HETATM   16  C   UNL     1     -40.236  51.926 -54.123  1.00  0.00     0.123 A 
ENDBRANCH   7  11
ENDBRANCH   2   5
BRANCH   1  17
HETATM   17  C   UNL     1     -42.363  57.693 -57.041  1.00  0.00     0.135 C 
HETATM   18  C   UNL     1     -41.797  58.413 -58.267  1.00  0.00     0.031 C 
BRANCH  17  19
HETATM   19  S   UNL     1     -43.341  58.856 -56.000  1.00  0.00    -0.150 SA
BRANCH  19  20
HETATM   20  C   UNL     1     -42.023  59.652 -55.016  1.00  0.00     0.113 C 
BRANCH  20  21
HETATM   21  C   UNL     1     -41.955  59.062 -53.627  1.00  0.00    -0.049 A 
HETATM   22  C   UNL     1     -42.972  59.312 -52.694  1.00  0.00     0.008 A 
HETATM   23  C   UNL     1     -42.907  58.766 -51.411  1.00  0.00     0.001 A 
HETATM   24  C   UNL     1     -41.827  57.966 -51.047  1.00  0.00     0.000 A 
HETATM   25  C   UNL     1     -40.806  57.715 -51.962  1.00  0.00     0.001 A 
HETATM   26  C   UNL     1     -40.867  58.263 -53.245  1.00  0.00     0.008 A 
ENDBRANCH  20  21
ENDBRANCH  19  20
ENDBRANCH  17  19
ENDBRANCH   1  17
TORSDOF 6
ENDMDL
