MODEL 1
REMARK VINA RESULT:      -8.8      0.000      0.000
REMARK  5 active torsions:
REMARK  status: ('A' for Active; 'I' for Inactive)
REMARK    1  A    between atoms: C_2  and  C_3 
REMARK    2  A    between atoms: C_7  and  C_8 
REMARK    3  A    between atoms: C_11  and  C_12 
REMARK       I    between atoms: C_12  and  N_13 
REMARK    4  A    between atoms: N_13  and  C_14 
REMARK    5  A    between atoms: C_17  and  N_18 
REMARK       I    between atoms: N_18  and  C_19 
ROOT
HETATM    1  C   UNL     1     -32.332  39.419 -48.991  1.00  0.00     0.010 A 
HETATM    2  C   UNL     1     -31.678  39.979 -50.098  1.00  0.00     0.016 A 
HETATM    3  C   UNL     1     -32.353  40.154 -51.314  1.00  0.00     0.018 A 
HETATM    4  C   UNL     1     -33.690  39.761 -51.431  1.00  0.00     0.032 A 
HETATM    5  C   UNL     1     -34.352  39.228 -50.316  1.00  0.00     0.018 A 
HETATM    6  C   UNL     1     -33.680  39.059 -49.101  1.00  0.00     0.016 A 
ENDROOT
BRANCH   4   7
HETATM    7  C   UNL     1     -34.469  39.911 -52.695  1.00  0.00     0.256 C 
HETATM    8  N   UNL     1     -34.377  41.148 -53.309  1.00  0.00    -0.323 N 
HETATM    9  H   UNL     1     -33.774  41.835 -52.882  1.00  0.00     0.169 HD
HETATM   10  O   UNL     1     -35.080  38.931 -53.106  1.00  0.00    -0.267 OA
BRANCH   8  11
HETATM   11  C   UNL     1     -34.933  41.520 -54.554  1.00  0.00     0.035 A 
HETATM   12  C   UNL     1     -36.204  42.068 -54.712  1.00  0.00     0.032 A 
HETATM   13  C   UNL     1     -36.710  42.356 -55.989  1.00  0.00     0.032 A 
HETATM   14  C   UNL     1     -35.951  42.106 -57.129  1.00  0.00     0.034 A 
HETATM   15  C   UNL     1     -34.662  41.586 -56.971  1.00  0.00     0.032 A 
HETATM   16  C   UNL     1     -34.158  41.296 -55.697  1.00  0.00     0.032 A 
BRANCH  14  17
HETATM   17  N   UNL     1     -36.406  42.321 -58.446  1.00  0.00    -0.328 N 
HETATM   18  C   UNL     1     -37.361  41.596 -59.134  1.00  0.00     0.218 C 
HETATM   19  C   UNL     1     -37.535  42.075 -60.556  1.00  0.00     0.117 C 
HETATM   20  O   UNL     1     -38.043  40.675 -58.702  1.00  0.00    -0.274 OA
HETATM   21  H   UNL     1     -35.964  43.082 -58.947  1.00  0.00     0.169 HD
ENDBRANCH  14  17
ENDBRANCH   8  11
ENDBRANCH   4   7
BRANCH   1  22
HETATM   22  C   UNL     1     -31.578  39.265 -47.712  1.00  0.00     0.142 A 
HETATM   23  N   UNL     1     -32.032  38.488 -46.774  1.00  0.00    -0.222 NA
HETATM   24  C   UNL     1     -31.255  38.409 -45.662  1.00  0.00     0.116 A 
HETATM   25  C   UNL     1     -30.066  39.068 -45.430  1.00  0.00     0.075 A 
HETATM   26  S   UNL     1     -31.686  37.414 -44.352  1.00  0.00    -0.074 SA
HETATM   27  C   UNL     1     -29.481  38.742 -44.154  1.00  0.00    -0.027 A 
HETATM   28  C   UNL     1     -29.595  39.955 -46.475  1.00  0.00     0.260 A 
HETATM   29  C   UNL     1     -30.281  37.835 -43.470  1.00  0.00    -0.012 A 
HETATM   30  C   UNL     1     -30.050  37.228 -42.124  1.00  0.00     0.057 C 
HETATM   31  N   UNL     1     -30.406  39.993 -47.586  1.00  0.00    -0.307 N 
HETATM   32  O   UNL     1     -28.572  40.631 -46.411  1.00  0.00    -0.267 OA
HETATM   33  H   UNL     1     -30.098  40.639 -48.295  1.00  0.00     0.170 HD
BRANCH  27  34
HETATM   34  C   UNL     1     -28.179  39.296 -43.641  1.00  0.00     0.036 C 
HETATM   35  C   UNL     1     -28.383  40.494 -42.725  1.00  0.00     0.010 C 
ENDBRANCH  27  34
ENDBRANCH   1  22
TORSDOF 5
ENDMDL
MODEL 2
REMARK VINA RESULT:      -8.0     16.719     20.534
REMARK  5 active torsions:
REMARK  status: ('A' for Active; 'I' for Inactive)
REMARK    1  A    between atoms: C_2  and  C_3 
REMARK    2  A    between atoms: C_7  and  C_8 
REMARK    3  A    between atoms: C_11  and  C_12 
REMARK       I    between atoms: C_12  and  N_13 
REMARK    4  A    between atoms: N_13  and  C_14 
REMARK    5  A    between atoms: C_17  and  N_18 
REMARK       I    between atoms: N_18  and  C_19 
ROOT
HETATM    1  C   UNL     1     -42.740  55.613 -55.462  1.00  0.00     0.010 A 
HETATM    2  C   UNL     1     -42.619  55.030 -56.732  1.00  0.00     0.016 A 
HETATM    3  C   UNL     1     -43.233  55.614 -57.849  1.00  0.00     0.018 A 
HETATM    4  C   UNL     1     -43.980  56.787 -57.698  1.00  0.00     0.032 A 
HETATM    5  C   UNL     1     -44.076  57.386 -56.434  1.00  0.00     0.018 A 
HETATM    6  C   UNL     1     -43.459  56.806 -55.322  1.00  0.00     0.016 A 
ENDROOT
BRANCH   4   7
HETATM    7  C   UNL     1     -44.666  57.461 -58.840  1.00  0.00     0.256 C 
HETATM    8  N   UNL     1     -45.899  56.938 -59.188  1.00  0.00    -0.323 N 
HETATM    9  H   UNL     1     -46.253  56.173 -58.632  1.00  0.00     0.169 HD
HETATM   10  O   UNL     1     -44.114  58.435 -59.339  1.00  0.00    -0.267 OA
BRANCH   8  11
HETATM   11  C   UNL     1     -46.791  57.444 -60.160  1.00  0.00     0.035 A 
HETATM   12  C   UNL     1     -47.180  58.779 -60.248  1.00  0.00     0.032 A 
HETATM   13  C   UNL     1     -48.120  59.193 -61.205  1.00  0.00     0.032 A 
HETATM   14  C   UNL     1     -48.681  58.281 -62.094  1.00  0.00     0.034 A 
HETATM   15  C   UNL     1     -48.268  56.946 -62.029  1.00  0.00     0.032 A 
HETATM   16  C   UNL     1     -47.332  56.531 -61.072  1.00  0.00     0.032 A 
BRANCH  14  17
HETATM   17  N   UNL     1     -49.665  58.609 -63.049  1.00  0.00    -0.328 N 
HETATM   18  C   UNL     1     -50.972  58.993 -62.812  1.00  0.00     0.218 C 
HETATM   19  C   UNL     1     -51.754  59.192 -64.087  1.00  0.00     0.117 C 
HETATM   20  O   UNL     1     -51.498  59.190 -61.723  1.00  0.00    -0.274 OA
HETATM   21  H   UNL     1     -49.382  58.532 -64.018  1.00  0.00     0.169 HD
ENDBRANCH  14  17
ENDBRANCH   8  11
ENDBRANCH   4   7
BRANCH   1  22
HETATM   22  C   UNL     1     -42.057  54.965 -54.304  1.00  0.00     0.142 A 
HETATM   23  N   UNL     1     -42.130  55.496 -53.120  1.00  0.00    -0.222 NA
HETATM   24  C   UNL     1     -41.487  54.810 -52.139  1.00  0.00     0.116 A 
HETATM   25  C   UNL     1     -40.770  53.640 -52.275  1.00  0.00     0.075 A 
HETATM   26  S   UNL     1     -41.509  55.349 -50.526  1.00  0.00    -0.074 SA
HETATM   27  C   UNL     1     -40.234  53.160 -51.026  1.00  0.00    -0.027 A 
HETATM   28  C   UNL     1     -40.673  53.083 -53.609  1.00  0.00     0.260 A 
HETATM   29  C   UNL     1     -40.579  54.016 -49.987  1.00  0.00    -0.012 A 
HETATM   30  C   UNL     1     -40.240  53.896 -48.537  1.00  0.00     0.057 C 
HETATM   31  N   UNL     1     -41.349  53.803 -54.567  1.00  0.00    -0.307 N 
HETATM   32  O   UNL     1     -40.050  52.065 -53.899  1.00  0.00    -0.267 OA
HETATM   33  H   UNL     1     -41.249  53.437 -55.500  1.00  0.00     0.170 HD
BRANCH  27  34
HETATM   34  C   UNL     1     -39.424  51.901 -50.868  1.00  0.00     0.036 C 
HETATM   35  C   UNL     1     -40.257  50.743 -50.337  1.00  0.00     0.010 C 
ENDBRANCH  27  34
ENDBRANCH   1  22
TORSDOF 5
ENDMDL
MODEL 3
REMARK VINA RESULT:      -7.9      1.533      2.240
REMARK  5 active torsions:
REMARK  status: ('A' for Active; 'I' for Inactive)
REMARK    1  A    between atoms: C_2  and  C_3 
REMARK    2  A    between atoms: C_7  and  C_8 
REMARK    3  A    between atoms: C_11  and  C_12 
REMARK       I    between atoms: C_12  and  N_13 
REMARK    4  A    between atoms: N_13  and  C_14 
REMARK    5  A    between atoms: C_17  and  N_18 
REMARK       I    between atoms: N_18  and  C_19 
ROOT
HETATM    1  C   UNL     1     -32.642  39.344 -49.623  1.00  0.00     0.010 A 
HETATM    2  C   UNL     1     -34.032  39.223 -49.772  1.00  0.00     0.016 A 
HETATM    3  C   UNL     1     -34.633  39.383 -51.028  1.00  0.00     0.018 A 
HETATM    4  C   UNL     1     -33.843  39.674 -52.146  1.00  0.00     0.032 A 
HETATM    5  C   UNL     1     -32.452  39.766 -52.002  1.00  0.00     0.018 A 
HETATM    6  C   UNL     1     -31.852  39.601 -50.749  1.00  0.00     0.016 A 
ENDROOT
BRANCH   4   7
HETATM    7  C   UNL     1     -34.415  39.864 -53.512  1.00  0.00     0.256 C 
HETATM    8  N   UNL     1     -35.132  41.031 -53.701  1.00  0.00    -0.323 N 
HETATM    9  H   UNL     1     -35.188  41.674 -52.925  1.00  0.00     0.169 HD
HETATM   10  O   UNL     1     -34.168  39.008 -54.354  1.00  0.00    -0.267 OA
BRANCH   8  11
HETATM   11  C   UNL     1     -35.691  41.496 -54.913  1.00  0.00     0.035 A 
HETATM   12  C   UNL     1     -37.057  41.528 -55.184  1.00  0.00     0.032 A 
HETATM   13  C   UNL     1     -37.532  41.947 -56.437  1.00  0.00     0.032 A 
HETATM   14  C   UNL     1     -36.649  42.348 -57.436  1.00  0.00     0.034 A 
HETATM   15  C   UNL     1     -35.279  42.347 -57.155  1.00  0.00     0.032 A 
HETATM   16  C   UNL     1     -34.804  41.926 -55.906  1.00  0.00     0.032 A 
BRANCH  14  17
HETATM   17  N   UNL     1     -37.044  42.734 -58.733  1.00  0.00    -0.328 N 
HETATM   18  C   UNL     1     -37.199  41.922 -59.842  1.00  0.00     0.218 C 
HETATM   19  C   UNL     1     -37.564  42.703 -61.081  1.00  0.00     0.117 C 
HETATM   20  O   UNL     1     -37.092  40.703 -59.886  1.00  0.00    -0.274 OA
HETATM   21  H   UNL     1     -37.212  43.724 -58.867  1.00  0.00     0.169 HD
ENDBRANCH  14  17
ENDBRANCH   8  11
ENDBRANCH   4   7
BRANCH   1  22
HETATM   22  C   UNL     1     -32.043  39.151 -48.269  1.00  0.00     0.142 A 
HETATM   23  N   UNL     1     -31.204  40.022 -47.794  1.00  0.00    -0.222 NA
HETATM   24  C   UNL     1     -30.739  39.754 -46.545  1.00  0.00     0.116 A 
HETATM   25  C   UNL     1     -31.051  38.667 -45.757  1.00  0.00     0.075 A 
HETATM   26  S   UNL     1     -29.657  40.807 -45.762  1.00  0.00    -0.074 SA
HETATM   27  C   UNL     1     -30.401  38.699 -44.471  1.00  0.00    -0.027 A 
HETATM   28  C   UNL     1     -31.962  37.690 -46.319  1.00  0.00     0.260 A 
HETATM   29  C   UNL     1     -29.609  39.835 -44.354  1.00  0.00    -0.012 A 
HETATM   30  C   UNL     1     -28.773  40.265 -43.193  1.00  0.00     0.057 C 
HETATM   31  N   UNL     1     -32.417  38.009 -47.579  1.00  0.00    -0.307 N 
HETATM   32  O   UNL     1     -32.316  36.658 -45.757  1.00  0.00    -0.267 OA
HETATM   33  H   UNL     1     -33.020  37.312 -47.984  1.00  0.00     0.170 HD
BRANCH  27  34
HETATM   34  C   UNL     1     -30.568  37.655 -43.399  1.00  0.00     0.036 C 
HETATM   35  C   UNL     1     -31.839  37.858 -42.589  1.00  0.00     0.010 C 
ENDBRANCH  27  34
ENDBRANCH   1  22
TORSDOF 5
ENDMDL
MODEL 4
REMARK VINA RESULT:      -7.6     21.734     25.801
REMARK  5 active torsions:
REMARK  status: ('A' for Active; 'I' for Inactive)
REMARK    1  A    between atoms: C_2  and  C_3 
REMARK    2  A    between atoms: C_7  and  C_8 
REMARK    3  A    between atoms: C_11  and  C_12 
REMARK       I    between atoms: C_12  and  N_13 
REMARK    4  A    between atoms: N_13  and  C_14 
REMARK    5  A    between atoms: C_17  and  N_18 
REMARK       I    between atoms: N_18  and  C_19 
ROOT
HETATM    1  C   UNL     1     -45.127  58.952 -53.254  1.00  0.00     0.010 A 
HETATM    2  C   UNL     1     -44.728  58.027 -52.278  1.00  0.00     0.016 A 
HETATM    3  C   UNL     1     -44.851  58.329 -50.914  1.00  0.00     0.018 A 
HETATM    4  C   UNL     1     -45.370  59.566 -50.519  1.00  0.00     0.032 A 
HETATM    5  C   UNL     1     -45.796  60.478 -51.494  1.00  0.00     0.018 A 
HETATM    6  C   UNL     1     -45.678  60.175 -52.854  1.00  0.00     0.016 A 
ENDROOT
BRANCH   4   7
HETATM    7  C   UNL     1     -45.524  59.958 -49.087  1.00  0.00     0.256 C 
HETATM    8  N   UNL     1     -44.868  61.117 -48.711  1.00  0.00    -0.323 N 
HETATM    9  H   UNL     1     -44.369  61.622 -49.429  1.00  0.00     0.169 HD
HETATM   10  O   UNL     1     -46.243  59.259 -48.381  1.00  0.00    -0.267 OA
BRANCH   8  11
HETATM   11  C   UNL     1     -44.927  61.755 -47.452  1.00  0.00     0.035 A 
HETATM   12  C   UNL     1     -45.139  63.121 -47.275  1.00  0.00     0.032 A 
HETATM   13  C   UNL     1     -45.122  63.690 -45.992  1.00  0.00     0.032 A 
HETATM   14  C   UNL     1     -44.901  62.903 -44.865  1.00  0.00     0.034 A 
HETATM   15  C   UNL     1     -44.720  61.527 -45.038  1.00  0.00     0.032 A 
HETATM   16  C   UNL     1     -44.733  60.958 -46.319  1.00  0.00     0.032 A 
BRANCH  14  17
HETATM   17  N   UNL     1     -44.821  63.407 -43.551  1.00  0.00    -0.328 N 
HETATM   18  C   UNL     1     -43.824  63.175 -42.621  1.00  0.00     0.218 C 
HETATM   19  C   UNL     1     -44.116  63.824 -41.289  1.00  0.00     0.117 C 
HETATM   20  O   UNL     1     -42.787  62.547 -42.791  1.00  0.00    -0.274 OA
HETATM   21  H   UNL     1     -45.596  63.987 -43.253  1.00  0.00     0.169 HD
ENDBRANCH  14  17
ENDBRANCH   8  11
ENDBRANCH   4   7
BRANCH   1  22
HETATM   22  C   UNL     1     -44.992  58.583 -54.694  1.00  0.00     0.142 A 
HETATM   23  N   UNL     1     -44.038  57.789 -55.079  1.00  0.00    -0.222 NA
HETATM   24  C   UNL     1     -44.024  57.506 -56.408  1.00  0.00     0.116 A 
HETATM   25  C   UNL     1     -44.893  57.978 -57.368  1.00  0.00     0.075 A 
HETATM   26  S   UNL     1     -42.862  56.459 -57.075  1.00  0.00    -0.074 SA
HETATM   27  C   UNL     1     -44.614  57.461 -58.685  1.00  0.00    -0.027 A 
HETATM   28  C   UNL     1     -45.929  58.889 -56.923  1.00  0.00     0.260 A 
HETATM   29  C   UNL     1     -43.518  56.607 -58.649  1.00  0.00    -0.012 A 
HETATM   30  C   UNL     1     -42.895  55.853 -59.779  1.00  0.00     0.057 C 
HETATM   31  N   UNL     1     -45.913  59.136 -55.569  1.00  0.00    -0.307 N 
HETATM   32  O   UNL     1     -46.761  59.415 -57.656  1.00  0.00    -0.267 OA
HETATM   33  H   UNL     1     -46.609  59.798 -55.266  1.00  0.00     0.170 HD
BRANCH  27  34
HETATM   34  C   UNL     1     -45.407  57.789 -59.921  1.00  0.00     0.036 C 
HETATM   35  C   UNL     1     -46.575  56.837 -60.128  1.00  0.00     0.010 C 
ENDBRANCH  27  34
ENDBRANCH   1  22
TORSDOF 5
ENDMDL
MODEL 5
REMARK VINA RESULT:      -7.6     16.989     20.794
REMARK  5 active torsions:
REMARK  status: ('A' for Active; 'I' for Inactive)
REMARK    1  A    between atoms: C_2  and  C_3 
REMARK    2  A    between atoms: C_7  and  C_8 
REMARK    3  A    between atoms: C_11  and  C_12 
REMARK       I    between atoms: C_12  and  N_13 
REMARK    4  A    between atoms: N_13  and  C_14 
REMARK    5  A    between atoms: C_17  and  N_18 
REMARK       I    between atoms: N_18  and  C_19 
ROOT
HETATM    1  C   UNL     1     -42.728  55.730 -55.568  1.00  0.00     0.010 A 
HETATM    2  C   UNL     1     -42.672  55.132 -56.836  1.00  0.00     0.016 A 
HETATM    3  C   UNL     1     -43.310  55.725 -57.935  1.00  0.00     0.018 A 
HETATM    4  C   UNL     1     -44.014  56.922 -57.768  1.00  0.00     0.032 A 
HETATM    5  C   UNL     1     -44.045  57.534 -56.508  1.00  0.00     0.018 A 
HETATM    6  C   UNL     1     -43.405  56.945 -55.413  1.00  0.00     0.016 A 
ENDROOT
BRANCH   4   7
HETATM    7  C   UNL     1     -44.721  57.606 -58.891  1.00  0.00     0.256 C 
HETATM    8  N   UNL     1     -46.063  57.300 -59.026  1.00  0.00    -0.323 N 
HETATM    9  H   UNL     1     -46.467  56.672 -58.347  1.00  0.00     0.169 HD
HETATM   10  O   UNL     1     -44.079  58.406 -59.562  1.00  0.00    -0.267 OA
BRANCH   8  11
HETATM   11  C   UNL     1     -46.978  57.875 -59.936  1.00  0.00     0.035 A 
HETATM   12  C   UNL     1     -47.430  57.248 -61.095  1.00  0.00     0.032 A 
HETATM   13  C   UNL     1     -48.292  57.911 -61.983  1.00  0.00     0.032 A 
HETATM   14  C   UNL     1     -48.722  59.209 -61.723  1.00  0.00     0.034 A 
HETATM   15  C   UNL     1     -48.295  59.829 -60.544  1.00  0.00     0.032 A 
HETATM   16  C   UNL     1     -47.432  59.169 -59.659  1.00  0.00     0.032 A 
BRANCH  14  17
HETATM   17  N   UNL     1     -49.546  59.958 -62.587  1.00  0.00    -0.328 N 
HETATM   18  C   UNL     1     -50.868  59.712 -62.910  1.00  0.00     0.218 C 
HETATM   19  C   UNL     1     -51.403  60.689 -63.929  1.00  0.00     0.117 C 
HETATM   20  O   UNL     1     -51.592  58.838 -62.449  1.00  0.00    -0.274 OA
HETATM   21  H   UNL     1     -49.109  60.753 -63.035  1.00  0.00     0.169 HD
ENDBRANCH  14  17
ENDBRANCH   8  11
ENDBRANCH   4   7
BRANCH   1  22
HETATM   22  C   UNL     1     -42.023  55.071 -54.429  1.00  0.00     0.142 A 
HETATM   23  N   UNL     1     -41.990  55.641 -53.262  1.00  0.00    -0.222 NA
HETATM   24  C   UNL     1     -41.338  54.942 -52.296  1.00  0.00     0.116 A 
HETATM   25  C   UNL     1     -40.709  53.723 -52.433  1.00  0.00     0.075 A 
HETATM   26  S   UNL     1     -41.227  55.529 -50.704  1.00  0.00    -0.074 SA
HETATM   27  C   UNL     1     -40.133  53.244 -51.202  1.00  0.00    -0.027 A 
HETATM   28  C   UNL     1     -40.729  53.120 -53.751  1.00  0.00     0.260 A 
HETATM   29  C   UNL     1     -40.358  54.152 -50.174  1.00  0.00    -0.012 A 
HETATM   30  C   UNL     1     -39.943  54.052 -48.742  1.00  0.00     0.057 C 
HETATM   31  N   UNL     1     -41.411  53.856 -54.693  1.00  0.00    -0.307 N 
HETATM   32  O   UNL     1     -40.194  52.054 -54.042  1.00  0.00    -0.267 OA
HETATM   33  H   UNL     1     -41.392  53.456 -55.617  1.00  0.00     0.170 HD
BRANCH  27  34
HETATM   34  C   UNL     1     -39.402  51.937 -51.047  1.00  0.00     0.036 C 
HETATM   35  C   UNL     1     -40.265  50.867 -50.395  1.00  0.00     0.010 C 
ENDBRANCH  27  34
ENDBRANCH   1  22
TORSDOF 5
ENDMDL
MODEL 6
REMARK VINA RESULT:      -7.5     17.247     21.142
REMARK  5 active torsions:
REMARK  status: ('A' for Active; 'I' for Inactive)
REMARK    1  A    between atoms: C_2  and  C_3 
REMARK    2  A    between atoms: C_7  and  C_8 
REMARK    3  A    between atoms: C_11  and  C_12 
REMARK       I    between atoms: C_12  and  N_13 
REMARK    4  A    between atoms: N_13  and  C_14 
REMARK    5  A    between atoms: C_17  and  N_18 
REMARK       I    between atoms: N_18  and  C_19 
ROOT
HETATM    1  C   UNL     1     -42.980  55.908 -55.980  1.00  0.00     0.010 A 
HETATM    2  C   UNL     1     -42.859  55.330 -57.253  1.00  0.00     0.016 A 
HETATM    3  C   UNL     1     -43.495  55.904 -58.363  1.00  0.00     0.018 A 
HETATM    4  C   UNL     1     -44.263  57.062 -58.203  1.00  0.00     0.032 A 
HETATM    5  C   UNL     1     -44.359  57.656 -56.937  1.00  0.00     0.018 A 
HETATM    6  C   UNL     1     -43.721  57.086 -55.831  1.00  0.00     0.016 A 
ENDROOT
BRANCH   4   7
HETATM    7  C   UNL     1     -44.972  57.724 -59.338  1.00  0.00     0.256 C 
HETATM    8  N   UNL     1     -46.345  57.562 -59.359  1.00  0.00    -0.323 N 
HETATM    9  H   UNL     1     -46.764  57.043 -58.601  1.00  0.00     0.169 HD
HETATM   10  O   UNL     1     -44.298  58.386 -60.120  1.00  0.00    -0.267 OA
BRANCH   8  11
HETATM   11  C   UNL     1     -47.256  58.158 -60.260  1.00  0.00     0.035 A 
HETATM   12  C   UNL     1     -47.727  59.464 -60.149  1.00  0.00     0.032 A 
HETATM   13  C   UNL     1     -48.680  59.965 -61.050  1.00  0.00     0.032 A 
HETATM   14  C   UNL     1     -49.172  59.170 -62.082  1.00  0.00     0.034 A 
HETATM   15  C   UNL     1     -48.677  57.868 -62.215  1.00  0.00     0.032 A 
HETATM   16  C   UNL     1     -47.728  57.367 -61.313  1.00  0.00     0.032 A 
BRANCH  14  17
HETATM   17  N   UNL     1     -50.163  59.582 -62.995  1.00  0.00    -0.328 N 
HETATM   18  C   UNL     1     -51.533  59.438 -62.871  1.00  0.00     0.218 C 
HETATM   19  C   UNL     1     -52.277  59.935 -64.087  1.00  0.00     0.117 C 
HETATM   20  O   UNL     1     -52.145  58.988 -61.910  1.00  0.00    -0.274 OA
HETATM   21  H   UNL     1     -49.826  60.014 -63.847  1.00  0.00     0.169 HD
ENDBRANCH  14  17
ENDBRANCH   8  11
ENDBRANCH   4   7
BRANCH   1  22
HETATM   22  C   UNL     1     -42.275  55.271 -54.830  1.00  0.00     0.142 A 
HETATM   23  N   UNL     1     -41.839  54.050 -54.924  1.00  0.00    -0.222 NA
HETATM   24  C   UNL     1     -41.195  53.580 -53.824  1.00  0.00     0.116 A 
HETATM   25  C   UNL     1     -40.976  54.250 -52.639  1.00  0.00     0.075 A 
HETATM   26  S   UNL     1     -40.535  52.013 -53.789  1.00  0.00    -0.074 SA
HETATM   27  C   UNL     1     -40.235  53.471 -51.679  1.00  0.00    -0.027 A 
HETATM   28  C   UNL     1     -41.499  55.598 -52.542  1.00  0.00     0.260 A 
HETATM   29  C   UNL     1     -39.930  52.219 -52.201  1.00  0.00    -0.012 A 
HETATM   30  C   UNL     1     -39.174  51.105 -51.553  1.00  0.00     0.057 C 
HETATM   31  N   UNL     1     -42.131  56.036 -53.684  1.00  0.00    -0.307 N 
HETATM   32  O   UNL     1     -41.410  56.315 -51.550  1.00  0.00    -0.267 OA
HETATM   33  H   UNL     1     -42.528  56.959 -53.603  1.00  0.00     0.170 HD
BRANCH  27  34
HETATM   34  C   UNL     1     -39.836  53.950 -50.309  1.00  0.00     0.036 C 
HETATM   35  C   UNL     1     -40.933  53.726 -49.278  1.00  0.00     0.010 C 
ENDBRANCH  27  34
ENDBRANCH   1  22
TORSDOF 5
ENDMDL
MODEL 7
REMARK VINA RESULT:      -7.1     21.702     25.848
REMARK  5 active torsions:
REMARK  status: ('A' for Active; 'I' for Inactive)
REMARK    1  A    between atoms: C_2  and  C_3 
REMARK    2  A    between atoms: C_7  and  C_8 
REMARK    3  A    between atoms: C_11  and  C_12 
REMARK       I    between atoms: C_12  and  N_13 
REMARK    4  A    between atoms: N_13  and  C_14 
REMARK    5  A    between atoms: C_17  and  N_18 
REMARK       I    between atoms: N_18  and  C_19 
ROOT
HETATM    1  C   UNL     1     -44.330  59.537 -54.020  1.00  0.00     0.010 A 
HETATM    2  C   UNL     1     -45.446  59.692 -53.183  1.00  0.00     0.016 A 
HETATM    3  C   UNL     1     -45.331  60.355 -51.954  1.00  0.00     0.018 A 
HETATM    4  C   UNL     1     -44.092  60.864 -51.550  1.00  0.00     0.032 A 
HETATM    5  C   UNL     1     -42.985  60.736 -52.400  1.00  0.00     0.018 A 
HETATM    6  C   UNL     1     -43.100  60.079 -53.629  1.00  0.00     0.016 A 
ENDROOT
BRANCH   4   7
HETATM    7  C   UNL     1     -43.895  61.576 -50.253  1.00  0.00     0.256 C 
HETATM    8  N   UNL     1     -44.978  61.561 -49.393  1.00  0.00    -0.323 N 
HETATM    9  H   UNL     1     -45.798  61.051 -49.688  1.00  0.00     0.169 HD
HETATM   10  O   UNL     1     -42.792  62.067 -50.037  1.00  0.00    -0.267 OA
BRANCH   8  11
HETATM   11  C   UNL     1     -45.024  62.072 -48.077  1.00  0.00     0.035 A 
HETATM   12  C   UNL     1     -44.963  63.428 -47.760  1.00  0.00     0.032 A 
HETATM   13  C   UNL     1     -44.952  63.854 -46.423  1.00  0.00     0.032 A 
HETATM   14  C   UNL     1     -45.009  62.933 -45.380  1.00  0.00     0.034 A 
HETATM   15  C   UNL     1     -45.103  61.573 -45.697  1.00  0.00     0.032 A 
HETATM   16  C   UNL     1     -45.111  61.147 -47.031  1.00  0.00     0.032 A 
BRANCH  14  17
HETATM   17  N   UNL     1     -44.953  63.278 -44.015  1.00  0.00    -0.328 N 
HETATM   18  C   UNL     1     -44.043  62.835 -43.072  1.00  0.00     0.218 C 
HETATM   19  C   UNL     1     -44.342  63.364 -41.690  1.00  0.00     0.117 C 
HETATM   20  O   UNL     1     -43.071  62.116 -43.265  1.00  0.00    -0.274 OA
HETATM   21  H   UNL     1     -45.677  63.906 -43.688  1.00  0.00     0.169 HD
ENDBRANCH  14  17
ENDBRANCH   8  11
ENDBRANCH   4   7
BRANCH   1  22
HETATM   22  C   UNL     1     -44.502  58.837 -55.327  1.00  0.00     0.142 A 
HETATM   23  N   UNL     1     -45.623  58.931 -55.977  1.00  0.00    -0.222 NA
HETATM   24  C   UNL     1     -45.660  58.269 -57.164  1.00  0.00     0.116 A 
HETATM   25  C   UNL     1     -44.653  57.515 -57.726  1.00  0.00     0.075 A 
HETATM   26  S   UNL     1     -47.040  58.312 -58.156  1.00  0.00    -0.074 SA
HETATM   27  C   UNL     1     -45.009  56.967 -59.011  1.00  0.00    -0.027 A 
HETATM   28  C   UNL     1     -43.423  57.396 -56.970  1.00  0.00     0.260 A 
HETATM   29  C   UNL     1     -46.302  57.342 -59.358  1.00  0.00    -0.012 A 
HETATM   30  C   UNL     1     -47.063  57.004 -60.598  1.00  0.00     0.057 C 
HETATM   31  N   UNL     1     -43.427  58.092 -55.782  1.00  0.00    -0.307 N 
HETATM   32  O   UNL     1     -42.445  56.741 -57.320  1.00  0.00    -0.267 OA
HETATM   33  H   UNL     1     -42.586  57.978 -55.239  1.00  0.00     0.170 HD
BRANCH  27  34
HETATM   34  C   UNL     1     -44.105  56.118 -59.863  1.00  0.00     0.036 C 
HETATM   35  C   UNL     1     -44.317  54.631 -59.627  1.00  0.00     0.010 C 
ENDBRANCH  27  34
ENDBRANCH   1  22
TORSDOF 5
ENDMDL
MODEL 8
REMARK VINA RESULT:      -7.1     17.554     24.568
REMARK  5 active torsions:
REMARK  status: ('A' for Active; 'I' for Inactive)
REMARK    1  A    between atoms: C_2  and  C_3 
REMARK    2  A    between atoms: C_7  and  C_8 
REMARK    3  A    between atoms: C_11  and  C_12 
REMARK       I    between atoms: C_12  and  N_13 
REMARK    4  A    between atoms: N_13  and  C_14 
REMARK    5  A    between atoms: C_17  and  N_18 
REMARK       I    between atoms: N_18  and  C_19 
ROOT
HETATM    1  C   UNL     1     -45.344  57.619 -59.173  1.00  0.00     0.010 A 
HETATM    2  C   UNL     1     -45.292  58.285 -57.939  1.00  0.00     0.016 A 
HETATM    3  C   UNL     1     -44.411  57.862 -56.934  1.00  0.00     0.018 A 
HETATM    4  C   UNL     1     -43.577  56.761 -57.158  1.00  0.00     0.032 A 
HETATM    5  C   UNL     1     -43.608  56.114 -58.401  1.00  0.00     0.018 A 
HETATM    6  C   UNL     1     -44.483  56.540 -59.405  1.00  0.00     0.016 A 
ENDROOT
BRANCH   4   7
HETATM    7  C   UNL     1     -42.619  56.251 -56.133  1.00  0.00     0.256 C 
HETATM    8  N   UNL     1     -42.810  54.939 -55.739  1.00  0.00    -0.323 N 
HETATM    9  H   UNL     1     -43.550  54.421 -56.190  1.00  0.00     0.169 HD
HETATM   10  O   UNL     1     -41.728  57.007 -55.763  1.00  0.00    -0.267 OA
BRANCH   8  11
HETATM   11  C   UNL     1     -41.993  54.189 -54.863  1.00  0.00     0.035 A 
HETATM   12  C   UNL     1     -40.782  53.605 -55.228  1.00  0.00     0.032 A 
HETATM   13  C   UNL     1     -40.057  52.822 -54.315  1.00  0.00     0.032 A 
HETATM   14  C   UNL     1     -40.529  52.615 -53.022  1.00  0.00     0.034 A 
HETATM   15  C   UNL     1     -41.729  53.227 -52.643  1.00  0.00     0.032 A 
HETATM   16  C   UNL     1     -42.454  54.006 -53.555  1.00  0.00     0.032 A 
BRANCH  14  17
HETATM   17  N   UNL     1     -39.886  51.804 -52.065  1.00  0.00    -0.328 N 
HETATM   18  C   UNL     1     -39.667  50.440 -52.130  1.00  0.00     0.218 C 
HETATM   19  C   UNL     1     -39.010  49.902 -50.882  1.00  0.00     0.117 C 
HETATM   20  O   UNL     1     -39.928  49.693 -53.065  1.00  0.00    -0.274 OA
HETATM   21  H   UNL     1     -39.568  52.276 -51.228  1.00  0.00     0.169 HD
ENDBRANCH  14  17
ENDBRANCH   8  11
ENDBRANCH   4   7
BRANCH   1  22
HETATM   22  C   UNL     1     -46.287  58.114 -60.219  1.00  0.00     0.142 A 
HETATM   23  N   UNL     1     -46.323  59.377 -60.522  1.00  0.00    -0.222 NA
HETATM   24  C   UNL     1     -47.205  59.710 -61.502  1.00  0.00     0.116 A 
HETATM   25  C   UNL     1     -48.054  58.862 -62.180  1.00  0.00     0.075 A 
HETATM   26  S   UNL     1     -47.358  61.315 -62.042  1.00  0.00    -0.074 SA
HETATM   27  C   UNL     1     -48.843  59.536 -63.180  1.00  0.00    -0.027 A 
HETATM   28  C   UNL     1     -48.021  57.463 -61.803  1.00  0.00     0.260 A 
HETATM   29  C   UNL     1     -48.545  60.893 -63.202  1.00  0.00    -0.012 A 
HETATM   30  C   UNL     1     -49.120  61.954 -64.083  1.00  0.00     0.057 C 
HETATM   31  N   UNL     1     -47.106  57.171 -60.817  1.00  0.00    -0.307 N 
HETATM   32  O   UNL     1     -48.732  56.589 -62.291  1.00  0.00    -0.267 OA
HETATM   33  H   UNL     1     -47.110  56.205 -60.529  1.00  0.00     0.170 HD
BRANCH  27  34
HETATM   34  C   UNL     1     -49.842  58.863 -64.083  1.00  0.00     0.036 C 
HETATM   35  C   UNL     1     -51.270  59.020 -63.582  1.00  0.00     0.010 C 
ENDBRANCH  27  34
ENDBRANCH   1  22
TORSDOF 5
ENDMDL
MODEL 9
REMARK VINA RESULT:      -6.8     17.603     21.401
REMARK  5 active torsions:
REMARK  status: ('A' for Active; 'I' for Inactive)
REMARK    1  A    between atoms: C_2  and  C_3 
REMARK    2  A    between atoms: C_7  and  C_8 
REMARK    3  A    between atoms: C_11  and  C_12 
REMARK       I    between atoms: C_12  and  N_13 
REMARK    4  A    between atoms: N_13  and  C_14 
REMARK    5  A    between atoms: C_17  and  N_18 
REMARK       I    between atoms: N_18  and  C_19 
ROOT
HETATM    1  C   UNL     1     -42.931  55.867 -55.929  1.00  0.00     0.010 A 
HETATM    2  C   UNL     1     -42.843  55.301 -57.210  1.00  0.00     0.016 A 
HETATM    3  C   UNL     1     -43.363  55.972 -58.326  1.00  0.00     0.018 A 
HETATM    4  C   UNL     1     -43.982  57.216 -58.164  1.00  0.00     0.032 A 
HETATM    5  C   UNL     1     -44.043  57.795 -56.888  1.00  0.00     0.018 A 
HETATM    6  C   UNL     1     -43.520  57.127 -55.776  1.00  0.00     0.016 A 
ENDROOT
BRANCH   4   7
HETATM    7  C   UNL     1     -44.562  57.985 -59.304  1.00  0.00     0.256 C 
HETATM    8  N   UNL     1     -45.668  58.759 -59.000  1.00  0.00    -0.323 N 
HETATM    9  H   UNL     1     -45.976  58.772 -58.039  1.00  0.00     0.169 HD
HETATM   10  O   UNL     1     -43.995  57.907 -60.388  1.00  0.00    -0.267 OA
BRANCH   8  11
HETATM   11  C   UNL     1     -46.345  59.648 -59.865  1.00  0.00     0.035 A 
HETATM   12  C   UNL     1     -45.715  60.626 -60.632  1.00  0.00     0.032 A 
HETATM   13  C   UNL     1     -46.463  61.513 -61.421  1.00  0.00     0.032 A 
HETATM   14  C   UNL     1     -47.853  61.433 -61.462  1.00  0.00     0.034 A 
HETATM   15  C   UNL     1     -48.485  60.432 -60.717  1.00  0.00     0.032 A 
HETATM   16  C   UNL     1     -47.739  59.548 -59.927  1.00  0.00     0.032 A 
BRANCH  14  17
HETATM   17  N   UNL     1     -48.676  62.317 -62.189  1.00  0.00    -0.328 N 
HETATM   18  C   UNL     1     -49.256  62.099 -63.425  1.00  0.00     0.218 C 
HETATM   19  C   UNL     1     -50.014  63.305 -63.926  1.00  0.00     0.117 C 
HETATM   20  O   UNL     1     -49.222  61.069 -64.087  1.00  0.00    -0.274 OA
HETATM   21  H   UNL     1     -48.841  63.220 -61.762  1.00  0.00     0.169 HD
ENDBRANCH  14  17
ENDBRANCH   8  11
ENDBRANCH   4   7
BRANCH   1  22
HETATM   22  C   UNL     1     -42.351  55.123 -54.773  1.00  0.00     0.142 A 
HETATM   23  N   UNL     1     -41.689  54.022 -54.968  1.00  0.00    -0.222 NA
HETATM   24  C   UNL     1     -41.189  53.441 -53.845  1.00  0.00     0.116 A 
HETATM   25  C   UNL     1     -41.324  53.888 -52.548  1.00  0.00     0.075 A 
HETATM   26  S   UNL     1     -40.273  52.011 -53.925  1.00  0.00    -0.074 SA
HETATM   27  C   UNL     1     -40.649  53.049 -51.590  1.00  0.00    -0.027 A 
HETATM   28  C   UNL     1     -42.094  55.099 -52.349  1.00  0.00     0.260 A 
HETATM   29  C   UNL     1     -40.027  51.983 -52.230  1.00  0.00    -0.012 A 
HETATM   30  C   UNL     1     -39.216  50.884 -51.624  1.00  0.00     0.057 C 
HETATM   31  N   UNL     1     -42.569  55.658 -53.514  1.00  0.00    -0.307 N 
HETATM   32  O   UNL     1     -42.327  55.609 -51.257  1.00  0.00    -0.267 OA
HETATM   33  H   UNL     1     -43.136  56.479 -53.372  1.00  0.00     0.170 HD
BRANCH  27  34
HETATM   34  C   UNL     1     -40.610  53.299 -50.107  1.00  0.00     0.036 C 
HETATM   35  C   UNL     1     -39.502  54.265 -49.713  1.00  0.00     0.010 C 
ENDBRANCH  27  34
ENDBRANCH   1  22
TORSDOF 5
ENDMDL
MODEL 10
REMARK VINA RESULT:      -6.7      2.413      2.999
REMARK  5 active torsions:
REMARK  status: ('A' for Active; 'I' for Inactive)
REMARK    1  A    between atoms: C_2  and  C_3 
REMARK    2  A    between atoms: C_7  and  C_8 
REMARK    3  A    between atoms: C_11  and  C_12 
REMARK       I    between atoms: C_12  and  N_13 
REMARK    4  A    between atoms: N_13  and  C_14 
REMARK    5  A    between atoms: C_17  and  N_18 
REMARK       I    between atoms: N_18  and  C_19 
ROOT
HETATM    1  C   UNL     1     -33.139  39.711 -50.189  1.00  0.00     0.010 A 
HETATM    2  C   UNL     1     -33.544  41.034 -50.418  1.00  0.00     0.016 A 
HETATM    3  C   UNL     1     -34.149  41.397 -51.629  1.00  0.00     0.018 A 
HETATM    4  C   UNL     1     -34.347  40.435 -52.624  1.00  0.00     0.032 A 
HETATM    5  C   UNL     1     -33.970  39.106 -52.383  1.00  0.00     0.018 A 
HETATM    6  C   UNL     1     -33.371  38.743 -51.173  1.00  0.00     0.016 A 
ENDROOT
BRANCH   4   7
HETATM    7  C   UNL     1     -34.980  40.750 -53.939  1.00  0.00     0.256 C 
HETATM    8  N   UNL     1     -35.247  39.660 -54.749  1.00  0.00    -0.323 N 
HETATM    9  H   UNL     1     -35.029  38.745 -54.384  1.00  0.00     0.169 HD
HETATM   10  O   UNL     1     -35.249  41.923 -54.173  1.00  0.00    -0.267 OA
BRANCH   8  11
HETATM   11  C   UNL     1     -35.921  39.671 -55.991  1.00  0.00     0.035 A 
HETATM   12  C   UNL     1     -37.277  39.955 -56.144  1.00  0.00     0.032 A 
HETATM   13  C   UNL     1     -37.888  39.885 -57.405  1.00  0.00     0.032 A 
HETATM   14  C   UNL     1     -37.153  39.538 -58.536  1.00  0.00     0.034 A 
HETATM   15  C   UNL     1     -35.785  39.284 -58.389  1.00  0.00     0.032 A 
HETATM   16  C   UNL     1     -35.175  39.350 -57.130  1.00  0.00     0.032 A 
BRANCH  14  17
HETATM   17  N   UNL     1     -37.703  39.398 -59.826  1.00  0.00    -0.328 N 
HETATM   18  C   UNL     1     -38.140  38.235 -60.432  1.00  0.00     0.218 C 
HETATM   19  C   UNL     1     -38.601  38.463 -61.852  1.00  0.00     0.117 C 
HETATM   20  O   UNL     1     -38.198  37.118 -59.934  1.00  0.00    -0.274 OA
HETATM   21  H   UNL     1     -37.763  40.248 -60.374  1.00  0.00     0.169 HD
ENDBRANCH  14  17
ENDBRANCH   8  11
ENDBRANCH   4   7
BRANCH   1  22
HETATM   22  C   UNL     1     -32.512  39.366 -48.879  1.00  0.00     0.142 A 
HETATM   23  N   UNL     1     -31.551  40.098 -48.400  1.00  0.00    -0.222 NA
HETATM   24  C   UNL     1     -31.069  39.703 -47.193  1.00  0.00     0.116 A 
HETATM   25  C   UNL     1     -31.481  38.618 -46.448  1.00  0.00     0.075 A 
HETATM   26  S   UNL     1     -29.831  40.567 -46.410  1.00  0.00    -0.074 SA
HETATM   27  C   UNL     1     -30.779  38.494 -45.196  1.00  0.00    -0.027 A 
HETATM   28  C   UNL     1     -32.531  37.795 -47.015  1.00  0.00     0.260 A 
HETATM   29  C   UNL     1     -29.846  39.515 -45.059  1.00  0.00    -0.012 A 
HETATM   30  C   UNL     1     -28.913  39.771 -43.920  1.00  0.00     0.057 C 
HETATM   31  N   UNL     1     -32.996  38.241 -48.231  1.00  0.00    -0.307 N 
HETATM   32  O   UNL     1     -32.989  36.784 -46.491  1.00  0.00    -0.267 OA
HETATM   33  H   UNL     1     -33.699  37.648 -48.643  1.00  0.00     0.170 HD
BRANCH  27  34
HETATM   34  C   UNL     1     -31.029  37.418 -44.174  1.00  0.00     0.036 C 
HETATM   35  C   UNL     1     -32.018  37.857 -43.105  1.00  0.00     0.010 C 
ENDBRANCH  27  34
ENDBRANCH   1  22
TORSDOF 5
ENDMDL
