MODEL 1
REMARK VINA RESULT:      -9.3      0.000      0.000
REMARK  8 active torsions:
REMARK  status: ('A' for Active; 'I' for Inactive)
REMARK    1  A    between atoms: C_4  and  S_5 
REMARK    2  A    between atoms: S_5  and  C_6 
REMARK    3  A    between atoms: C_6  and  C_7 
REMARK       I    between atoms: C_7  and  N_8 
REMARK    4  A    between atoms: N_8  and  C_9 
REMARK    5  A    between atoms: C_11  and  C_12 
REMARK    6  A    between atoms: C_23  and  C_24 
REMARK    7  A    between atoms: C_30  and  C_31 
REMARK       I    between atoms: C_31  and  N_32 
REMARK    8  A    between atoms: N_32  and  C_33 
ROOT
HETATM    1  C   UNL     1     -43.250  54.673 -54.010  1.00  0.00     0.069 C 
HETATM    2  C   UNL     1     -42.985  55.999 -53.338  1.00  0.00     0.019 C 
HETATM    3  N   UNL     1     -42.364  55.920 -52.100  1.00  0.00    -0.353 N 
HETATM    4  C   UNL     1     -41.830  56.999 -51.420  1.00  0.00     0.087 C 
HETATM    5  C   UNL     1     -42.150  58.249 -51.824  1.00  0.00     0.055 C 
HETATM    6  C   UNL     1     -41.743  59.480 -51.030  1.00  0.00     0.019 C 
HETATM    7  N   UNL     1     -41.405  60.501 -50.372  1.00  0.00    -0.096 N 
HETATM    8  C   UNL     1     -43.023  58.483 -53.059  1.00  0.00     0.104 C 
HETATM    9  C   UNL     1     -43.287  57.210 -53.866  1.00  0.00     0.046 C 
HETATM   10  H   UNL     1     -41.944  55.023 -51.860  1.00  0.00     0.166 HD
ENDROOT
BRANCH   4  11
HETATM   11  S   UNL     1     -40.638  56.711 -50.170  1.00  0.00    -0.102 SA
BRANCH  11  12
HETATM   12  C   UNL     1     -41.395  55.373 -49.194  1.00  0.00     0.184 C 
BRANCH  12  13
HETATM   13  C   UNL     1     -41.544  54.065 -49.983  1.00  0.00     0.231 C 
HETATM   14  N   UNL     1     -40.370  53.368 -50.194  1.00  0.00    -0.327 N 
HETATM   15  H   UNL     1     -39.532  53.830 -49.854  1.00  0.00     0.169 HD
HETATM   16  O   UNL     1     -42.659  53.712 -50.364  1.00  0.00    -0.272 OA
BRANCH  14  17
HETATM   17  C   UNL     1     -40.174  52.133 -50.841  1.00  0.00     0.035 A 
HETATM   18  C   UNL     1     -40.111  51.977 -52.227  1.00  0.00     0.045 A 
HETATM   19  C   UNL     1     -39.930  50.703 -52.798  1.00  0.00     0.050 A 
HETATM   20  C   UNL     1     -39.788  49.588 -51.958  1.00  0.00     0.016 A 
HETATM   21  C   UNL     1     -39.849  49.738 -50.576  1.00  0.00     0.003 A 
HETATM   22  C   UNL     1     -40.048  51.004 -50.023  1.00  0.00     0.029 A 
BRANCH  19  23
HETATM   23  C   UNL     1     -39.854  50.534 -54.296  1.00  0.00     0.417 C 
HETATM   24  F   UNL     1     -38.735  49.883 -54.718  1.00  0.00    -0.166 F 
HETATM   25  F   UNL     1     -40.910  49.832 -54.792  1.00  0.00    -0.166 F 
HETATM   26  F   UNL     1     -39.858  51.726 -54.958  1.00  0.00    -0.166 F 
ENDBRANCH  19  23
ENDBRANCH  14  17
ENDBRANCH  12  13
ENDBRANCH  11  12
ENDBRANCH   4  11
BRANCH   8  27
HETATM   27  C   UNL     1     -44.304  59.219 -52.667  1.00  0.00    -0.042 A 
HETATM   28  C   UNL     1     -45.118  58.709 -51.644  1.00  0.00     0.027 A 
HETATM   29  C   UNL     1     -46.276  59.392 -51.310  1.00  0.00     0.116 A 
HETATM   30  N   UNL     1     -46.667  60.535 -51.909  1.00  0.00    -0.273 NA
HETATM   31  C   UNL     1     -45.888  61.002 -52.907  1.00  0.00     0.116 A 
HETATM   32  C   UNL     1     -44.717  60.386 -53.322  1.00  0.00     0.027 A 
ENDBRANCH   8  27
BRANCH   9  33
HETATM   33  C   UNL     1     -43.617  57.312 -55.330  1.00  0.00     0.255 C 
HETATM   34  N   UNL     1     -42.556  57.141 -56.191  1.00  0.00    -0.323 N 
HETATM   35  H   UNL     1     -41.630  57.035 -55.803  1.00  0.00     0.169 HD
HETATM   36  O   UNL     1     -44.788  57.459 -55.667  1.00  0.00    -0.268 OA
BRANCH  34  37
HETATM   37  C   UNL     1     -42.609  57.064 -57.601  1.00  0.00     0.035 A 
HETATM   38  C   UNL     1     -42.211  58.092 -58.459  1.00  0.00     0.029 A 
HETATM   39  C   UNL     1     -42.313  57.940 -59.846  1.00  0.00     0.002 A 
HETATM   40  C   UNL     1     -42.823  56.763 -60.387  1.00  0.00     0.000 A 
HETATM   41  C   UNL     1     -43.220  55.731 -59.543  1.00  0.00     0.002 A 
HETATM   42  C   UNL     1     -43.104  55.876 -58.157  1.00  0.00     0.029 A 
ENDBRANCH  34  37
ENDBRANCH   9  33
TORSDOF 8
ENDMDL
MODEL 2
REMARK VINA RESULT:      -9.2      3.424      7.975
REMARK  8 active torsions:
REMARK  status: ('A' for Active; 'I' for Inactive)
REMARK    1  A    between atoms: C_4  and  S_5 
REMARK    2  A    between atoms: S_5  and  C_6 
REMARK    3  A    between atoms: C_6  and  C_7 
REMARK       I    between atoms: C_7  and  N_8 
REMARK    4  A    between atoms: N_8  and  C_9 
REMARK    5  A    between atoms: C_11  and  C_12 
REMARK    6  A    between atoms: C_23  and  C_24 
REMARK    7  A    between atoms: C_30  and  C_31 
REMARK       I    between atoms: C_31  and  N_32 
REMARK    8  A    between atoms: N_32  and  C_33 
ROOT
HETATM    1  C   UNL     1     -42.859  56.100 -56.570  1.00  0.00     0.069 C 
HETATM    2  C   UNL     1     -43.101  57.026 -55.402  1.00  0.00     0.019 C 
HETATM    3  N   UNL     1     -43.683  58.243 -55.724  1.00  0.00    -0.353 N 
HETATM    4  C   UNL     1     -44.196  59.136 -54.802  1.00  0.00     0.087 C 
HETATM    5  C   UNL     1     -43.886  58.975 -53.495  1.00  0.00     0.055 C 
HETATM    6  C   UNL     1     -44.267  60.006 -52.445  1.00  0.00     0.019 C 
HETATM    7  N   UNL     1     -44.582  60.861 -51.574  1.00  0.00    -0.096 N 
HETATM    8  C   UNL     1     -43.050  57.783 -53.020  1.00  0.00     0.104 C 
HETATM    9  C   UNL     1     -42.814  56.736 -54.110  1.00  0.00     0.046 C 
HETATM   10  H   UNL     1     -44.097  58.315 -56.653  1.00  0.00     0.166 HD
ENDROOT
BRANCH   4  11
HETATM   11  S   UNL     1     -45.348  60.341 -55.333  1.00  0.00    -0.102 SA
BRANCH  11  12
HETATM   12  C   UNL     1     -44.618  60.938 -56.891  1.00  0.00     0.184 C 
BRANCH  12  13
HETATM   13  C   UNL     1     -44.564  59.857 -57.980  1.00  0.00     0.231 C 
HETATM   14  N   UNL     1     -45.748  59.179 -58.195  1.00  0.00    -0.327 N 
HETATM   15  H   UNL     1     -46.504  59.430 -57.566  1.00  0.00     0.169 HD
HETATM   16  O   UNL     1     -43.514  59.666 -58.591  1.00  0.00    -0.272 OA
BRANCH  14  17
HETATM   17  C   UNL     1     -46.037  58.170 -59.134  1.00  0.00     0.035 A 
HETATM   18  C   UNL     1     -45.299  56.992 -59.269  1.00  0.00     0.045 A 
HETATM   19  C   UNL     1     -45.642  56.040 -60.246  1.00  0.00     0.050 A 
HETATM   20  C   UNL     1     -46.753  56.272 -61.072  1.00  0.00     0.016 A 
HETATM   21  C   UNL     1     -47.492  57.444 -60.941  1.00  0.00     0.003 A 
HETATM   22  C   UNL     1     -47.130  58.390 -59.981  1.00  0.00     0.029 A 
BRANCH  19  23
HETATM   23  C   UNL     1     -44.851  54.762 -60.388  1.00  0.00     0.417 C 
HETATM   24  F   UNL     1     -45.331  53.733 -59.639  1.00  0.00    -0.166 F 
HETATM   25  F   UNL     1     -44.820  54.313 -61.673  1.00  0.00    -0.166 F 
HETATM   26  F   UNL     1     -43.547  54.911 -60.017  1.00  0.00    -0.166 F 
ENDBRANCH  19  23
ENDBRANCH  14  17
ENDBRANCH  12  13
ENDBRANCH  11  12
ENDBRANCH   4  11
BRANCH   8  27
HETATM   27  C   UNL     1     -41.757  58.273 -52.370  1.00  0.00    -0.042 A 
HETATM   28  C   UNL     1     -40.706  58.745 -53.170  1.00  0.00     0.027 A 
HETATM   29  C   UNL     1     -39.543  59.180 -52.557  1.00  0.00     0.116 A 
HETATM   30  N   UNL     1     -39.361  59.185 -51.221  1.00  0.00    -0.273 NA
HETATM   31  C   UNL     1     -40.370  58.706 -50.463  1.00  0.00     0.116 A 
HETATM   32  C   UNL     1     -41.568  58.240 -50.982  1.00  0.00     0.027 A 
ENDBRANCH   8  27
BRANCH   9  33
HETATM   33  C   UNL     1     -42.528  55.311 -53.722  1.00  0.00     0.255 C 
HETATM   34  N   UNL     1     -41.196  54.969 -53.655  1.00  0.00    -0.323 N 
HETATM   35  H   UNL     1     -40.507  55.652 -53.935  1.00  0.00     0.169 HD
HETATM   36  O   UNL     1     -43.465  54.576 -53.421  1.00  0.00    -0.268 OA
BRANCH  34  37
HETATM   37  C   UNL     1     -40.652  53.747 -53.201  1.00  0.00     0.035 A 
HETATM   38  C   UNL     1     -40.418  53.442 -51.858  1.00  0.00     0.029 A 
HETATM   39  C   UNL     1     -39.859  52.213 -51.494  1.00  0.00     0.002 A 
HETATM   40  C   UNL     1     -39.518  51.281 -52.471  1.00  0.00     0.000 A 
HETATM   41  C   UNL     1     -39.749  51.572 -53.812  1.00  0.00     0.002 A 
HETATM   42  C   UNL     1     -40.322  52.794 -54.175  1.00  0.00     0.029 A 
ENDBRANCH  34  37
ENDBRANCH   9  33
TORSDOF 8
ENDMDL
MODEL 3
REMARK VINA RESULT:      -9.1      2.993      6.458
REMARK  8 active torsions:
REMARK  status: ('A' for Active; 'I' for Inactive)
REMARK    1  A    between atoms: C_4  and  S_5 
REMARK    2  A    between atoms: S_5  and  C_6 
REMARK    3  A    between atoms: C_6  and  C_7 
REMARK       I    between atoms: C_7  and  N_8 
REMARK    4  A    between atoms: N_8  and  C_9 
REMARK    5  A    between atoms: C_11  and  C_12 
REMARK    6  A    between atoms: C_23  and  C_24 
REMARK    7  A    between atoms: C_30  and  C_31 
REMARK       I    between atoms: C_31  and  N_32 
REMARK    8  A    between atoms: N_32  and  C_33 
ROOT
HETATM    1  C   UNL     1     -43.267  57.535 -50.978  1.00  0.00     0.069 C 
HETATM    2  C   UNL     1     -43.878  58.292 -52.133  1.00  0.00     0.019 C 
HETATM    3  N   UNL     1     -43.487  57.864 -53.393  1.00  0.00    -0.353 N 
HETATM    4  C   UNL     1     -44.086  58.257 -54.576  1.00  0.00     0.087 C 
HETATM    5  C   UNL     1     -44.921  59.321 -54.564  1.00  0.00     0.055 C 
HETATM    6  C   UNL     1     -45.483  59.916 -55.844  1.00  0.00     0.019 C 
HETATM    7  N   UNL     1     -45.949  60.411 -56.906  1.00  0.00    -0.096 N 
HETATM    8  C   UNL     1     -45.270  60.038 -53.258  1.00  0.00     0.104 C 
HETATM    9  C   UNL     1     -44.767  59.308 -52.010  1.00  0.00     0.046 C 
HETATM   10  H   UNL     1     -43.020  56.960 -53.439  1.00  0.00     0.166 HD
ENDROOT
BRANCH   4  11
HETATM   11  S   UNL     1     -43.870  57.272 -56.007  1.00  0.00    -0.102 SA
BRANCH  11  12
HETATM   12  C   UNL     1     -42.195  56.594 -55.779  1.00  0.00     0.184 C 
BRANCH  12  13
HETATM   13  C   UNL     1     -42.172  55.332 -54.905  1.00  0.00     0.231 C 
HETATM   14  N   UNL     1     -40.914  54.885 -54.551  1.00  0.00    -0.327 N 
HETATM   15  H   UNL     1     -40.145  55.406 -54.959  1.00  0.00     0.169 HD
HETATM   16  O   UNL     1     -43.234  54.811 -54.569  1.00  0.00    -0.272 OA
BRANCH  14  17
HETATM   17  C   UNL     1     -40.556  53.791 -53.739  1.00  0.00     0.035 A 
HETATM   18  C   UNL     1     -40.343  52.497 -54.218  1.00  0.00     0.045 A 
HETATM   19  C   UNL     1     -40.005  51.453 -53.336  1.00  0.00     0.050 A 
HETATM   20  C   UNL     1     -39.858  51.730 -51.969  1.00  0.00     0.016 A 
HETATM   21  C   UNL     1     -40.069  53.018 -51.486  1.00  0.00     0.003 A 
HETATM   22  C   UNL     1     -40.423  54.040 -52.367  1.00  0.00     0.029 A 
BRANCH  19  23
HETATM   23  C   UNL     1     -39.766  50.055 -53.853  1.00  0.00     0.417 C 
HETATM   24  F   UNL     1     -39.569  49.134 -52.871  1.00  0.00    -0.166 F 
HETATM   25  F   UNL     1     -40.807  49.595 -54.600  1.00  0.00    -0.166 F 
HETATM   26  F   UNL     1     -38.668  49.975 -54.658  1.00  0.00    -0.166 F 
ENDBRANCH  19  23
ENDBRANCH  14  17
ENDBRANCH  12  13
ENDBRANCH  11  12
ENDBRANCH   4  11
BRANCH   8  27
HETATM   27  C   UNL     1     -44.816  61.496 -53.321  1.00  0.00    -0.042 A 
HETATM   28  C   UNL     1     -43.450  61.801 -53.423  1.00  0.00     0.027 A 
HETATM   29  C   UNL     1     -43.065  63.130 -53.476  1.00  0.00     0.116 A 
HETATM   30  N   UNL     1     -43.933  64.160 -53.442  1.00  0.00    -0.273 NA
HETATM   31  C   UNL     1     -45.242  63.855 -53.319  1.00  0.00     0.116 A 
HETATM   32  C   UNL     1     -45.726  62.559 -53.249  1.00  0.00     0.027 A 
ENDBRANCH   8  27
BRANCH   9  33
HETATM   33  C   UNL     1     -45.456  59.528 -50.691  1.00  0.00     0.255 C 
HETATM   34  N   UNL     1     -45.084  60.664 -50.009  1.00  0.00    -0.323 N 
HETATM   35  H   UNL     1     -44.337  61.230 -50.384  1.00  0.00     0.169 HD
HETATM   36  O   UNL     1     -46.339  58.748 -50.344  1.00  0.00    -0.268 OA
BRANCH  34  37
HETATM   37  C   UNL     1     -45.657  61.169 -48.820  1.00  0.00     0.035 A 
HETATM   38  C   UNL     1     -45.393  60.665 -47.545  1.00  0.00     0.029 A 
HETATM   39  C   UNL     1     -46.017  61.212 -46.420  1.00  0.00     0.002 A 
HETATM   40  C   UNL     1     -46.921  62.262 -46.561  1.00  0.00     0.000 A 
HETATM   41  C   UNL     1     -47.190  62.775 -47.826  1.00  0.00     0.002 A 
HETATM   42  C   UNL     1     -46.554  62.238 -48.949  1.00  0.00     0.029 A 
ENDBRANCH  34  37
ENDBRANCH   9  33
TORSDOF 8
ENDMDL
MODEL 4
REMARK VINA RESULT:      -8.7      4.879      8.860
REMARK  8 active torsions:
REMARK  status: ('A' for Active; 'I' for Inactive)
REMARK    1  A    between atoms: C_4  and  S_5 
REMARK    2  A    between atoms: S_5  and  C_6 
REMARK    3  A    between atoms: C_6  and  C_7 
REMARK       I    between atoms: C_7  and  N_8 
REMARK    4  A    between atoms: N_8  and  C_9 
REMARK    5  A    between atoms: C_11  and  C_12 
REMARK    6  A    between atoms: C_23  and  C_24 
REMARK    7  A    between atoms: C_30  and  C_31 
REMARK       I    between atoms: C_31  and  N_32 
REMARK    8  A    between atoms: N_32  and  C_33 
ROOT
HETATM    1  C   UNL     1     -43.944  56.324 -52.357  1.00  0.00     0.069 C 
HETATM    2  C   UNL     1     -43.466  57.038 -53.599  1.00  0.00     0.019 C 
HETATM    3  N   UNL     1     -43.592  58.419 -53.572  1.00  0.00    -0.353 N 
HETATM    4  C   UNL     1     -43.017  59.278 -54.491  1.00  0.00     0.087 C 
HETATM    5  C   UNL     1     -42.528  58.768 -55.644  1.00  0.00     0.055 C 
HETATM    6  C   UNL     1     -42.037  59.659 -56.773  1.00  0.00     0.019 C 
HETATM    7  N   UNL     1     -41.631  60.398 -57.710  1.00  0.00    -0.096 N 
HETATM    8  C   UNL     1     -42.529  57.260 -55.906  1.00  0.00     0.104 C 
HETATM    9  C   UNL     1     -42.921  56.431 -54.682  1.00  0.00     0.046 C 
HETATM   10  H   UNL     1     -43.773  58.839 -52.661  1.00  0.00     0.166 HD
ENDROOT
BRANCH   4  11
HETATM   11  S   UNL     1     -42.801  60.961 -54.063  1.00  0.00    -0.102 SA
BRANCH  11  12
HETATM   12  C   UNL     1     -42.371  60.875 -52.295  1.00  0.00     0.184 C 
BRANCH  12  13
HETATM   13  C   UNL     1     -43.584  61.064 -51.373  1.00  0.00     0.231 C 
HETATM   14  N   UNL     1     -43.299  61.595 -50.130  1.00  0.00    -0.327 N 
HETATM   15  H   UNL     1     -42.313  61.745 -49.944  1.00  0.00     0.169 HD
HETATM   16  O   UNL     1     -44.704  60.756 -51.776  1.00  0.00    -0.272 OA
BRANCH  14  17
HETATM   17  C   UNL     1     -44.181  61.921 -49.081  1.00  0.00     0.035 A 
HETATM   18  C   UNL     1     -44.765  60.982 -48.229  1.00  0.00     0.045 A 
HETATM   19  C   UNL     1     -45.651  61.388 -47.214  1.00  0.00     0.050 A 
HETATM   20  C   UNL     1     -45.925  62.754 -47.047  1.00  0.00     0.016 A 
HETATM   21  C   UNL     1     -45.344  63.694 -47.893  1.00  0.00     0.003 A 
HETATM   22  C   UNL     1     -44.483  63.278 -48.908  1.00  0.00     0.029 A 
BRANCH  19  23
HETATM   23  C   UNL     1     -46.278  60.374 -46.287  1.00  0.00     0.417 C 
HETATM   24  F   UNL     1     -46.403  59.134 -46.834  1.00  0.00    -0.166 F 
HETATM   25  F   UNL     1     -45.565  60.212 -45.139  1.00  0.00    -0.166 F 
HETATM   26  F   UNL     1     -47.534  60.731 -45.894  1.00  0.00    -0.166 F 
ENDBRANCH  19  23
ENDBRANCH  14  17
ENDBRANCH  12  13
ENDBRANCH  11  12
ENDBRANCH   4  11
BRANCH   8  27
HETATM   27  C   UNL     1     -43.373  56.941 -57.140  1.00  0.00    -0.042 A 
HETATM   28  C   UNL     1     -42.958  55.941 -58.033  1.00  0.00     0.027 A 
HETATM   29  C   UNL     1     -43.738  55.674 -59.145  1.00  0.00     0.116 A 
HETATM   30  N   UNL     1     -44.890  56.318 -59.421  1.00  0.00    -0.273 NA
HETATM   31  C   UNL     1     -45.266  57.294 -58.568  1.00  0.00     0.116 A 
HETATM   32  C   UNL     1     -44.550  57.642 -57.433  1.00  0.00     0.027 A 
ENDBRANCH   8  27
BRANCH   9  33
HETATM   33  C   UNL     1     -42.457  55.004 -54.569  1.00  0.00     0.255 C 
HETATM   34  N   UNL     1     -41.273  54.817 -53.893  1.00  0.00    -0.323 N 
HETATM   35  H   UNL     1     -40.758  55.629 -53.585  1.00  0.00     0.169 HD
HETATM   36  O   UNL     1     -43.176  54.108 -55.003  1.00  0.00    -0.268 OA
BRANCH  34  37
HETATM   37  C   UNL     1     -40.680  53.584 -53.538  1.00  0.00     0.035 A 
HETATM   38  C   UNL     1     -40.403  52.557 -54.443  1.00  0.00     0.029 A 
HETATM   39  C   UNL     1     -39.831  51.359 -54.005  1.00  0.00     0.002 A 
HETATM   40  C   UNL     1     -39.541  51.172 -52.656  1.00  0.00     0.000 A 
HETATM   41  C   UNL     1     -39.810  52.189 -51.745  1.00  0.00     0.002 A 
HETATM   42  C   UNL     1     -40.368  53.393 -52.185  1.00  0.00     0.029 A 
ENDBRANCH  34  37
ENDBRANCH   9  33
TORSDOF 8
ENDMDL
MODEL 5
REMARK VINA RESULT:      -8.6      3.594      8.011
REMARK  8 active torsions:
REMARK  status: ('A' for Active; 'I' for Inactive)
REMARK    1  A    between atoms: C_4  and  S_5 
REMARK    2  A    between atoms: S_5  and  C_6 
REMARK    3  A    between atoms: C_6  and  C_7 
REMARK       I    between atoms: C_7  and  N_8 
REMARK    4  A    between atoms: N_8  and  C_9 
REMARK    5  A    between atoms: C_11  and  C_12 
REMARK    6  A    between atoms: C_23  and  C_24 
REMARK    7  A    between atoms: C_30  and  C_31 
REMARK       I    between atoms: C_31  and  N_32 
REMARK    8  A    between atoms: N_32  and  C_33 
ROOT
HETATM    1  C   UNL     1     -43.858  57.503 -54.106  1.00  0.00     0.069 C 
HETATM    2  C   UNL     1     -43.493  57.718 -55.555  1.00  0.00     0.019 C 
HETATM    3  N   UNL     1     -43.549  59.035 -55.989  1.00  0.00    -0.353 N 
HETATM    4  C   UNL     1     -43.044  59.485 -57.195  1.00  0.00     0.087 C 
HETATM    5  C   UNL     1     -42.716  58.580 -58.145  1.00  0.00     0.055 C 
HETATM    6  C   UNL     1     -42.317  58.999 -59.551  1.00  0.00     0.019 C 
HETATM    7  N   UNL     1     -41.987  59.345 -60.717  1.00  0.00    -0.096 N 
HETATM    8  C   UNL     1     -42.820  57.077 -57.876  1.00  0.00     0.104 C 
HETATM    9  C   UNL     1     -43.107  56.741 -56.411  1.00  0.00     0.046 C 
HETATM   10  H   UNL     1     -43.603  59.749 -55.264  1.00  0.00     0.166 HD
ENDROOT
BRANCH   4  11
HETATM   11  S   UNL     1     -42.699  61.190 -57.389  1.00  0.00    -0.102 SA
BRANCH  11  12
HETATM   12  C   UNL     1     -43.973  61.979 -56.354  1.00  0.00     0.184 C 
BRANCH  12  13
HETATM   13  C   UNL     1     -44.011  61.424 -54.923  1.00  0.00     0.231 C 
HETATM   14  N   UNL     1     -42.804  61.449 -54.251  1.00  0.00    -0.327 N 
HETATM   15  H   UNL     1     -42.016  61.775 -54.801  1.00  0.00     0.169 HD
HETATM   16  O   UNL     1     -45.074  61.013 -54.461  1.00  0.00    -0.272 OA
BRANCH  14  17
HETATM   17  C   UNL     1     -42.513  61.052 -52.932  1.00  0.00     0.035 A 
HETATM   18  C   UNL     1     -41.756  59.927 -52.601  1.00  0.00     0.045 A 
HETATM   19  C   UNL     1     -41.525  59.588 -51.255  1.00  0.00     0.050 A 
HETATM   20  C   UNL     1     -42.045  60.408 -50.242  1.00  0.00     0.016 A 
HETATM   21  C   UNL     1     -42.801  61.531 -50.565  1.00  0.00     0.003 A 
HETATM   22  C   UNL     1     -43.039  61.845 -51.904  1.00  0.00     0.029 A 
BRANCH  19  23
HETATM   23  C   UNL     1     -40.700  58.377 -50.895  1.00  0.00     0.417 C 
HETATM   24  F   UNL     1     -40.730  57.393 -51.835  1.00  0.00    -0.166 F 
HETATM   25  F   UNL     1     -39.386  58.682 -50.710  1.00  0.00    -0.166 F 
HETATM   26  F   UNL     1     -41.110  57.789 -49.735  1.00  0.00    -0.166 F 
ENDBRANCH  19  23
ENDBRANCH  14  17
ENDBRANCH  12  13
ENDBRANCH  11  12
ENDBRANCH   4  11
BRANCH   8  27
HETATM   27  C   UNL     1     -43.815  56.437 -58.843  1.00  0.00    -0.042 A 
HETATM   28  C   UNL     1     -43.460  55.274 -59.545  1.00  0.00     0.027 A 
HETATM   29  C   UNL     1     -44.379  54.715 -60.418  1.00  0.00     0.116 A 
HETATM   30  N   UNL     1     -45.609  55.222 -60.631  1.00  0.00    -0.273 NA
HETATM   31  C   UNL     1     -45.930  56.354 -59.969  1.00  0.00     0.116 A 
HETATM   32  C   UNL     1     -45.078  56.993 -59.082  1.00  0.00     0.027 A 
ENDBRANCH   8  27
BRANCH   9  33
HETATM   33  C   UNL     1     -42.702  55.400 -55.862  1.00  0.00     0.255 C 
HETATM   34  N   UNL     1     -41.549  55.391 -55.109  1.00  0.00    -0.323 N 
HETATM   35  H   UNL     1     -41.015  56.244 -55.032  1.00  0.00     0.169 HD
HETATM   36  O   UNL     1     -43.438  54.435 -56.045  1.00  0.00    -0.268 OA
BRANCH  34  37
HETATM   37  C   UNL     1     -41.017  54.304 -54.380  1.00  0.00     0.035 A 
HETATM   38  C   UNL     1     -40.353  53.220 -54.960  1.00  0.00     0.029 A 
HETATM   39  C   UNL     1     -39.872  52.174 -54.166  1.00  0.00     0.002 A 
HETATM   40  C   UNL     1     -40.060  52.196 -52.786  1.00  0.00     0.000 A 
HETATM   41  C   UNL     1     -40.717  53.272 -52.197  1.00  0.00     0.002 A 
HETATM   42  C   UNL     1     -41.184  54.325 -52.989  1.00  0.00     0.029 A 
ENDBRANCH  34  37
ENDBRANCH   9  33
TORSDOF 8
ENDMDL
MODEL 6
REMARK VINA RESULT:      -8.5      2.945      5.058
REMARK  8 active torsions:
REMARK  status: ('A' for Active; 'I' for Inactive)
REMARK    1  A    between atoms: C_4  and  S_5 
REMARK    2  A    between atoms: S_5  and  C_6 
REMARK    3  A    between atoms: C_6  and  C_7 
REMARK       I    between atoms: C_7  and  N_8 
REMARK    4  A    between atoms: N_8  and  C_9 
REMARK    5  A    between atoms: C_11  and  C_12 
REMARK    6  A    between atoms: C_23  and  C_24 
REMARK    7  A    between atoms: C_30  and  C_31 
REMARK       I    between atoms: C_31  and  N_32 
REMARK    8  A    between atoms: N_32  and  C_33 
ROOT
HETATM    1  C   UNL     1     -44.318  60.888 -55.140  1.00  0.00     0.069 C 
HETATM    2  C   UNL     1     -43.750  59.511 -55.388  1.00  0.00     0.019 C 
HETATM    3  N   UNL     1     -42.614  59.200 -54.654  1.00  0.00    -0.353 N 
HETATM    4  C   UNL     1     -42.067  57.934 -54.554  1.00  0.00     0.087 C 
HETATM    5  C   UNL     1     -42.473  56.977 -55.419  1.00  0.00     0.055 C 
HETATM    6  C   UNL     1     -41.802  55.615 -55.484  1.00  0.00     0.019 C 
HETATM    7  N   UNL     1     -41.245  54.485 -55.539  1.00  0.00    -0.096 N 
HETATM    8  C   UNL     1     -43.576  57.252 -56.444  1.00  0.00     0.104 C 
HETATM    9  C   UNL     1     -44.280  58.594 -56.233  1.00  0.00     0.046 C 
HETATM   10  H   UNL     1     -42.401  59.813 -53.868  1.00  0.00     0.166 HD
ENDROOT
BRANCH   4  11
HETATM   11  S   UNL     1     -40.995  57.574 -53.218  1.00  0.00    -0.102 SA
BRANCH  11  12
HETATM   12  C   UNL     1     -42.114  56.817 -51.997  1.00  0.00     0.184 C 
BRANCH  12  13
HETATM   13  C   UNL     1     -42.098  55.283 -52.039  1.00  0.00     0.231 C 
HETATM   14  N   UNL     1     -40.847  54.705 -51.951  1.00  0.00    -0.327 N 
HETATM   15  H   UNL     1     -40.073  55.361 -51.928  1.00  0.00     0.169 HD
HETATM   16  O   UNL     1     -43.160  54.670 -52.135  1.00  0.00    -0.272 OA
BRANCH  14  17
HETATM   17  C   UNL     1     -40.498  53.340 -51.925  1.00  0.00     0.035 A 
HETATM   18  C   UNL     1     -40.350  52.549 -53.065  1.00  0.00     0.045 A 
HETATM   19  C   UNL     1     -40.016  51.186 -52.954  1.00  0.00     0.050 A 
HETATM   20  C   UNL     1     -39.809  50.632 -51.681  1.00  0.00     0.016 A 
HETATM   21  C   UNL     1     -39.955  51.417 -50.541  1.00  0.00     0.003 A 
HETATM   22  C   UNL     1     -40.305  52.762 -50.665  1.00  0.00     0.029 A 
BRANCH  19  23
HETATM   23  C   UNL     1     -39.848  50.330 -54.185  1.00  0.00     0.417 C 
HETATM   24  F   UNL     1     -40.960  49.620 -54.517  1.00  0.00    -0.166 F 
HETATM   25  F   UNL     1     -39.525  51.064 -55.285  1.00  0.00    -0.166 F 
HETATM   26  F   UNL     1     -38.850  49.410 -54.050  1.00  0.00    -0.166 F 
ENDBRANCH  19  23
ENDBRANCH  14  17
ENDBRANCH  12  13
ENDBRANCH  11  12
ENDBRANCH   4  11
BRANCH   8  27
HETATM   27  C   UNL     1     -43.032  57.078 -57.862  1.00  0.00    -0.042 A 
HETATM   28  C   UNL     1     -42.196  58.060 -58.416  1.00  0.00     0.027 A 
HETATM   29  C   UNL     1     -41.719  57.880 -59.704  1.00  0.00     0.116 A 
HETATM   30  N   UNL     1     -42.005  56.804 -60.462  1.00  0.00    -0.273 NA
HETATM   31  C   UNL     1     -42.829  55.878 -59.927  1.00  0.00     0.116 A 
HETATM   32  C   UNL     1     -43.365  55.971 -58.652  1.00  0.00     0.027 A 
ENDBRANCH   8  27
BRANCH   9  33
HETATM   33  C   UNL     1     -45.682  58.787 -56.742  1.00  0.00     0.255 C 
HETATM   34  N   UNL     1     -45.823  59.697 -57.765  1.00  0.00    -0.323 N 
HETATM   35  H   UNL     1     -45.014  60.224 -58.058  1.00  0.00     0.169 HD
HETATM   36  O   UNL     1     -46.583  58.088 -56.284  1.00  0.00    -0.268 OA
BRANCH  34  37
HETATM   37  C   UNL     1     -46.996  59.974 -58.502  1.00  0.00     0.035 A 
HETATM   38  C   UNL     1     -48.130  60.592 -57.971  1.00  0.00     0.029 A 
HETATM   39  C   UNL     1     -49.259  60.813 -58.766  1.00  0.00     0.002 A 
HETATM   40  C   UNL     1     -49.267  60.410 -60.099  1.00  0.00     0.000 A 
HETATM   41  C   UNL     1     -48.142  59.796 -60.641  1.00  0.00     0.002 A 
HETATM   42  C   UNL     1     -47.009  59.588 -59.850  1.00  0.00     0.029 A 
ENDBRANCH  34  37
ENDBRANCH   9  33
TORSDOF 8
ENDMDL
MODEL 7
REMARK VINA RESULT:      -8.5      3.522      4.737
REMARK  8 active torsions:
REMARK  status: ('A' for Active; 'I' for Inactive)
REMARK    1  A    between atoms: C_4  and  S_5 
REMARK    2  A    between atoms: S_5  and  C_6 
REMARK    3  A    between atoms: C_6  and  C_7 
REMARK       I    between atoms: C_7  and  N_8 
REMARK    4  A    between atoms: N_8  and  C_9 
REMARK    5  A    between atoms: C_11  and  C_12 
REMARK    6  A    between atoms: C_23  and  C_24 
REMARK    7  A    between atoms: C_30  and  C_31 
REMARK       I    between atoms: C_31  and  N_32 
REMARK    8  A    between atoms: N_32  and  C_33 
ROOT
HETATM    1  C   UNL     1     -42.018  58.818 -58.890  1.00  0.00     0.069 C 
HETATM    2  C   UNL     1     -42.212  59.416 -57.517  1.00  0.00     0.019 C 
HETATM    3  N   UNL     1     -42.230  58.503 -56.473  1.00  0.00    -0.353 N 
HETATM    4  C   UNL     1     -42.168  58.842 -55.134  1.00  0.00     0.087 C 
HETATM    5  C   UNL     1     -42.373  60.130 -54.775  1.00  0.00     0.055 C 
HETATM    6  C   UNL     1     -42.489  60.551 -53.319  1.00  0.00     0.019 C 
HETATM    7  N   UNL     1     -42.586  60.900 -52.112  1.00  0.00    -0.096 N 
HETATM    8  C   UNL     1     -42.593  61.219 -55.828  1.00  0.00     0.104 C 
HETATM    9  C   UNL     1     -42.340  60.740 -57.259  1.00  0.00     0.046 C 
HETATM   10  H   UNL     1     -41.892  57.566 -56.685  1.00  0.00     0.166 HD
ENDROOT
BRANCH   4  11
HETATM   11  S   UNL     1     -41.669  57.631 -53.972  1.00  0.00    -0.102 SA
BRANCH  11  12
HETATM   12  C   UNL     1     -43.092  56.494 -53.941  1.00  0.00     0.184 C 
BRANCH  12  13
HETATM   13  C   UNL     1     -42.748  55.120 -53.350  1.00  0.00     0.231 C 
HETATM   14  N   UNL     1     -41.409  54.781 -53.390  1.00  0.00    -0.327 N 
HETATM   15  H   UNL     1     -40.812  55.453 -53.860  1.00  0.00     0.169 HD
HETATM   16  O   UNL     1     -43.645  54.422 -52.880  1.00  0.00    -0.272 OA
BRANCH  14  17
HETATM   17  C   UNL     1     -40.771  53.623 -52.905  1.00  0.00     0.035 A 
HETATM   18  C   UNL     1     -40.605  52.452 -53.646  1.00  0.00     0.045 A 
HETATM   19  C   UNL     1     -39.971  51.329 -53.081  1.00  0.00     0.050 A 
HETATM   20  C   UNL     1     -39.481  51.406 -51.768  1.00  0.00     0.016 A 
HETATM   21  C   UNL     1     -39.644  52.571 -51.025  1.00  0.00     0.003 A 
HETATM   22  C   UNL     1     -40.292  53.670 -51.590  1.00  0.00     0.029 A 
BRANCH  19  23
HETATM   23  C   UNL     1     -39.783  50.065 -53.883  1.00  0.00     0.417 C 
HETATM   24  F   UNL     1     -39.505  48.969 -53.125  1.00  0.00    -0.166 F 
HETATM   25  F   UNL     1     -40.886  49.748 -54.616  1.00  0.00    -0.166 F 
HETATM   26  F   UNL     1     -38.759  50.161 -54.780  1.00  0.00    -0.166 F 
ENDBRANCH  19  23
ENDBRANCH  14  17
ENDBRANCH  12  13
ENDBRANCH  11  12
ENDBRANCH   4  11
BRANCH   8  27
HETATM   27  C   UNL     1     -43.969  61.858 -55.645  1.00  0.00    -0.042 A 
HETATM   28  C   UNL     1     -44.072  63.229 -55.361  1.00  0.00     0.027 A 
HETATM   29  C   UNL     1     -45.330  63.783 -55.195  1.00  0.00     0.116 A 
HETATM   30  N   UNL     1     -46.475  63.079 -55.301  1.00  0.00    -0.273 NA
HETATM   31  C   UNL     1     -46.362  61.758 -55.551  1.00  0.00     0.116 A 
HETATM   32  C   UNL     1     -45.150  61.109 -55.722  1.00  0.00     0.027 A 
ENDBRANCH   8  27
BRANCH   9  33
HETATM   33  C   UNL     1     -41.963  61.736 -58.321  1.00  0.00     0.255 C 
HETATM   34  N   UNL     1     -40.615  61.853 -58.574  1.00  0.00    -0.323 N 
HETATM   35  H   UNL     1     -39.968  61.335 -57.998  1.00  0.00     0.169 HD
HETATM   36  O   UNL     1     -42.854  62.314 -58.939  1.00  0.00    -0.268 OA
BRANCH  34  37
HETATM   37  C   UNL     1     -40.004  62.614 -59.596  1.00  0.00     0.035 A 
HETATM   38  C   UNL     1     -40.242  62.432 -60.960  1.00  0.00     0.029 A 
HETATM   39  C   UNL     1     -39.579  63.217 -61.909  1.00  0.00     0.002 A 
HETATM   40  C   UNL     1     -38.664  64.185 -61.503  1.00  0.00     0.000 A 
HETATM   41  C   UNL     1     -38.421  64.378 -60.146  1.00  0.00     0.002 A 
HETATM   42  C   UNL     1     -39.094  63.603 -59.197  1.00  0.00     0.029 A 
ENDBRANCH  34  37
ENDBRANCH   9  33
TORSDOF 8
ENDMDL
MODEL 8
REMARK VINA RESULT:      -8.5      3.313      4.298
REMARK  8 active torsions:
REMARK  status: ('A' for Active; 'I' for Inactive)
REMARK    1  A    between atoms: C_4  and  S_5 
REMARK    2  A    between atoms: S_5  and  C_6 
REMARK    3  A    between atoms: C_6  and  C_7 
REMARK       I    between atoms: C_7  and  N_8 
REMARK    4  A    between atoms: N_8  and  C_9 
REMARK    5  A    between atoms: C_11  and  C_12 
REMARK    6  A    between atoms: C_23  and  C_24 
REMARK    7  A    between atoms: C_30  and  C_31 
REMARK       I    between atoms: C_31  and  N_32 
REMARK    8  A    between atoms: N_32  and  C_33 
ROOT
HETATM    1  C   UNL     1     -42.330  58.668 -58.060  1.00  0.00     0.069 C 
HETATM    2  C   UNL     1     -42.297  59.162 -56.634  1.00  0.00     0.019 C 
HETATM    3  N   UNL     1     -42.085  58.184 -55.674  1.00  0.00    -0.353 N 
HETATM    4  C   UNL     1     -41.794  58.438 -54.346  1.00  0.00     0.087 C 
HETATM    5  C   UNL     1     -41.988  59.686 -53.862  1.00  0.00     0.055 C 
HETATM    6  C   UNL     1     -41.855  60.003 -52.382  1.00  0.00     0.019 C 
HETATM    7  N   UNL     1     -41.745  60.267 -51.154  1.00  0.00    -0.096 N 
HETATM    8  C   UNL     1     -42.442  60.827 -54.775  1.00  0.00     0.104 C 
HETATM    9  C   UNL     1     -42.434  60.458 -56.259  1.00  0.00     0.046 C 
HETATM   10  H   UNL     1     -41.750  57.283 -56.012  1.00  0.00     0.166 HD
ENDROOT
BRANCH   4  11
HETATM   11  S   UNL     1     -41.041  57.183 -53.386  1.00  0.00    -0.102 SA
BRANCH  11  12
HETATM   12  C   UNL     1     -42.469  56.328 -52.648  1.00  0.00     0.184 C 
BRANCH  12  13
HETATM   13  C   UNL     1     -42.350  54.799 -52.709  1.00  0.00     0.231 C 
HETATM   14  N   UNL     1     -41.073  54.317 -52.920  1.00  0.00    -0.327 N 
HETATM   15  H   UNL     1     -40.366  55.030 -53.071  1.00  0.00     0.169 HD
HETATM   16  O   UNL     1     -43.356  54.108 -52.562  1.00  0.00    -0.272 OA
BRANCH  14  17
HETATM   17  C   UNL     1     -40.627  52.983 -52.991  1.00  0.00     0.035 A 
HETATM   18  C   UNL     1     -40.413  52.169 -51.877  1.00  0.00     0.045 A 
HETATM   19  C   UNL     1     -39.949  50.849 -52.032  1.00  0.00     0.050 A 
HETATM   20  C   UNL     1     -39.725  50.347 -53.323  1.00  0.00     0.016 A 
HETATM   21  C   UNL     1     -39.937  51.154 -54.437  1.00  0.00     0.003 A 
HETATM   22  C   UNL     1     -40.379  52.467 -54.269  1.00  0.00     0.029 A 
BRANCH  19  23
HETATM   23  C   UNL     1     -39.725  49.965 -50.829  1.00  0.00     0.417 C 
HETATM   24  F   UNL     1     -40.159  50.509 -49.659  1.00  0.00    -0.166 F 
HETATM   25  F   UNL     1     -40.355  48.764 -50.945  1.00  0.00    -0.166 F 
HETATM   26  F   UNL     1     -38.407  49.674 -50.632  1.00  0.00    -0.166 F 
ENDBRANCH  19  23
ENDBRANCH  14  17
ENDBRANCH  12  13
ENDBRANCH  11  12
ENDBRANCH   4  11
BRANCH   8  27
HETATM   27  C   UNL     1     -43.788  61.375 -54.302  1.00  0.00    -0.042 A 
HETATM   28  C   UNL     1     -44.891  60.515 -54.183  1.00  0.00     0.027 A 
HETATM   29  C   UNL     1     -46.101  61.036 -53.756  1.00  0.00     0.116 A 
HETATM   30  N   UNL     1     -46.283  62.332 -53.436  1.00  0.00    -0.273 NA
HETATM   31  C   UNL     1     -45.222  63.154 -53.577  1.00  0.00     0.116 A 
HETATM   32  C   UNL     1     -43.974  62.731 -54.006  1.00  0.00     0.027 A 
ENDBRANCH   8  27
BRANCH   9  33
HETATM   33  C   UNL     1     -42.301  61.541 -57.295  1.00  0.00     0.255 C 
HETATM   34  N   UNL     1     -41.018  61.795 -57.726  1.00  0.00    -0.323 N 
HETATM   35  H   UNL     1     -40.253  61.309 -57.282  1.00  0.00     0.169 HD
HETATM   36  O   UNL     1     -43.317  62.067 -57.741  1.00  0.00    -0.268 OA
BRANCH  34  37
HETATM   37  C   UNL     1     -40.628  62.664 -58.770  1.00  0.00     0.035 A 
HETATM   38  C   UNL     1     -40.211  63.984 -58.580  1.00  0.00     0.029 A 
HETATM   39  C   UNL     1     -39.859  64.782 -59.672  1.00  0.00     0.002 A 
HETATM   40  C   UNL     1     -39.929  64.273 -60.966  1.00  0.00     0.000 A 
HETATM   41  C   UNL     1     -40.340  62.959 -61.168  1.00  0.00     0.002 A 
HETATM   42  C   UNL     1     -40.678  62.155 -60.075  1.00  0.00     0.029 A 
ENDBRANCH  34  37
ENDBRANCH   9  33
TORSDOF 8
ENDMDL
MODEL 9
REMARK VINA RESULT:      -8.3      3.466      4.899
REMARK  8 active torsions:
REMARK  status: ('A' for Active; 'I' for Inactive)
REMARK    1  A    between atoms: C_4  and  S_5 
REMARK    2  A    between atoms: S_5  and  C_6 
REMARK    3  A    between atoms: C_6  and  C_7 
REMARK       I    between atoms: C_7  and  N_8 
REMARK    4  A    between atoms: N_8  and  C_9 
REMARK    5  A    between atoms: C_11  and  C_12 
REMARK    6  A    between atoms: C_23  and  C_24 
REMARK    7  A    between atoms: C_30  and  C_31 
REMARK       I    between atoms: C_31  and  N_32 
REMARK    8  A    between atoms: N_32  and  C_33 
ROOT
HETATM    1  C   UNL     1     -42.874  57.007 -59.703  1.00  0.00     0.069 C 
HETATM    2  C   UNL     1     -43.478  57.686 -58.497  1.00  0.00     0.019 C 
HETATM    3  N   UNL     1     -43.687  56.865 -57.399  1.00  0.00    -0.353 N 
HETATM    4  C   UNL     1     -44.012  57.315 -56.133  1.00  0.00     0.087 C 
HETATM    5  C   UNL     1     -44.423  58.595 -55.980  1.00  0.00     0.055 C 
HETATM    6  C   UNL     1     -44.958  59.115 -54.656  1.00  0.00     0.019 C 
HETATM    7  N   UNL     1     -45.402  59.547 -53.558  1.00  0.00    -0.096 N 
HETATM    8  C   UNL     1     -44.456  59.563 -57.166  1.00  0.00     0.104 C 
HETATM    9  C   UNL     1     -43.791  59.003 -58.425  1.00  0.00     0.046 C 
HETATM   10  H   UNL     1     -43.220  55.959 -57.415  1.00  0.00     0.166 HD
ENDROOT
BRANCH   4  11
HETATM   11  S   UNL     1     -43.729  56.268 -54.759  1.00  0.00    -0.102 SA
BRANCH  11  12
HETATM   12  C   UNL     1     -42.070  56.772 -54.205  1.00  0.00     0.184 C 
BRANCH  12  13
HETATM   13  C   UNL     1     -41.113  55.585 -54.021  1.00  0.00     0.231 C 
HETATM   14  N   UNL     1     -41.458  54.702 -53.017  1.00  0.00    -0.327 N 
HETATM   15  H   UNL     1     -42.272  54.970 -52.473  1.00  0.00     0.169 HD
HETATM   16  O   UNL     1     -40.133  55.479 -54.757  1.00  0.00    -0.272 OA
BRANCH  14  17
HETATM   17  C   UNL     1     -40.818  53.511 -52.623  1.00  0.00     0.035 A 
HETATM   18  C   UNL     1     -40.628  52.410 -53.461  1.00  0.00     0.045 A 
HETATM   19  C   UNL     1     -39.994  51.248 -52.985  1.00  0.00     0.050 A 
HETATM   20  C   UNL     1     -39.529  51.212 -51.662  1.00  0.00     0.016 A 
HETATM   21  C   UNL     1     -39.715  52.306 -50.822  1.00  0.00     0.003 A 
HETATM   22  C   UNL     1     -40.363  53.446 -51.300  1.00  0.00     0.029 A 
BRANCH  19  23
HETATM   23  C   UNL     1     -39.781  50.060 -53.892  1.00  0.00     0.417 C 
HETATM   24  F   UNL     1     -40.892  49.695 -54.589  1.00  0.00    -0.166 F 
HETATM   25  F   UNL     1     -38.809  50.284 -54.818  1.00  0.00    -0.166 F 
HETATM   26  F   UNL     1     -39.391  48.944 -53.210  1.00  0.00    -0.166 F 
ENDBRANCH  19  23
ENDBRANCH  14  17
ENDBRANCH  12  13
ENDBRANCH  11  12
ENDBRANCH   4  11
BRANCH   8  27
HETATM   27  C   UNL     1     -45.884  60.049 -57.409  1.00  0.00    -0.042 A 
HETATM   28  C   UNL     1     -46.204  61.402 -57.222  1.00  0.00     0.027 A 
HETATM   29  C   UNL     1     -47.507  61.817 -57.446  1.00  0.00     0.116 A 
HETATM   30  N   UNL     1     -48.494  60.991 -57.844  1.00  0.00    -0.273 NA
HETATM   31  C   UNL     1     -48.180  59.688 -57.996  1.00  0.00     0.116 A 
HETATM   32  C   UNL     1     -46.910  59.174 -57.788  1.00  0.00     0.027 A 
ENDBRANCH   8  27
BRANCH   9  33
HETATM   33  C   UNL     1     -43.240  59.948 -59.458  1.00  0.00     0.255 C 
HETATM   34  N   UNL     1     -42.116  60.648 -59.083  1.00  0.00    -0.323 N 
HETATM   35  H   UNL     1     -41.778  60.549 -58.137  1.00  0.00     0.169 HD
HETATM   36  O   UNL     1     -43.760  59.983 -60.570  1.00  0.00    -0.268 OA
BRANCH  34  37
HETATM   37  C   UNL     1     -41.332  61.498 -59.895  1.00  0.00     0.035 A 
HETATM   38  C   UNL     1     -41.472  61.609 -61.280  1.00  0.00     0.029 A 
HETATM   39  C   UNL     1     -40.641  62.463 -62.012  1.00  0.00     0.002 A 
HETATM   40  C   UNL     1     -39.655  63.206 -61.368  1.00  0.00     0.000 A 
HETATM   41  C   UNL     1     -39.508  63.106 -59.988  1.00  0.00     0.002 A 
HETATM   42  C   UNL     1     -40.349  62.264 -59.254  1.00  0.00     0.029 A 
ENDBRANCH  34  37
ENDBRANCH   9  33
TORSDOF 8
ENDMDL
MODEL 10
REMARK VINA RESULT:      -8.3      3.618      6.705
REMARK  8 active torsions:
REMARK  status: ('A' for Active; 'I' for Inactive)
REMARK    1  A    between atoms: C_4  and  S_5 
REMARK    2  A    between atoms: S_5  and  C_6 
REMARK    3  A    between atoms: C_6  and  C_7 
REMARK       I    between atoms: C_7  and  N_8 
REMARK    4  A    between atoms: N_8  and  C_9 
REMARK    5  A    between atoms: C_11  and  C_12 
REMARK    6  A    between atoms: C_23  and  C_24 
REMARK    7  A    between atoms: C_30  and  C_31 
REMARK       I    between atoms: C_31  and  N_32 
REMARK    8  A    between atoms: N_32  and  C_33 
ROOT
HETATM    1  C   UNL     1     -46.843  62.472 -50.222  1.00  0.00     0.069 C 
HETATM    2  C   UNL     1     -46.368  61.658 -51.402  1.00  0.00     0.019 C 
HETATM    3  N   UNL     1     -45.391  60.716 -51.114  1.00  0.00    -0.353 N 
HETATM    4  C   UNL     1     -44.981  59.721 -51.982  1.00  0.00     0.087 C 
HETATM    5  C   UNL     1     -45.332  59.806 -53.286  1.00  0.00     0.055 C 
HETATM    6  C   UNL     1     -44.782  58.848 -54.331  1.00  0.00     0.019 C 
HETATM    7  N   UNL     1     -44.326  58.055 -55.197  1.00  0.00    -0.096 N 
HETATM    8  C   UNL     1     -46.234  60.934 -53.791  1.00  0.00     0.104 C 
HETATM    9  C   UNL     1     -46.840  61.777 -52.667  1.00  0.00     0.046 C 
HETATM   10  H   UNL     1     -45.248  60.499 -50.129  1.00  0.00     0.166 HD
ENDROOT
BRANCH   4  11
HETATM   11  S   UNL     1     -44.164  58.313 -51.338  1.00  0.00    -0.102 SA
BRANCH  11  12
HETATM   12  C   UNL     1     -42.435  58.872 -51.217  1.00  0.00     0.184 C 
BRANCH  12  13
HETATM   13  C   UNL     1     -41.431  57.712 -51.188  1.00  0.00     0.231 C 
HETATM   14  N   UNL     1     -41.970  56.462 -51.423  1.00  0.00    -0.327 N 
HETATM   15  H   UNL     1     -42.979  56.444 -51.529  1.00  0.00     0.169 HD
HETATM   16  O   UNL     1     -40.242  57.946 -50.976  1.00  0.00    -0.272 OA
BRANCH  14  17
HETATM   17  C   UNL     1     -41.320  55.214 -51.499  1.00  0.00     0.035 A 
HETATM   18  C   UNL     1     -41.110  54.512 -52.687  1.00  0.00     0.045 A 
HETATM   19  C   UNL     1     -40.467  53.260 -52.675  1.00  0.00     0.050 A 
HETATM   20  C   UNL     1     -40.014  52.732 -51.457  1.00  0.00     0.016 A 
HETATM   21  C   UNL     1     -40.220  53.428 -50.270  1.00  0.00     0.003 A 
HETATM   22  C   UNL     1     -40.876  54.659 -50.292  1.00  0.00     0.029 A 
BRANCH  19  23
HETATM   23  C   UNL     1     -40.232  52.502 -53.959  1.00  0.00     0.417 C 
HETATM   24  F   UNL     1     -39.945  53.301 -55.023  1.00  0.00    -0.166 F 
HETATM   25  F   UNL     1     -39.200  51.621 -53.859  1.00  0.00    -0.166 F 
HETATM   26  F   UNL     1     -41.314  51.762 -54.336  1.00  0.00    -0.166 F 
ENDBRANCH  19  23
ENDBRANCH  14  17
ENDBRANCH  12  13
ENDBRANCH  11  12
ENDBRANCH   4  11
BRANCH   8  27
HETATM   27  C   UNL     1     -45.496  61.771 -54.835  1.00  0.00    -0.042 A 
HETATM   28  C   UNL     1     -45.943  61.786 -56.165  1.00  0.00     0.027 A 
HETATM   29  C   UNL     1     -45.254  62.550 -57.092  1.00  0.00     0.116 A 
HETATM   30  N   UNL     1     -44.172  63.295 -56.789  1.00  0.00    -0.273 NA
HETATM   31  C   UNL     1     -43.737  63.254 -55.512  1.00  0.00     0.116 A 
HETATM   32  C   UNL     1     -44.352  62.514 -54.514  1.00  0.00     0.027 A 
ENDBRANCH   8  27
BRANCH   9  33
HETATM   33  C   UNL     1     -48.125  62.522 -52.905  1.00  0.00     0.255 C 
HETATM   34  N   UNL     1     -49.265  61.751 -52.920  1.00  0.00    -0.323 N 
HETATM   35  H   UNL     1     -49.172  60.748 -52.849  1.00  0.00     0.169 HD
HETATM   36  O   UNL     1     -48.095  63.747 -52.992  1.00  0.00    -0.268 OA
BRANCH  34  37
HETATM   37  C   UNL     1     -50.600  62.207 -52.998  1.00  0.00     0.035 A 
HETATM   38  C   UNL     1     -51.253  62.903 -51.979  1.00  0.00     0.029 A 
HETATM   39  C   UNL     1     -52.585  63.303 -52.131  1.00  0.00     0.002 A 
HETATM   40  C   UNL     1     -53.279  63.001 -53.299  1.00  0.00     0.000 A 
HETATM   41  C   UNL     1     -52.638  62.310 -54.323  1.00  0.00     0.002 A 
HETATM   42  C   UNL     1     -51.303  61.924 -54.178  1.00  0.00     0.029 A 
ENDBRANCH  34  37
ENDBRANCH   9  33
TORSDOF 8
ENDMDL
