MODEL 1
REMARK VINA RESULT:      -9.4      0.000      0.000
REMARK  3 active torsions:
REMARK  status: ('A' for Active; 'I' for Inactive)
REMARK    1  A    between atoms: N_3  and  C_4 
REMARK    2  A    between atoms: C_6  and  C_7 
REMARK       I    between atoms: C_7  and  N_8 
REMARK    3  A    between atoms: N_8  and  C_9 
ROOT
HETATM    1  C   UNL     1     -44.633  57.711 -52.958  1.00  0.00     0.072 C 
HETATM    2  C   UNL     1     -43.531  58.176 -53.933  1.00  0.00     0.149 C 
HETATM    3  N   UNL     1     -42.194  58.220 -53.291  1.00  0.00    -0.267 N 
HETATM    4  C   UNL     1     -41.238  59.161 -53.662  1.00  0.00     0.326 C 
HETATM    5  O   UNL     1     -40.093  59.232 -53.222  1.00  0.00    -0.247 OA
HETATM    6  N   UNL     1     -41.617  60.079 -54.599  1.00  0.00    -0.334 N 
HETATM    7  O   UNL     1     -43.532  57.226 -55.021  1.00  0.00    -0.319 OA
HETATM    8  C   UNL     1     -43.082  57.672 -56.232  1.00  0.00     0.080 A 
HETATM    9  C   UNL     1     -42.724  59.004 -56.467  1.00  0.00    -0.002 A 
HETATM   10  C   UNL     1     -43.013  56.730 -57.256  1.00  0.00     0.037 A 
HETATM   11  C   UNL     1     -42.569  57.110 -58.522  1.00  0.00     0.003 A 
HETATM   12  C   UNL     1     -42.189  58.430 -58.760  1.00  0.00     0.001 A 
HETATM   13  C   UNL     1     -42.261  59.376 -57.736  1.00  0.00     0.012 A 
HETATM   14  C   UNL     1     -43.948  59.571 -54.415  1.00  0.00     0.092 C 
HETATM   15  C   UNL     1     -42.841  59.999 -55.347  1.00  0.00     0.127 C 
HETATM   16  H   UNL     1     -40.853  60.653 -54.935  1.00  0.00     0.165 HD
ENDROOT
BRANCH   3  17
HETATM   17  C   UNL     1     -41.801  57.181 -52.393  1.00  0.00     0.043 A 
HETATM   18  C   UNL     1     -41.555  55.881 -52.847  1.00  0.00     0.047 A 
HETATM   19  C   UNL     1     -41.159  54.890 -51.939  1.00  0.00     0.034 A 
HETATM   20  C   UNL     1     -41.064  55.171 -50.574  1.00  0.00     0.017 A 
HETATM   21  C   UNL     1     -41.301  56.465 -50.120  1.00  0.00     0.003 A 
HETATM   22  C   UNL     1     -41.644  57.470 -51.029  1.00  0.00     0.030 A 
BRANCH  19  23
HETATM   23  C   UNL     1     -40.776  53.540 -52.408  1.00  0.00     0.252 C 
HETATM   24  N   UNL     1     -39.669  53.007 -51.785  1.00  0.00    -0.352 N 
HETATM   25  H   UNL     1     -39.186  53.558 -51.085  1.00  0.00     0.163 HD
HETATM   26  O   UNL     1     -41.459  52.959 -53.241  1.00  0.00    -0.268 OA
BRANCH  24  27
HETATM   27  C   UNL     1     -39.183  51.677 -52.078  1.00  0.00     0.084 C 
HETATM   28  C   UNL     1     -39.912  50.604 -51.279  1.00  0.00     0.025 C 
HETATM   29  C   UNL     1     -39.613  49.339 -52.066  1.00  0.00     0.002 C 
HETATM   30  C   UNL     1     -39.712  49.776 -53.523  1.00  0.00     0.002 C 
HETATM   31  C   UNL     1     -39.414  51.276 -53.538  1.00  0.00     0.025 C 
ENDBRANCH  24  27
ENDBRANCH  19  23
ENDBRANCH   3  17
TORSDOF 3
ENDMDL
MODEL 2
REMARK VINA RESULT:      -9.4      3.515      7.808
REMARK  3 active torsions:
REMARK  status: ('A' for Active; 'I' for Inactive)
REMARK    1  A    between atoms: N_3  and  C_4 
REMARK    2  A    between atoms: C_6  and  C_7 
REMARK       I    between atoms: C_7  and  N_8 
REMARK    3  A    between atoms: N_8  and  C_9 
ROOT
HETATM    1  C   UNL     1     -43.811  55.872 -50.780  1.00  0.00     0.072 C 
HETATM    2  C   UNL     1     -42.850  55.478 -51.920  1.00  0.00     0.149 C 
HETATM    3  N   UNL     1     -42.236  56.661 -52.573  1.00  0.00    -0.267 N 
HETATM    4  C   UNL     1     -41.916  56.662 -53.927  1.00  0.00     0.326 C 
HETATM    5  O   UNL     1     -41.358  57.575 -54.532  1.00  0.00    -0.247 OA
HETATM    6  N   UNL     1     -42.255  55.545 -54.636  1.00  0.00    -0.334 N 
HETATM    7  O   UNL     1     -41.830  54.654 -51.317  1.00  0.00    -0.319 OA
HETATM    8  C   UNL     1     -41.205  53.749 -52.130  1.00  0.00     0.080 A 
HETATM    9  C   UNL     1     -41.580  53.536 -53.461  1.00  0.00    -0.002 A 
HETATM   10  C   UNL     1     -40.169  53.012 -51.560  1.00  0.00     0.037 A 
HETATM   11  C   UNL     1     -39.487  52.065 -52.324  1.00  0.00     0.003 A 
HETATM   12  C   UNL     1     -39.839  51.862 -53.657  1.00  0.00     0.001 A 
HETATM   13  C   UNL     1     -40.879  52.597 -54.229  1.00  0.00     0.012 A 
HETATM   14  C   UNL     1     -43.687  54.677 -52.926  1.00  0.00     0.092 C 
HETATM   15  C   UNL     1     -42.723  54.327 -54.032  1.00  0.00     0.127 C 
HETATM   16  H   UNL     1     -41.883  55.535 -55.577  1.00  0.00     0.165 HD
ENDROOT
BRANCH   3  17
HETATM   17  C   UNL     1     -41.803  57.766 -51.779  1.00  0.00     0.043 A 
HETATM   18  C   UNL     1     -42.631  58.871 -51.556  1.00  0.00     0.047 A 
HETATM   19  C   UNL     1     -42.178  59.932 -50.761  1.00  0.00     0.034 A 
HETATM   20  C   UNL     1     -40.882  59.928 -50.238  1.00  0.00     0.017 A 
HETATM   21  C   UNL     1     -40.058  58.827 -50.452  1.00  0.00     0.003 A 
HETATM   22  C   UNL     1     -40.525  57.742 -51.199  1.00  0.00     0.030 A 
BRANCH  19  23
HETATM   23  C   UNL     1     -43.075  61.054 -50.410  1.00  0.00     0.252 C 
HETATM   24  N   UNL     1     -43.805  60.867 -49.257  1.00  0.00    -0.352 N 
HETATM   25  H   UNL     1     -43.707  59.996 -48.748  1.00  0.00     0.163 HD
HETATM   26  O   UNL     1     -43.084  62.073 -51.088  1.00  0.00    -0.268 OA
BRANCH  24  27
HETATM   27  C   UNL     1     -44.694  61.880 -48.732  1.00  0.00     0.084 C 
HETATM   28  C   UNL     1     -46.062  61.856 -49.404  1.00  0.00     0.025 C 
HETATM   29  C   UNL     1     -46.934  62.610 -48.414  1.00  0.00     0.002 C 
HETATM   30  C   UNL     1     -46.454  62.127 -47.051  1.00  0.00     0.002 C 
HETATM   31  C   UNL     1     -45.005  61.676 -47.246  1.00  0.00     0.025 C 
ENDBRANCH  24  27
ENDBRANCH  19  23
ENDBRANCH   3  17
TORSDOF 3
ENDMDL
MODEL 3
REMARK VINA RESULT:      -9.3      3.902      8.132
REMARK  3 active torsions:
REMARK  status: ('A' for Active; 'I' for Inactive)
REMARK    1  A    between atoms: N_3  and  C_4 
REMARK    2  A    between atoms: C_6  and  C_7 
REMARK       I    between atoms: C_7  and  N_8 
REMARK    3  A    between atoms: N_8  and  C_9 
ROOT
HETATM    1  C   UNL     1     -40.893  58.142 -51.096  1.00  0.00     0.072 C 
HETATM    2  C   UNL     1     -41.359  56.703 -51.400  1.00  0.00     0.149 C 
HETATM    3  N   UNL     1     -42.823  56.536 -51.217  1.00  0.00    -0.267 N 
HETATM    4  C   UNL     1     -43.369  55.334 -50.778  1.00  0.00     0.326 C 
HETATM    5  O   UNL     1     -44.568  55.094 -50.653  1.00  0.00    -0.247 OA
HETATM    6  N   UNL     1     -42.487  54.340 -50.465  1.00  0.00    -0.334 N 
HETATM    7  O   UNL     1     -40.995  56.446 -52.773  1.00  0.00    -0.319 OA
HETATM    8  C   UNL     1     -40.783  55.141 -53.122  1.00  0.00     0.080 A 
HETATM    9  C   UNL     1     -40.811  54.092 -52.198  1.00  0.00    -0.002 A 
HETATM   10  C   UNL     1     -40.508  54.894 -54.466  1.00  0.00     0.037 A 
HETATM   11  C   UNL     1     -40.275  53.588 -54.899  1.00  0.00     0.003 A 
HETATM   12  C   UNL     1     -40.323  52.534 -53.988  1.00  0.00     0.001 A 
HETATM   13  C   UNL     1     -40.594  52.781 -52.642  1.00  0.00     0.012 A 
HETATM   14  C   UNL     1     -40.585  55.791 -50.440  1.00  0.00     0.092 C 
HETATM   15  C   UNL     1     -41.079  54.400 -50.752  1.00  0.00     0.127 C 
HETATM   16  H   UNL     1     -42.930  53.448 -50.284  1.00  0.00     0.165 HD
ENDROOT
BRANCH   3  17
HETATM   17  C   UNL     1     -43.716  57.561 -51.653  1.00  0.00     0.043 A 
HETATM   18  C   UNL     1     -44.350  58.411 -50.741  1.00  0.00     0.047 A 
HETATM   19  C   UNL     1     -45.210  59.414 -51.205  1.00  0.00     0.034 A 
HETATM   20  C   UNL     1     -45.492  59.537 -52.568  1.00  0.00     0.017 A 
HETATM   21  C   UNL     1     -44.858  58.697 -53.479  1.00  0.00     0.003 A 
HETATM   22  C   UNL     1     -43.957  57.730 -53.025  1.00  0.00     0.030 A 
BRANCH  19  23
HETATM   23  C   UNL     1     -45.797  60.402 -50.274  1.00  0.00     0.252 C 
HETATM   24  N   UNL     1     -45.306  60.343 -48.988  1.00  0.00    -0.352 N 
HETATM   25  H   UNL     1     -44.615  59.639 -48.758  1.00  0.00     0.163 HD
HETATM   26  O   UNL     1     -46.606  61.227 -50.678  1.00  0.00    -0.268 OA
BRANCH  24  27
HETATM   27  C   UNL     1     -45.725  61.266 -47.957  1.00  0.00     0.084 C 
HETATM   28  C   UNL     1     -45.303  60.811 -46.564  1.00  0.00     0.025 C 
HETATM   29  C   UNL     1     -45.395  62.092 -45.752  1.00  0.00     0.002 C 
HETATM   30  C   UNL     1     -44.851  63.165 -46.688  1.00  0.00     0.002 C 
HETATM   31  C   UNL     1     -45.082  62.647 -48.108  1.00  0.00     0.025 C 
ENDBRANCH  24  27
ENDBRANCH  19  23
ENDBRANCH   3  17
TORSDOF 3
ENDMDL
MODEL 4
REMARK VINA RESULT:      -9.2      1.823      2.490
REMARK  3 active torsions:
REMARK  status: ('A' for Active; 'I' for Inactive)
REMARK    1  A    between atoms: N_3  and  C_4 
REMARK    2  A    between atoms: C_6  and  C_7 
REMARK       I    between atoms: C_7  and  N_8 
REMARK    3  A    between atoms: N_8  and  C_9 
ROOT
HETATM    1  C   UNL     1     -45.832  58.906 -55.467  1.00  0.00     0.072 C 
HETATM    2  C   UNL     1     -44.431  58.796 -56.103  1.00  0.00     0.149 C 
HETATM    3  N   UNL     1     -43.348  58.826 -55.088  1.00  0.00    -0.267 N 
HETATM    4  C   UNL     1     -42.108  59.392 -55.363  1.00  0.00     0.326 C 
HETATM    5  O   UNL     1     -41.142  59.411 -54.603  1.00  0.00    -0.247 OA
HETATM    6  N   UNL     1     -41.960  59.974 -56.590  1.00  0.00    -0.334 N 
HETATM    7  O   UNL     1     -44.412  57.540 -56.815  1.00  0.00    -0.319 OA
HETATM    8  C   UNL     1     -43.557  57.445 -57.878  1.00  0.00     0.080 A 
HETATM    9  C   UNL     1     -42.797  58.523 -58.342  1.00  0.00    -0.002 A 
HETATM   10  C   UNL     1     -43.489  56.206 -58.512  1.00  0.00     0.037 A 
HETATM   11  C   UNL     1     -42.643  56.031 -59.608  1.00  0.00     0.003 A 
HETATM   12  C   UNL     1     -41.865  57.094 -60.063  1.00  0.00     0.001 A 
HETATM   13  C   UNL     1     -41.936  58.337 -59.431  1.00  0.00     0.012 A 
HETATM   14  C   UNL     1     -44.305  59.982 -57.066  1.00  0.00     0.092 C 
HETATM   15  C   UNL     1     -42.921  59.853 -57.653  1.00  0.00     0.127 C 
HETATM   16  H   UNL     1     -41.008  60.248 -56.796  1.00  0.00     0.165 HD
ENDROOT
BRANCH   3  17
HETATM   17  C   UNL     1     -43.506  58.118 -53.858  1.00  0.00     0.043 A 
HETATM   18  C   UNL     1     -43.249  56.746 -53.770  1.00  0.00     0.047 A 
HETATM   19  C   UNL     1     -43.402  56.087 -52.543  1.00  0.00     0.034 A 
HETATM   20  C   UNL     1     -43.866  56.772 -51.418  1.00  0.00     0.017 A 
HETATM   21  C   UNL     1     -44.115  58.139 -51.500  1.00  0.00     0.003 A 
HETATM   22  C   UNL     1     -43.912  58.812 -52.708  1.00  0.00     0.030 A 
BRANCH  19  23
HETATM   23  C   UNL     1     -43.022  54.664 -52.394  1.00  0.00     0.252 C 
HETATM   24  N   UNL     1     -41.911  54.287 -53.115  1.00  0.00    -0.352 N 
HETATM   25  H   UNL     1     -41.448  54.972 -53.701  1.00  0.00     0.163 HD
HETATM   26  O   UNL     1     -43.642  53.937 -51.629  1.00  0.00    -0.268 OA
BRANCH  24  27
HETATM   27  C   UNL     1     -41.364  52.950 -53.049  1.00  0.00     0.084 C 
HETATM   28  C   UNL     1     -40.532  52.602 -54.278  1.00  0.00     0.025 C 
HETATM   29  C   UNL     1     -39.697  51.428 -53.795  1.00  0.00     0.002 C 
HETATM   30  C   UNL     1     -39.310  51.807 -52.371  1.00  0.00     0.002 C 
HETATM   31  C   UNL     1     -40.392  52.769 -51.879  1.00  0.00     0.025 C 
ENDBRANCH  24  27
ENDBRANCH  19  23
ENDBRANCH   3  17
TORSDOF 3
ENDMDL
MODEL 5
REMARK VINA RESULT:      -9.2      2.227      6.823
REMARK  3 active torsions:
REMARK  status: ('A' for Active; 'I' for Inactive)
REMARK    1  A    between atoms: N_3  and  C_4 
REMARK    2  A    between atoms: C_6  and  C_7 
REMARK       I    between atoms: C_7  and  N_8 
REMARK    3  A    between atoms: N_8  and  C_9 
ROOT
HETATM    1  C   UNL     1     -41.053  59.088 -52.168  1.00  0.00     0.072 C 
HETATM    2  C   UNL     1     -41.565  57.655 -51.911  1.00  0.00     0.149 C 
HETATM    3  N   UNL     1     -43.041  57.602 -51.768  1.00  0.00    -0.267 N 
HETATM    4  C   UNL     1     -43.659  56.682 -50.927  1.00  0.00     0.326 C 
HETATM    5  O   UNL     1     -44.872  56.534 -50.792  1.00  0.00    -0.247 OA
HETATM    6  N   UNL     1     -42.836  55.875 -50.195  1.00  0.00    -0.334 N 
HETATM    7  O   UNL     1     -41.145  56.870 -53.047  1.00  0.00    -0.319 OA
HETATM    8  C   UNL     1     -40.972  55.529 -52.842  1.00  0.00     0.080 A 
HETATM    9  C   UNL     1     -41.089  54.930 -51.584  1.00  0.00    -0.002 A 
HETATM   10  C   UNL     1     -40.641  54.766 -53.961  1.00  0.00     0.037 A 
HETATM   11  C   UNL     1     -40.443  53.392 -53.831  1.00  0.00     0.003 A 
HETATM   12  C   UNL     1     -40.580  52.783 -52.585  1.00  0.00     0.001 A 
HETATM   13  C   UNL     1     -40.907  53.547 -51.462  1.00  0.00     0.012 A 
HETATM   14  C   UNL     1     -40.878  57.181 -50.624  1.00  0.00     0.092 C 
HETATM   15  C   UNL     1     -41.415  55.790 -50.395  1.00  0.00     0.127 C 
HETATM   16  H   UNL     1     -43.325  55.135 -49.706  1.00  0.00     0.165 HD
ENDROOT
BRANCH   3  17
HETATM   17  C   UNL     1     -43.868  58.389 -52.626  1.00  0.00     0.043 A 
HETATM   18  C   UNL     1     -43.967  58.114 -53.994  1.00  0.00     0.047 A 
HETATM   19  C   UNL     1     -44.799  58.899 -54.802  1.00  0.00     0.034 A 
HETATM   20  C   UNL     1     -45.485  59.994 -54.271  1.00  0.00     0.017 A 
HETATM   21  C   UNL     1     -45.394  60.266 -52.908  1.00  0.00     0.003 A 
HETATM   22  C   UNL     1     -44.608  59.453 -52.087  1.00  0.00     0.030 A 
BRANCH  19  23
HETATM   23  C   UNL     1     -45.016  58.557 -56.226  1.00  0.00     0.252 C 
HETATM   24  N   UNL     1     -43.999  57.830 -56.804  1.00  0.00    -0.352 N 
HETATM   25  H   UNL     1     -43.182  57.600 -56.250  1.00  0.00     0.163 HD
HETATM   26  O   UNL     1     -46.062  58.864 -56.782  1.00  0.00    -0.268 OA
BRANCH  24  27
HETATM   27  C   UNL     1     -44.063  57.362 -58.170  1.00  0.00     0.084 C 
HETATM   28  C   UNL     1     -43.242  58.228 -59.119  1.00  0.00     0.025 C 
HETATM   29  C   UNL     1     -43.055  57.320 -60.323  1.00  0.00     0.002 C 
HETATM   30  C   UNL     1     -42.806  55.944 -59.717  1.00  0.00     0.002 C 
HETATM   31  C   UNL     1     -43.471  55.960 -58.340  1.00  0.00     0.025 C 
ENDBRANCH  24  27
ENDBRANCH  19  23
ENDBRANCH   3  17
TORSDOF 3
ENDMDL
MODEL 6
REMARK VINA RESULT:      -8.7      2.881      7.904
REMARK  3 active torsions:
REMARK  status: ('A' for Active; 'I' for Inactive)
REMARK    1  A    between atoms: N_3  and  C_4 
REMARK    2  A    between atoms: C_6  and  C_7 
REMARK       I    between atoms: C_7  and  N_8 
REMARK    3  A    between atoms: N_8  and  C_9 
ROOT
HETATM    1  C   UNL     1     -43.953  55.776 -50.888  1.00  0.00     0.072 C 
HETATM    2  C   UNL     1     -42.893  55.369 -51.933  1.00  0.00     0.149 C 
HETATM    3  N   UNL     1     -42.279  56.544 -52.598  1.00  0.00    -0.267 N 
HETATM    4  C   UNL     1     -41.858  56.494 -53.924  1.00  0.00     0.326 C 
HETATM    5  O   UNL     1     -41.292  57.399 -54.532  1.00  0.00    -0.247 OA
HETATM    6  N   UNL     1     -42.097  55.330 -54.597  1.00  0.00    -0.334 N 
HETATM    7  O   UNL     1     -41.889  54.621 -51.214  1.00  0.00    -0.319 OA
HETATM    8  C   UNL     1     -41.169  53.706 -51.931  1.00  0.00     0.080 A 
HETATM    9  C   UNL     1     -41.433  53.412 -53.273  1.00  0.00    -0.002 A 
HETATM   10  C   UNL     1     -40.151  53.043 -51.248  1.00  0.00     0.037 A 
HETATM   11  C   UNL     1     -39.375  52.091 -51.910  1.00  0.00     0.003 A 
HETATM   12  C   UNL     1     -39.616  51.808 -53.253  1.00  0.00     0.001 A 
HETATM   13  C   UNL     1     -40.639  52.468 -53.937  1.00  0.00     0.012 A 
HETATM   14  C   UNL     1     -43.619  54.485 -52.954  1.00  0.00     0.092 C 
HETATM   15  C   UNL     1     -42.560  54.123 -53.967  1.00  0.00     0.127 C 
HETATM   16  H   UNL     1     -41.655  55.290 -55.506  1.00  0.00     0.165 HD
ENDROOT
BRANCH   3  17
HETATM   17  C   UNL     1     -41.951  57.705 -51.834  1.00  0.00     0.043 A 
HETATM   18  C   UNL     1     -42.774  58.836 -51.839  1.00  0.00     0.047 A 
HETATM   19  C   UNL     1     -42.428  59.952 -51.066  1.00  0.00     0.034 A 
HETATM   20  C   UNL     1     -41.238  59.973 -50.336  1.00  0.00     0.017 A 
HETATM   21  C   UNL     1     -40.420  58.846 -50.323  1.00  0.00     0.003 A 
HETATM   22  C   UNL     1     -40.788  57.710 -51.049  1.00  0.00     0.030 A 
BRANCH  19  23
HETATM   23  C   UNL     1     -43.340  61.113 -50.958  1.00  0.00     0.252 C 
HETATM   24  N   UNL     1     -44.513  60.990 -51.670  1.00  0.00    -0.352 N 
HETATM   25  H   UNL     1     -44.668  60.156 -52.223  1.00  0.00     0.163 HD
HETATM   26  O   UNL     1     -43.057  62.055 -50.230  1.00  0.00    -0.268 OA
BRANCH  24  27
HETATM   27  C   UNL     1     -45.545  62.003 -51.639  1.00  0.00     0.084 C 
HETATM   28  C   UNL     1     -45.338  63.073 -52.706  1.00  0.00     0.025 C 
HETATM   29  C   UNL     1     -46.715  63.706 -52.815  1.00  0.00     0.002 C 
HETATM   30  C   UNL     1     -47.676  62.526 -52.720  1.00  0.00     0.002 C 
HETATM   31  C   UNL     1     -46.934  61.436 -51.946  1.00  0.00     0.025 C 
ENDBRANCH  24  27
ENDBRANCH  19  23
ENDBRANCH   3  17
TORSDOF 3
ENDMDL
MODEL 7
REMARK VINA RESULT:      -8.6     15.685     17.790
REMARK  3 active torsions:
REMARK  status: ('A' for Active; 'I' for Inactive)
REMARK    1  A    between atoms: N_3  and  C_4 
REMARK    2  A    between atoms: C_6  and  C_7 
REMARK       I    between atoms: C_7  and  N_8 
REMARK    3  A    between atoms: N_8  and  C_9 
ROOT
HETATM    1  C   UNL     1     -38.216  41.052 -54.755  1.00  0.00     0.072 C 
HETATM    2  C   UNL     1     -37.405  40.905 -56.059  1.00  0.00     0.149 C 
HETATM    3  N   UNL     1     -35.970  40.629 -55.802  1.00  0.00    -0.267 N 
HETATM    4  C   UNL     1     -34.974  41.095 -56.654  1.00  0.00     0.326 C 
HETATM    5  O   UNL     1     -33.771  40.866 -56.545  1.00  0.00    -0.247 OA
HETATM    6  N   UNL     1     -35.380  41.871 -57.702  1.00  0.00    -0.334 N 
HETATM    7  O   UNL     1     -38.004  39.807 -56.781  1.00  0.00    -0.319 OA
HETATM    8  C   UNL     1     -37.866  39.814 -58.142  1.00  0.00     0.080 A 
HETATM    9  C   UNL     1     -37.269  40.868 -58.841  1.00  0.00    -0.002 A 
HETATM   10  C   UNL     1     -38.379  38.712 -58.824  1.00  0.00     0.037 A 
HETATM   11  C   UNL     1     -38.282  38.649 -60.214  1.00  0.00     0.003 A 
HETATM   12  C   UNL     1     -37.669  39.684 -60.917  1.00  0.00     0.001 A 
HETATM   13  C   UNL     1     -37.159  40.790 -60.236  1.00  0.00     0.012 A 
HETATM   14  C   UNL     1     -37.576  42.227 -56.819  1.00  0.00     0.092 C 
HETATM   15  C   UNL     1     -36.757  42.054 -58.075  1.00  0.00     0.127 C 
HETATM   16  H   UNL     1     -34.644  42.071 -58.367  1.00  0.00     0.165 HD
ENDROOT
BRANCH   3  17
HETATM   17  C   UNL     1     -35.595  39.729 -54.758  1.00  0.00     0.043 A 
HETATM   18  C   UNL     1     -35.180  40.198 -53.507  1.00  0.00     0.047 A 
HETATM   19  C   UNL     1     -34.832  39.286 -52.503  1.00  0.00     0.034 A 
HETATM   20  C   UNL     1     -34.835  37.912 -52.754  1.00  0.00     0.017 A 
HETATM   21  C   UNL     1     -35.254  37.442 -53.996  1.00  0.00     0.003 A 
HETATM   22  C   UNL     1     -35.654  38.346 -54.984  1.00  0.00     0.030 A 
BRANCH  19  23
HETATM   23  C   UNL     1     -34.507  39.750 -51.136  1.00  0.00     0.252 C 
HETATM   24  N   UNL     1     -33.796  38.847 -50.376  1.00  0.00    -0.352 N 
HETATM   25  H   UNL     1     -33.566  37.944 -50.773  1.00  0.00     0.163 HD
HETATM   26  O   UNL     1     -34.812  40.880 -50.778  1.00  0.00    -0.268 OA
BRANCH  24  27
HETATM   27  C   UNL     1     -33.346  39.150 -49.035  1.00  0.00     0.084 C 
HETATM   28  C   UNL     1     -33.049  37.893 -48.225  1.00  0.00     0.025 C 
HETATM   29  C   UNL     1     -32.168  38.419 -47.105  1.00  0.00     0.002 C 
HETATM   30  C   UNL     1     -31.260  39.434 -47.789  1.00  0.00     0.002 C 
HETATM   31  C   UNL     1     -32.024  39.924 -49.020  1.00  0.00     0.025 C 
ENDBRANCH  24  27
ENDBRANCH  19  23
ENDBRANCH   3  17
TORSDOF 3
ENDMDL
MODEL 8
REMARK VINA RESULT:      -8.5     15.766     18.736
REMARK  3 active torsions:
REMARK  status: ('A' for Active; 'I' for Inactive)
REMARK    1  A    between atoms: N_3  and  C_4 
REMARK    2  A    between atoms: C_6  and  C_7 
REMARK       I    between atoms: C_7  and  N_8 
REMARK    3  A    between atoms: N_8  and  C_9 
ROOT
HETATM    1  C   UNL     1     -33.707  41.384 -51.487  1.00  0.00     0.072 C 
HETATM    2  C   UNL     1     -33.402  40.146 -52.356  1.00  0.00     0.149 C 
HETATM    3  N   UNL     1     -34.559  39.221 -52.443  1.00  0.00    -0.267 N 
HETATM    4  C   UNL     1     -34.385  37.845 -52.551  1.00  0.00     0.326 C 
HETATM    5  O   UNL     1     -35.283  37.016 -52.683  1.00  0.00    -0.247 OA
HETATM    6  N   UNL     1     -33.099  37.386 -52.510  1.00  0.00    -0.334 N 
HETATM    7  O   UNL     1     -33.065  40.650 -53.666  1.00  0.00    -0.319 OA
HETATM    8  C   UNL     1     -32.250  39.870 -54.438  1.00  0.00     0.080 A 
HETATM    9  C   UNL     1     -31.670  38.684 -53.974  1.00  0.00    -0.002 A 
HETATM   10  C   UNL     1     -31.992  40.326 -55.729  1.00  0.00     0.037 A 
HETATM   11  C   UNL     1     -31.164  39.588 -56.575  1.00  0.00     0.003 A 
HETATM   12  C   UNL     1     -30.600  38.393 -56.129  1.00  0.00     0.001 A 
HETATM   13  C   UNL     1     -30.854  37.938 -54.834  1.00  0.00     0.012 A 
HETATM   14  C   UNL     1     -32.200  39.452 -51.703  1.00  0.00     0.092 C 
HETATM   15  C   UNL     1     -31.944  38.241 -52.565  1.00  0.00     0.127 C 
HETATM   16  H   UNL     1     -33.013  36.402 -52.728  1.00  0.00     0.165 HD
ENDROOT
BRANCH   3  17
HETATM   17  C   UNL     1     -35.880  39.745 -52.588  1.00  0.00     0.043 A 
HETATM   18  C   UNL     1     -36.359  40.177 -53.829  1.00  0.00     0.047 A 
HETATM   19  C   UNL     1     -37.665  40.672 -53.936  1.00  0.00     0.034 A 
HETATM   20  C   UNL     1     -38.476  40.797 -52.806  1.00  0.00     0.017 A 
HETATM   21  C   UNL     1     -38.004  40.362 -51.570  1.00  0.00     0.003 A 
HETATM   22  C   UNL     1     -36.722  39.816 -51.467  1.00  0.00     0.030 A 
BRANCH  19  23
HETATM   23  C   UNL     1     -38.238  41.023 -55.255  1.00  0.00     0.252 C 
HETATM   24  N   UNL     1     -37.392  40.815 -56.322  1.00  0.00    -0.352 N 
HETATM   25  H   UNL     1     -36.455  40.470 -56.148  1.00  0.00     0.163 HD
HETATM   26  O   UNL     1     -39.398  41.402 -55.343  1.00  0.00    -0.268 OA
BRANCH  24  27
HETATM   27  C   UNL     1     -37.800  41.052 -57.689  1.00  0.00     0.084 C 
HETATM   28  C   UNL     1     -36.982  42.152 -58.357  1.00  0.00     0.025 C 
HETATM   29  C   UNL     1     -37.222  41.896 -59.835  1.00  0.00     0.002 C 
HETATM   30  C   UNL     1     -37.191  40.378 -59.960  1.00  0.00     0.002 C 
HETATM   31  C   UNL     1     -37.584  39.831 -58.587  1.00  0.00     0.025 C 
ENDBRANCH  24  27
ENDBRANCH  19  23
ENDBRANCH   3  17
TORSDOF 3
ENDMDL
MODEL 9
REMARK VINA RESULT:      -8.5     16.142     19.112
REMARK  3 active torsions:
REMARK  status: ('A' for Active; 'I' for Inactive)
REMARK    1  A    between atoms: N_3  and  C_4 
REMARK    2  A    between atoms: C_6  and  C_7 
REMARK       I    between atoms: C_7  and  N_8 
REMARK    3  A    between atoms: N_8  and  C_9 
ROOT
HETATM    1  C   UNL     1     -35.719  42.098 -52.494  1.00  0.00     0.072 C 
HETATM    2  C   UNL     1     -35.290  40.737 -51.906  1.00  0.00     0.149 C 
HETATM    3  N   UNL     1     -35.200  39.679 -52.943  1.00  0.00    -0.267 N 
HETATM    4  C   UNL     1     -35.495  38.350 -52.655  1.00  0.00     0.326 C 
HETATM    5  O   UNL     1     -35.394  37.407 -53.436  1.00  0.00    -0.247 OA
HETATM    6  N   UNL     1     -35.931  38.081 -51.389  1.00  0.00    -0.334 N 
HETATM    7  O   UNL     1     -33.998  40.953 -51.299  1.00  0.00    -0.319 OA
HETATM    8  C   UNL     1     -33.651  40.121 -50.271  1.00  0.00     0.080 A 
HETATM    9  C   UNL     1     -34.522  39.163 -49.741  1.00  0.00    -0.002 A 
HETATM   10  C   UNL     1     -32.373  40.285 -49.742  1.00  0.00     0.037 A 
HETATM   11  C   UNL     1     -31.948  39.478 -48.687  1.00  0.00     0.003 A 
HETATM   12  C   UNL     1     -32.801  38.505 -48.167  1.00  0.00     0.001 A 
HETATM   13  C   UNL     1     -34.084  38.343 -48.693  1.00  0.00     0.012 A 
HETATM   14  C   UNL     1     -36.344  40.376 -50.852  1.00  0.00     0.092 C 
HETATM   15  C   UNL     1     -35.905  39.037 -50.315  1.00  0.00     0.127 C 
HETATM   16  H   UNL     1     -36.000  37.092 -51.186  1.00  0.00     0.165 HD
ENDROOT
BRANCH   3  17
HETATM   17  C   UNL     1     -34.643  39.982 -54.222  1.00  0.00     0.043 A 
HETATM   18  C   UNL     1     -35.455  40.165 -55.346  1.00  0.00     0.047 A 
HETATM   19  C   UNL     1     -34.874  40.473 -56.582  1.00  0.00     0.034 A 
HETATM   20  C   UNL     1     -33.486  40.541 -56.721  1.00  0.00     0.017 A 
HETATM   21  C   UNL     1     -32.674  40.366 -55.603  1.00  0.00     0.003 A 
HETATM   22  C   UNL     1     -33.252  40.111 -54.357  1.00  0.00     0.030 A 
BRANCH  19  23
HETATM   23  C   UNL     1     -35.715  40.791 -57.758  1.00  0.00     0.252 C 
HETATM   24  N   UNL     1     -36.030  39.707 -58.548  1.00  0.00    -0.352 N 
HETATM   25  H   UNL     1     -35.664  38.795 -58.302  1.00  0.00     0.163 HD
HETATM   26  O   UNL     1     -36.124  41.930 -57.935  1.00  0.00    -0.268 OA
BRANCH  24  27
HETATM   27  C   UNL     1     -36.886  39.821 -59.709  1.00  0.00     0.084 C 
HETATM   28  C   UNL     1     -36.368  39.010 -60.892  1.00  0.00     0.025 C 
HETATM   29  C   UNL     1     -37.602  38.876 -61.770  1.00  0.00     0.002 C 
HETATM   30  C   UNL     1     -38.737  38.636 -60.782  1.00  0.00     0.002 C 
HETATM   31  C   UNL     1     -38.290  39.261 -59.460  1.00  0.00     0.025 C 
ENDBRANCH  24  27
ENDBRANCH  19  23
ENDBRANCH   3  17
TORSDOF 3
ENDMDL
MODEL 10
REMARK VINA RESULT:      -8.4      2.659      7.668
REMARK  3 active torsions:
REMARK  status: ('A' for Active; 'I' for Inactive)
REMARK    1  A    between atoms: N_3  and  C_4 
REMARK    2  A    between atoms: C_6  and  C_7 
REMARK       I    between atoms: C_7  and  N_8 
REMARK    3  A    between atoms: N_8  and  C_9 
ROOT
HETATM    1  C   UNL     1     -44.101  54.933 -53.972  1.00  0.00     0.072 C 
HETATM    2  C   UNL     1     -42.668  54.768 -53.425  1.00  0.00     0.149 C 
HETATM    3  N   UNL     1     -41.657  55.428 -54.288  1.00  0.00    -0.267 N 
HETATM    4  C   UNL     1     -40.371  54.915 -54.427  1.00  0.00     0.326 C 
HETATM    5  O   UNL     1     -39.460  55.426 -55.075  1.00  0.00    -0.247 OA
HETATM    6  N   UNL     1     -40.109  53.741 -53.781  1.00  0.00    -0.334 N 
HETATM    7  O   UNL     1     -42.670  55.365 -52.111  1.00  0.00    -0.319 OA
HETATM    8  C   UNL     1     -41.751  54.892 -51.215  1.00  0.00     0.080 A 
HETATM    9  C   UNL     1     -40.902  53.815 -51.493  1.00  0.00    -0.002 A 
HETATM   10  C   UNL     1     -41.707  55.526 -49.975  1.00  0.00     0.037 A 
HETATM   11  C   UNL     1     -40.800  55.097 -49.006  1.00  0.00     0.003 A 
HETATM   12  C   UNL     1     -39.936  54.039 -49.282  1.00  0.00     0.001 A 
HETATM   13  C   UNL     1     -39.981  53.400 -50.523  1.00  0.00     0.012 A 
HETATM   14  C   UNL     1     -42.412  53.257 -53.348  1.00  0.00     0.092 C 
HETATM   15  C   UNL     1     -41.000  53.135 -52.829  1.00  0.00     0.127 C 
HETATM   16  H   UNL     1     -39.131  53.479 -53.798  1.00  0.00     0.165 HD
ENDROOT
BRANCH   3  17
HETATM   17  C   UNL     1     -41.936  56.706 -54.861  1.00  0.00     0.043 A 
HETATM   18  C   UNL     1     -42.538  56.823 -56.118  1.00  0.00     0.047 A 
HETATM   19  C   UNL     1     -42.809  58.093 -56.644  1.00  0.00     0.034 A 
HETATM   20  C   UNL     1     -42.429  59.247 -55.954  1.00  0.00     0.017 A 
HETATM   21  C   UNL     1     -41.836  59.133 -54.700  1.00  0.00     0.003 A 
HETATM   22  C   UNL     1     -41.613  57.869 -54.147  1.00  0.00     0.030 A 
BRANCH  19  23
HETATM   23  C   UNL     1     -43.553  58.246 -57.914  1.00  0.00     0.252 C 
HETATM   24  N   UNL     1     -44.071  57.074 -58.421  1.00  0.00    -0.352 N 
HETATM   25  H   UNL     1     -43.900  56.206 -57.927  1.00  0.00     0.163 HD
HETATM   26  O   UNL     1     -43.721  59.355 -58.402  1.00  0.00    -0.268 OA
BRANCH  24  27
HETATM   27  C   UNL     1     -44.871  57.040 -59.625  1.00  0.00     0.084 C 
HETATM   28  C   UNL     1     -44.792  55.694 -60.337  1.00  0.00     0.025 C 
HETATM   29  C   UNL     1     -46.021  55.716 -61.230  1.00  0.00     0.002 C 
HETATM   30  C   UNL     1     -47.100  56.354 -60.364  1.00  0.00     0.002 C 
HETATM   31  C   UNL     1     -46.365  57.224 -59.343  1.00  0.00     0.025 C 
ENDBRANCH  24  27
ENDBRANCH  19  23
ENDBRANCH   3  17
TORSDOF 3
ENDMDL
