MODEL 1
REMARK VINA RESULT:      -7.1      0.000      0.000
REMARK  5 active torsions:
REMARK  status: ('A' for Active; 'I' for Inactive)
REMARK    1  A    between atoms: C_2  and  O_3 
REMARK    2  A    between atoms: C_4  and  C_5 
REMARK    3  A    between atoms: C_5  and  O_6 
REMARK    4  A    between atoms: C_9  and  C_10 
REMARK    5  A    between atoms: C_22  and  O_23 
ROOT
HETATM    1  C   UNL     1     -42.660  58.192 -51.811  1.00  0.00     0.047 C 
HETATM    2  C   UNL     1     -43.290  56.791 -51.680  1.00  0.00     0.073 C 
HETATM    3  C   UNL     1     -42.171  55.737 -51.346  1.00  0.00     0.133 C 
HETATM    4  C   UNL     1     -41.257  55.323 -52.550  1.00  0.00     0.074 C 
HETATM    5  C   UNL     1     -41.865  55.634 -53.880  1.00  0.00     0.030 A 
HETATM    6  C   UNL     1     -43.141  56.120 -54.050  1.00  0.00     0.042 A 
HETATM    7  N   UNL     1     -43.324  56.313 -55.390  1.00  0.00    -0.279 N 
HETATM    8  H   UNL     1     -44.143  56.662 -55.878  1.00  0.00     0.189 HD
HETATM    9  N   UNL     1     -42.217  56.028 -56.109  1.00  0.00    -0.149 NA
HETATM   10  C   UNL     1     -41.356  55.633 -55.181  1.00  0.00     0.190 A 
HETATM   11  C   UNL     1     -44.093  56.447 -52.969  1.00  0.00     0.097 C 
ENDROOT
BRANCH   4  12
HETATM   12  C   UNL     1     -40.850  53.854 -52.621  1.00  0.00    -0.048 A 
HETATM   13  C   UNL     1     -39.971  53.267 -51.687  1.00  0.00     0.009 A 
HETATM   14  C   UNL     1     -39.594  51.927 -51.797  1.00  0.00     0.024 A 
HETATM   15  C   UNL     1     -40.090  51.154 -52.841  1.00  0.00     0.034 A 
HETATM   16 CL   UNL     1     -39.623  49.505 -52.980  1.00  0.00    -0.084 Cl
HETATM   17  C   UNL     1     -40.959  51.711 -53.776  1.00  0.00     0.024 A 
HETATM   18  C   UNL     1     -41.336  53.053 -53.668  1.00  0.00     0.009 A 
ENDBRANCH   4  12
BRANCH   3  19
HETATM   19  C   UNL     1     -42.776  54.549 -50.625  1.00  0.00     0.266 C 
HETATM   20  O   UNL     1     -43.636  53.813 -51.094  1.00  0.00    -0.265 OA
BRANCH  19  21
HETATM   21  O   UNL     1     -42.261  54.449 -49.365  1.00  0.00    -0.326 OA
HETATM   22  C   UNL     1     -41.251  55.412 -49.061  1.00  0.00     0.213 C 
ENDBRANCH  19  21
ENDBRANCH   3  19
BRANCH   2  23
HETATM   23  O   UNL     1     -44.214  56.916 -50.584  1.00  0.00    -0.389 OA
HETATM   24  H   UNL     1     -43.730  57.311 -49.829  1.00  0.00     0.210 HD
ENDBRANCH   2  23
BRANCH  10  25
HETATM   25  O   UNL     1     -40.140  55.332 -55.621  1.00  0.00    -0.343 OA
HETATM   26  H   UNL     1     -39.964  55.986 -56.318  1.00  0.00     0.219 HD
ENDBRANCH  10  25
TORSDOF 5
ENDMDL
MODEL 2
REMARK VINA RESULT:      -7.0     14.381     16.159
REMARK  5 active torsions:
REMARK  status: ('A' for Active; 'I' for Inactive)
REMARK    1  A    between atoms: C_2  and  O_3 
REMARK    2  A    between atoms: C_4  and  C_5 
REMARK    3  A    between atoms: C_5  and  O_6 
REMARK    4  A    between atoms: C_9  and  C_10 
REMARK    5  A    between atoms: C_22  and  O_23 
ROOT
HETATM    1  C   UNL     1     -34.921  38.818 -51.049  1.00  0.00     0.047 C 
HETATM    2  C   UNL     1     -35.300  40.215 -51.579  1.00  0.00     0.073 C 
HETATM    3  C   UNL     1     -36.136  40.071 -52.902  1.00  0.00     0.133 C 
HETATM    4  C   UNL     1     -35.311  39.700 -54.182  1.00  0.00     0.074 C 
HETATM    5  C   UNL     1     -33.851  39.987 -54.040  1.00  0.00     0.030 A 
HETATM    6  C   UNL     1     -33.292  40.622 -52.954  1.00  0.00     0.042 A 
HETATM    7  N   UNL     1     -31.944  40.671 -53.166  1.00  0.00    -0.279 N 
HETATM    8  H   UNL     1     -31.219  41.066 -52.574  1.00  0.00     0.189 HD
HETATM    9  N   UNL     1     -31.577  40.055 -54.311  1.00  0.00    -0.149 NA
HETATM   10  C   UNL     1     -32.737  39.647 -54.810  1.00  0.00     0.190 A 
HETATM   11  C   UNL     1     -34.018  41.083 -51.754  1.00  0.00     0.097 C 
ENDROOT
BRANCH   4  12
HETATM   12  C   UNL     1     -35.735  40.374 -55.484  1.00  0.00    -0.048 A 
HETATM   13  C   UNL     1     -35.218  41.620 -55.893  1.00  0.00     0.009 A 
HETATM   14  C   UNL     1     -35.649  42.226 -57.076  1.00  0.00     0.024 A 
HETATM   15  C   UNL     1     -36.604  41.594 -57.865  1.00  0.00     0.034 A 
HETATM   16 CL   UNL     1     -37.140  42.341 -59.319  1.00  0.00    -0.084 Cl
HETATM   17  C   UNL     1     -37.131  40.363 -57.482  1.00  0.00     0.024 A 
HETATM   18  C   UNL     1     -36.701  39.757 -56.297  1.00  0.00     0.009 A 
ENDBRANCH   4  12
BRANCH   3  19
HETATM   19  C   UNL     1     -37.016  41.290 -53.097  1.00  0.00     0.266 C 
HETATM   20  O   UNL     1     -36.656  42.445 -52.908  1.00  0.00    -0.265 OA
BRANCH  19  21
HETATM   21  O   UNL     1     -38.275  40.910 -53.463  1.00  0.00    -0.326 OA
HETATM   22  C   UNL     1     -39.288  41.218 -52.505  1.00  0.00     0.213 C 
ENDBRANCH  19  21
ENDBRANCH   3  19
BRANCH   2  23
HETATM   23  O   UNL     1     -36.102  40.789 -50.531  1.00  0.00    -0.389 OA
HETATM   24  H   UNL     1     -35.529  41.393 -50.013  1.00  0.00     0.210 HD
ENDBRANCH   2  23
BRANCH  10  25
HETATM   25  O   UNL     1     -32.659  38.953 -55.939  1.00  0.00    -0.343 OA
HETATM   26  H   UNL     1     -32.403  39.607 -56.611  1.00  0.00     0.219 HD
ENDBRANCH  10  25
TORSDOF 5
ENDMDL
MODEL 3
REMARK VINA RESULT:      -6.9      2.176      2.792
REMARK  5 active torsions:
REMARK  status: ('A' for Active; 'I' for Inactive)
REMARK    1  A    between atoms: C_2  and  O_3 
REMARK    2  A    between atoms: C_4  and  C_5 
REMARK    3  A    between atoms: C_5  and  O_6 
REMARK    4  A    between atoms: C_9  and  C_10 
REMARK    5  A    between atoms: C_22  and  O_23 
ROOT
HETATM    1  C   UNL     1     -42.889  60.053 -54.000  1.00  0.00     0.047 C 
HETATM    2  C   UNL     1     -43.417  58.750 -53.369  1.00  0.00     0.073 C 
HETATM    3  C   UNL     1     -42.264  57.682 -53.318  1.00  0.00     0.133 C 
HETATM    4  C   UNL     1     -41.920  56.998 -54.685  1.00  0.00     0.074 C 
HETATM    5  C   UNL     1     -43.014  57.126 -55.696  1.00  0.00     0.030 A 
HETATM    6  C   UNL     1     -44.248  57.677 -55.430  1.00  0.00     0.042 A 
HETATM    7  N   UNL     1     -44.958  57.654 -56.596  1.00  0.00    -0.279 N 
HETATM    8  H   UNL     1     -45.904  57.980 -56.773  1.00  0.00     0.189 HD
HETATM    9  N   UNL     1     -44.241  57.164 -57.630  1.00  0.00    -0.149 NA
HETATM   10  C   UNL     1     -43.078  56.865 -57.066  1.00  0.00     0.190 A 
HETATM   11  C   UNL     1     -44.676  58.257 -54.142  1.00  0.00     0.097 C 
ENDROOT
BRANCH   4  12
HETATM   12  C   UNL     1     -41.583  55.510 -54.636  1.00  0.00    -0.048 A 
HETATM   13  C   UNL     1     -42.569  54.516 -54.472  1.00  0.00     0.009 A 
HETATM   14  C   UNL     1     -42.225  53.165 -54.400  1.00  0.00     0.024 A 
HETATM   15  C   UNL     1     -40.890  52.788 -54.490  1.00  0.00     0.034 A 
HETATM   16 CL   UNL     1     -40.464  51.124 -54.396  1.00  0.00    -0.084 Cl
HETATM   17  C   UNL     1     -39.896  53.751 -54.651  1.00  0.00     0.024 A 
HETATM   18  C   UNL     1     -40.240  55.104 -54.722  1.00  0.00     0.009 A 
ENDBRANCH   4  12
BRANCH   3  19
HETATM   19  C   UNL     1     -42.528  56.685 -52.206  1.00  0.00     0.266 C 
HETATM   20  O   UNL     1     -43.628  56.221 -51.935  1.00  0.00    -0.265 OA
BRANCH  19  21
HETATM   21  O   UNL     1     -41.375  56.422 -51.525  1.00  0.00    -0.326 OA
HETATM   22  C   UNL     1     -40.977  57.448 -50.617  1.00  0.00     0.213 C 
ENDBRANCH  19  21
ENDBRANCH   3  19
BRANCH   2  23
HETATM   23  O   UNL     1     -43.815  59.132 -52.041  1.00  0.00    -0.389 OA
HETATM   24  H   UNL     1     -43.952  60.103 -52.037  1.00  0.00     0.210 HD
ENDBRANCH   2  23
BRANCH  10  25
HETATM   25  O   UNL     1     -42.147  56.396 -57.889  1.00  0.00    -0.343 OA
HETATM   26  H   UNL     1     -42.334  55.444 -57.952  1.00  0.00     0.219 HD
ENDBRANCH  10  25
TORSDOF 5
ENDMDL
MODEL 4
REMARK VINA RESULT:      -6.9      3.729      6.382
REMARK  5 active torsions:
REMARK  status: ('A' for Active; 'I' for Inactive)
REMARK    1  A    between atoms: C_2  and  O_3 
REMARK    2  A    between atoms: C_4  and  C_5 
REMARK    3  A    between atoms: C_5  and  O_6 
REMARK    4  A    between atoms: C_9  and  C_10 
REMARK    5  A    between atoms: C_22  and  O_23 
ROOT
HETATM    1  C   UNL     1     -40.455  54.668 -54.538  1.00  0.00     0.047 C 
HETATM    2  C   UNL     1     -41.652  55.622 -54.710  1.00  0.00     0.073 C 
HETATM    3  C   UNL     1     -41.353  56.984 -53.983  1.00  0.00     0.133 C 
HETATM    4  C   UNL     1     -41.474  56.953 -52.421  1.00  0.00     0.074 C 
HETATM    5  C   UNL     1     -42.279  55.797 -51.919  1.00  0.00     0.030 A 
HETATM    6  C   UNL     1     -42.950  54.913 -52.734  1.00  0.00     0.042 A 
HETATM    7  N   UNL     1     -43.533  53.982 -51.924  1.00  0.00    -0.279 N 
HETATM    8  H   UNL     1     -44.103  53.181 -52.180  1.00  0.00     0.189 HD
HETATM    9  N   UNL     1     -43.240  54.174 -50.619  1.00  0.00    -0.149 NA
HETATM   10  C   UNL     1     -42.480  55.261 -50.646  1.00  0.00     0.190 A 
HETATM   11  C   UNL     1     -42.957  54.934 -54.211  1.00  0.00     0.097 C 
ENDROOT
BRANCH   4  12
HETATM   12  C   UNL     1     -42.081  58.189 -51.761  1.00  0.00    -0.048 A 
HETATM   13  C   UNL     1     -43.471  58.416 -51.716  1.00  0.00     0.009 A 
HETATM   14  C   UNL     1     -43.994  59.572 -51.131  1.00  0.00     0.024 A 
HETATM   15  C   UNL     1     -43.133  60.517 -50.585  1.00  0.00     0.034 A 
HETATM   16 CL   UNL     1     -43.774  61.944 -49.869  1.00  0.00    -0.084 Cl
HETATM   17  C   UNL     1     -41.755  60.316 -50.618  1.00  0.00     0.024 A 
HETATM   18  C   UNL     1     -41.231  59.160 -51.204  1.00  0.00     0.009 A 
ENDBRANCH   4  12
BRANCH   3  19
HETATM   19  C   UNL     1     -42.158  58.101 -54.618  1.00  0.00     0.266 C 
HETATM   20  O   UNL     1     -43.295  57.977 -55.055  1.00  0.00    -0.265 OA
BRANCH  19  21
HETATM   21  O   UNL     1     -41.415  59.244 -54.677  1.00  0.00    -0.326 OA
HETATM   22  C   UNL     1     -42.178  60.449 -54.619  1.00  0.00     0.213 C 
ENDBRANCH  19  21
ENDBRANCH   3  19
BRANCH   2  23
HETATM   23  O   UNL     1     -41.752  55.817 -56.132  1.00  0.00    -0.389 OA
HETATM   24  H   UNL     1     -40.945  55.442 -56.543  1.00  0.00     0.210 HD
ENDBRANCH   2  23
BRANCH  10  25
HETATM   25  O   UNL     1     -42.002  55.652 -49.470  1.00  0.00    -0.343 OA
HETATM   26  H   UNL     1     -41.037  55.589 -49.565  1.00  0.00     0.219 HD
ENDBRANCH  10  25
TORSDOF 5
ENDMDL
MODEL 5
REMARK VINA RESULT:      -6.8     14.664     16.680
REMARK  5 active torsions:
REMARK  status: ('A' for Active; 'I' for Inactive)
REMARK    1  A    between atoms: C_2  and  O_3 
REMARK    2  A    between atoms: C_4  and  C_5 
REMARK    3  A    between atoms: C_5  and  O_6 
REMARK    4  A    between atoms: C_9  and  C_10 
REMARK    5  A    between atoms: C_22  and  O_23 
ROOT
HETATM    1  C   UNL     1     -33.253  40.518 -50.778  1.00  0.00     0.047 C 
HETATM    2  C   UNL     1     -33.381  39.620 -52.024  1.00  0.00     0.073 C 
HETATM    3  C   UNL     1     -33.546  40.515 -53.307  1.00  0.00     0.133 C 
HETATM    4  C   UNL     1     -34.963  41.156 -53.501  1.00  0.00     0.074 C 
HETATM    5  C   UNL     1     -36.030  40.467 -52.713  1.00  0.00     0.030 A 
HETATM    6  C   UNL     1     -35.829  39.316 -51.985  1.00  0.00     0.042 A 
HETATM    7  N   UNL     1     -37.014  39.011 -51.379  1.00  0.00    -0.279 N 
HETATM    8  H   UNL     1     -37.235  38.232 -50.766  1.00  0.00     0.189 HD
HETATM    9  N   UNL     1     -37.974  39.929 -51.627  1.00  0.00    -0.149 NA
HETATM   10  C   UNL     1     -37.355  40.794 -52.420  1.00  0.00     0.190 A 
HETATM   11  C   UNL     1     -34.545  38.603 -51.831  1.00  0.00     0.097 C 
ENDROOT
BRANCH   4  12
HETATM   12  C   UNL     1     -35.489  41.221 -54.932  1.00  0.00    -0.048 A 
HETATM   13  C   UNL     1     -36.339  40.233 -55.471  1.00  0.00     0.009 A 
HETATM   14  C   UNL     1     -36.780  40.305 -56.794  1.00  0.00     0.024 A 
HETATM   15  C   UNL     1     -36.377  41.367 -57.597  1.00  0.00     0.034 A 
HETATM   16 CL   UNL     1     -36.914  41.454 -59.229  1.00  0.00    -0.084 Cl
HETATM   17  C   UNL     1     -35.537  42.354 -57.089  1.00  0.00     0.024 A 
HETATM   18  C   UNL     1     -35.094  42.282 -55.764  1.00  0.00     0.009 A 
ENDBRANCH   4  12
BRANCH   3  19
HETATM   19  C   UNL     1     -33.063  39.762 -54.532  1.00  0.00     0.266 C 
HETATM   20  O   UNL     1     -33.412  38.628 -54.834  1.00  0.00    -0.265 OA
BRANCH  19  21
HETATM   21  O   UNL     1     -32.150  40.511 -55.215  1.00  0.00    -0.326 OA
HETATM   22  C   UNL     1     -32.003  40.154 -56.590  1.00  0.00     0.213 C 
ENDBRANCH  19  21
ENDBRANCH   3  19
BRANCH   2  23
HETATM   23  O   UNL     1     -32.140  38.892 -52.069  1.00  0.00    -0.389 OA
HETATM   24  H   UNL     1     -31.449  39.453 -51.660  1.00  0.00     0.210 HD
ENDBRANCH   2  23
BRANCH  10  25
HETATM   25  O   UNL     1     -38.075  41.849 -52.785  1.00  0.00    -0.343 OA
HETATM   26  H   UNL     1     -37.572  42.246 -53.516  1.00  0.00     0.219 HD
ENDBRANCH  10  25
TORSDOF 5
ENDMDL
MODEL 6
REMARK VINA RESULT:      -6.7      2.652      4.654
REMARK  5 active torsions:
REMARK  status: ('A' for Active; 'I' for Inactive)
REMARK    1  A    between atoms: C_2  and  O_3 
REMARK    2  A    between atoms: C_4  and  C_5 
REMARK    3  A    between atoms: C_5  and  O_6 
REMARK    4  A    between atoms: C_9  and  C_10 
REMARK    5  A    between atoms: C_22  and  O_23 
ROOT
HETATM    1  C   UNL     1     -44.130  57.639 -55.866  1.00  0.00     0.047 C 
HETATM    2  C   UNL     1     -42.717  57.236 -55.401  1.00  0.00     0.073 C 
HETATM    3  C   UNL     1     -42.824  56.162 -54.257  1.00  0.00     0.133 C 
HETATM    4  C   UNL     1     -43.236  56.717 -52.850  1.00  0.00     0.074 C 
HETATM    5  C   UNL     1     -43.020  58.191 -52.716  1.00  0.00     0.030 A 
HETATM    6  C   UNL     1     -42.410  58.971 -53.673  1.00  0.00     0.042 A 
HETATM    7  N   UNL     1     -42.427  60.257 -53.215  1.00  0.00    -0.279 N 
HETATM    8  H   UNL     1     -42.067  61.097 -53.659  1.00  0.00     0.189 HD
HETATM    9  N   UNL     1     -43.062  60.376 -52.029  1.00  0.00    -0.149 NA
HETATM   10  C   UNL     1     -43.415  59.126 -51.758  1.00  0.00     0.190 A 
HETATM   11  C   UNL     1     -41.913  58.502 -54.982  1.00  0.00     0.097 C 
ENDROOT
BRANCH   4  12
HETATM   12  C   UNL     1     -42.545  56.092 -51.643  1.00  0.00    -0.048 A 
HETATM   13  C   UNL     1     -41.314  56.568 -51.145  1.00  0.00     0.009 A 
HETATM   14  C   UNL     1     -40.691  55.954 -50.056  1.00  0.00     0.024 A 
HETATM   15  C   UNL     1     -41.290  54.856 -49.449  1.00  0.00     0.034 A 
HETATM   16 CL   UNL     1     -40.522  54.095 -48.111  1.00  0.00    -0.084 Cl
HETATM   17  C   UNL     1     -42.505  54.366 -49.922  1.00  0.00     0.024 A 
HETATM   18  C   UNL     1     -43.128  54.979 -51.013  1.00  0.00     0.009 A 
ENDBRANCH   4  12
BRANCH   3  19
HETATM   19  C   UNL     1     -41.563  55.320 -54.215  1.00  0.00     0.266 C 
HETATM   20  O   UNL     1     -40.426  55.765 -54.301  1.00  0.00    -0.265 OA
BRANCH  19  21
HETATM   21  O   UNL     1     -41.883  53.997 -54.118  1.00  0.00    -0.326 OA
HETATM   22  C   UNL     1     -40.920  53.205 -53.422  1.00  0.00     0.213 C 
ENDBRANCH  19  21
ENDBRANCH   3  19
BRANCH   2  23
HETATM   23  O   UNL     1     -42.103  56.670 -56.573  1.00  0.00    -0.389 OA
HETATM   24  H   UNL     1     -42.238  57.297 -57.313  1.00  0.00     0.210 HD
ENDBRANCH   2  23
BRANCH  10  25
HETATM   25  O   UNL     1     -44.114  58.959 -50.641  1.00  0.00    -0.343 OA
HETATM   26  H   UNL     1     -44.876  58.418 -50.908  1.00  0.00     0.219 HD
ENDBRANCH  10  25
TORSDOF 5
ENDMDL
MODEL 7
REMARK VINA RESULT:      -6.6      3.340      5.077
REMARK  5 active torsions:
REMARK  status: ('A' for Active; 'I' for Inactive)
REMARK    1  A    between atoms: C_2  and  O_3 
REMARK    2  A    between atoms: C_4  and  C_5 
REMARK    3  A    between atoms: C_5  and  O_6 
REMARK    4  A    between atoms: C_9  and  C_10 
REMARK    5  A    between atoms: C_22  and  O_23 
ROOT
HETATM    1  C   UNL     1     -39.460  54.582 -50.345  1.00  0.00     0.047 C 
HETATM    2  C   UNL     1     -40.961  54.540 -50.696  1.00  0.00     0.073 C 
HETATM    3  C   UNL     1     -41.144  54.657 -52.253  1.00  0.00     0.133 C 
HETATM    4  C   UNL     1     -40.943  56.093 -52.848  1.00  0.00     0.074 C 
HETATM    5  C   UNL     1     -41.062  57.173 -51.822  1.00  0.00     0.030 A 
HETATM    6  C   UNL     1     -41.429  56.956 -50.513  1.00  0.00     0.042 A 
HETATM    7  N   UNL     1     -41.390  58.165 -49.878  1.00  0.00    -0.279 N 
HETATM    8  H   UNL     1     -41.598  58.382 -48.908  1.00  0.00     0.189 HD
HETATM    9  N   UNL     1     -40.968  59.161 -50.687  1.00  0.00    -0.149 NA
HETATM   10  C   UNL     1     -40.769  58.538 -51.841  1.00  0.00     0.190 A 
HETATM   11  C   UNL     1     -41.723  55.644 -49.904  1.00  0.00     0.097 C 
ENDROOT
BRANCH   4  12
HETATM   12  C   UNL     1     -41.885  56.498 -53.978  1.00  0.00    -0.048 A 
HETATM   13  C   UNL     1     -43.124  57.128 -53.741  1.00  0.00     0.009 A 
HETATM   14  C   UNL     1     -43.977  57.459 -54.796  1.00  0.00     0.024 A 
HETATM   15  C   UNL     1     -43.604  57.166 -56.103  1.00  0.00     0.034 A 
HETATM   16 CL   UNL     1     -44.656  57.568 -57.403  1.00  0.00    -0.084 Cl
HETATM   17  C   UNL     1     -42.385  56.543 -56.363  1.00  0.00     0.024 A 
HETATM   18  C   UNL     1     -41.531  56.210 -55.307  1.00  0.00     0.009 A 
ENDBRANCH   4  12
BRANCH   3  19
HETATM   19  C   UNL     1     -42.455  54.020 -52.672  1.00  0.00     0.266 C 
HETATM   20  O   UNL     1     -43.499  54.096 -52.037  1.00  0.00    -0.265 OA
BRANCH  19  21
HETATM   21  O   UNL     1     -42.288  53.312 -53.826  1.00  0.00    -0.326 OA
HETATM   22  C   UNL     1     -41.011  52.686 -53.957  1.00  0.00     0.213 C 
ENDBRANCH  19  21
ENDBRANCH   3  19
BRANCH   2  23
HETATM   23  O   UNL     1     -41.401  53.253 -50.227  1.00  0.00    -0.389 OA
HETATM   24  H   UNL     1     -40.839  53.004 -49.464  1.00  0.00     0.210 HD
ENDBRANCH   2  23
BRANCH  10  25
HETATM   25  O   UNL     1     -40.293  59.295 -52.823  1.00  0.00    -0.343 OA
HETATM   26  H   UNL     1     -40.471  60.207 -52.537  1.00  0.00     0.219 HD
ENDBRANCH  10  25
TORSDOF 5
ENDMDL
MODEL 8
REMARK VINA RESULT:      -6.5      2.985      4.818
REMARK  5 active torsions:
REMARK  status: ('A' for Active; 'I' for Inactive)
REMARK    1  A    between atoms: C_2  and  O_3 
REMARK    2  A    between atoms: C_4  and  C_5 
REMARK    3  A    between atoms: C_5  and  O_6 
REMARK    4  A    between atoms: C_9  and  C_10 
REMARK    5  A    between atoms: C_22  and  O_23 
ROOT
HETATM    1  C   UNL     1     -44.695  60.190 -53.260  1.00  0.00     0.047 C 
HETATM    2  C   UNL     1     -43.561  59.709 -54.187  1.00  0.00     0.073 C 
HETATM    3  C   UNL     1     -43.652  58.149 -54.368  1.00  0.00     0.133 C 
HETATM    4  C   UNL     1     -43.151  57.300 -53.150  1.00  0.00     0.074 C 
HETATM    5  C   UNL     1     -42.267  58.072 -52.223  1.00  0.00     0.030 A 
HETATM    6  C   UNL     1     -41.830  59.355 -52.464  1.00  0.00     0.042 A 
HETATM    7  N   UNL     1     -41.081  59.734 -51.387  1.00  0.00    -0.279 N 
HETATM    8  H   UNL     1     -40.603  60.615 -51.221  1.00  0.00     0.189 HD
HETATM    9  N   UNL     1     -41.042  58.787 -50.424  1.00  0.00    -0.149 NA
HETATM   10  C   UNL     1     -41.768  57.807 -50.946  1.00  0.00     0.190 A 
HETATM   11  C   UNL     1     -42.184  60.183 -53.634  1.00  0.00     0.097 C 
ENDROOT
BRANCH   4  12
HETATM   12  C   UNL     1     -42.382  56.024 -53.480  1.00  0.00    -0.048 A 
HETATM   13  C   UNL     1     -41.031  56.039 -53.884  1.00  0.00     0.009 A 
HETATM   14  C   UNL     1     -40.363  54.856 -54.208  1.00  0.00     0.024 A 
HETATM   15  C   UNL     1     -41.037  53.642 -54.134  1.00  0.00     0.034 A 
HETATM   16 CL   UNL     1     -40.218  52.184 -54.539  1.00  0.00    -0.084 Cl
HETATM   17  C   UNL     1     -42.372  53.601 -53.739  1.00  0.00     0.024 A 
HETATM   18  C   UNL     1     -43.042  54.786 -53.415  1.00  0.00     0.009 A 
ENDBRANCH   4  12
BRANCH   3  19
HETATM   19  C   UNL     1     -43.009  57.740 -55.679  1.00  0.00     0.266 C 
HETATM   20  O   UNL     1     -42.003  58.255 -56.152  1.00  0.00    -0.265 OA
BRANCH  19  21
HETATM   21  O   UNL     1     -43.740  56.755 -56.276  1.00  0.00    -0.326 OA
HETATM   22  C   UNL     1     -42.998  55.924 -57.168  1.00  0.00     0.213 C 
ENDBRANCH  19  21
ENDBRANCH   3  19
BRANCH   2  23
HETATM   23  O   UNL     1     -43.810  60.381 -55.434  1.00  0.00    -0.389 OA
HETATM   24  H   UNL     1     -42.943  60.636 -55.815  1.00  0.00     0.210 HD
ENDBRANCH   2  23
BRANCH  10  25
HETATM   25  O   UNL     1     -41.936  56.744 -50.168  1.00  0.00    -0.343 OA
HETATM   26  H   UNL     1     -41.066  56.311 -50.155  1.00  0.00     0.219 HD
ENDBRANCH  10  25
TORSDOF 5
ENDMDL
MODEL 9
REMARK VINA RESULT:      -6.4      3.501      5.446
REMARK  5 active torsions:
REMARK  status: ('A' for Active; 'I' for Inactive)
REMARK    1  A    between atoms: C_2  and  O_3 
REMARK    2  A    between atoms: C_4  and  C_5 
REMARK    3  A    between atoms: C_5  and  O_6 
REMARK    4  A    between atoms: C_9  and  C_10 
REMARK    5  A    between atoms: C_22  and  O_23 
ROOT
HETATM    1  C   UNL     1     -43.290  54.669 -50.542  1.00  0.00     0.047 C 
HETATM    2  C   UNL     1     -42.517  55.866 -51.130  1.00  0.00     0.073 C 
HETATM    3  C   UNL     1     -43.472  56.713 -52.049  1.00  0.00     0.133 C 
HETATM    4  C   UNL     1     -43.778  56.092 -53.455  1.00  0.00     0.074 C 
HETATM    5  C   UNL     1     -42.780  55.057 -53.866  1.00  0.00     0.030 A 
HETATM    6  C   UNL     1     -41.642  54.757 -53.153  1.00  0.00     0.042 A 
HETATM    7  N   UNL     1     -41.007  53.745 -53.816  1.00  0.00    -0.279 N 
HETATM    8  H   UNL     1     -40.140  53.272 -53.577  1.00  0.00     0.189 HD
HETATM    9  N   UNL     1     -41.693  53.327 -54.901  1.00  0.00    -0.149 NA
HETATM   10  C   UNL     1     -42.754  54.122 -54.903  1.00  0.00     0.190 A 
HETATM   11  C   UNL     1     -41.241  55.365 -51.869  1.00  0.00     0.097 C 
ENDROOT
BRANCH   4  12
HETATM   12  C   UNL     1     -43.860  57.068 -54.625  1.00  0.00    -0.048 A 
HETATM   13  C   UNL     1     -42.727  57.448 -55.375  1.00  0.00     0.009 A 
HETATM   14  C   UNL     1     -42.831  58.366 -56.422  1.00  0.00     0.024 A 
HETATM   15  C   UNL     1     -44.069  58.918 -56.734  1.00  0.00     0.034 A 
HETATM   16 CL   UNL     1     -44.197  60.054 -58.020  1.00  0.00    -0.084 Cl
HETATM   17  C   UNL     1     -45.202  58.560 -56.008  1.00  0.00     0.024 A 
HETATM   18  C   UNL     1     -45.099  57.641 -54.959  1.00  0.00     0.009 A 
ENDBRANCH   4  12
BRANCH   3  19
HETATM   19  C   UNL     1     -42.982  58.146 -52.127  1.00  0.00     0.266 C 
HETATM   20  O   UNL     1     -41.814  58.474 -52.292  1.00  0.00    -0.265 OA
BRANCH  19  21
HETATM   21  O   UNL     1     -44.020  59.011 -51.938  1.00  0.00    -0.326 OA
HETATM   22  C   UNL     1     -45.042  58.527 -51.065  1.00  0.00     0.213 C 
ENDBRANCH  19  21
ENDBRANCH   3  19
BRANCH   2  23
HETATM   23  O   UNL     1     -42.111  56.629 -49.980  1.00  0.00    -0.389 OA
HETATM   24  H   UNL     1     -41.831  55.996 -49.285  1.00  0.00     0.210 HD
ENDBRANCH   2  23
BRANCH  10  25
HETATM   25  O   UNL     1     -43.641  53.888 -55.864  1.00  0.00    -0.343 OA
HETATM   26  H   UNL     1     -44.467  53.691 -55.390  1.00  0.00     0.219 HD
ENDBRANCH  10  25
TORSDOF 5
ENDMDL
MODEL 10
REMARK VINA RESULT:      -6.3     14.493     16.036
REMARK  5 active torsions:
REMARK  status: ('A' for Active; 'I' for Inactive)
REMARK    1  A    between atoms: C_2  and  O_3 
REMARK    2  A    between atoms: C_4  and  C_5 
REMARK    3  A    between atoms: C_5  and  O_6 
REMARK    4  A    between atoms: C_9  and  C_10 
REMARK    5  A    between atoms: C_22  and  O_23 
ROOT
HETATM    1  C   UNL     1     -36.938  42.292 -56.778  1.00  0.00     0.047 C 
HETATM    2  C   UNL     1     -37.214  41.112 -55.826  1.00  0.00     0.073 C 
HETATM    3  C   UNL     1     -36.647  41.442 -54.397  1.00  0.00     0.133 C 
HETATM    4  C   UNL     1     -35.091  41.328 -54.248  1.00  0.00     0.074 C 
HETATM    5  C   UNL     1     -34.459  40.505 -55.324  1.00  0.00     0.030 A 
HETATM    6  C   UNL     1     -35.166  39.812 -56.280  1.00  0.00     0.042 A 
HETATM    7  N   UNL     1     -34.254  39.215 -57.102  1.00  0.00    -0.279 N 
HETATM    8  H   UNL     1     -34.416  38.628 -57.915  1.00  0.00     0.189 HD
HETATM    9  N   UNL     1     -32.980  39.519 -56.770  1.00  0.00    -0.149 NA
HETATM   10  C   UNL     1     -33.132  40.300 -55.708  1.00  0.00     0.190 A 
HETATM   11  C   UNL     1     -36.636  39.797 -56.427  1.00  0.00     0.097 C 
ENDROOT
BRANCH   4  12
HETATM   12  C   UNL     1     -34.574  40.750 -52.934  1.00  0.00    -0.048 A 
HETATM   13  C   UNL     1     -34.214  39.394 -52.794  1.00  0.00     0.009 A 
HETATM   14  C   UNL     1     -33.772  38.888 -51.570  1.00  0.00     0.024 A 
HETATM   15  C   UNL     1     -33.685  39.731 -50.467  1.00  0.00     0.034 A 
HETATM   16 CL   UNL     1     -33.147  39.108 -48.956  1.00  0.00    -0.084 Cl
HETATM   17  C   UNL     1     -34.036  41.074 -50.579  1.00  0.00     0.024 A 
HETATM   18  C   UNL     1     -34.479  41.581 -51.805  1.00  0.00     0.009 A 
ENDBRANCH   4  12
BRANCH   3  19
HETATM   19  C   UNL     1     -37.402  40.655 -53.343  1.00  0.00     0.266 C 
HETATM   20  O   UNL     1     -37.384  39.435 -53.240  1.00  0.00    -0.265 OA
BRANCH  19  21
HETATM   21  O   UNL     1     -38.140  41.497 -52.564  1.00  0.00    -0.326 OA
HETATM   22  C   UNL     1     -39.530  41.179 -52.500  1.00  0.00     0.213 C 
ENDBRANCH  19  21
ENDBRANCH   3  19
BRANCH   2  23
HETATM   23  O   UNL     1     -38.648  41.008 -55.792  1.00  0.00    -0.389 OA
HETATM   24  H   UNL     1     -38.969  41.540 -55.033  1.00  0.00     0.210 HD
ENDBRANCH   2  23
BRANCH  10  25
HETATM   25  O   UNL     1     -32.010  40.791 -55.196  1.00  0.00    -0.343 OA
HETATM   26  H   UNL     1     -32.283  41.614 -54.756  1.00  0.00     0.219 HD
ENDBRANCH  10  25
TORSDOF 5
ENDMDL
