MODEL 1
REMARK VINA RESULT:      -8.5      0.000      0.000
REMARK  1 active torsions:
REMARK  status: ('A' for Active; 'I' for Inactive)
REMARK    1  A    between atoms: C_11  and  N_12 
REMARK       I    between atoms: N_12  and  C_13 
REMARK       I    between atoms: C_13  and  N_14 
ROOT
HETATM    1  N   UNL     1     -41.119  54.766 -51.688  1.00  0.00    -0.308 N 
HETATM    2  C   UNL     1     -42.125  55.652 -51.981  1.00  0.00     0.323 C 
HETATM    3  N   UNL     1     -42.117  56.818 -51.197  1.00  0.00    -0.332 N 
HETATM    4  C   UNL     1     -43.238  57.737 -51.397  1.00  0.00     0.160 C 
HETATM    5  C   UNL     1     -42.917  58.908 -52.358  1.00  0.00     0.204 C 
HETATM    6  N   UNL     1     -42.403  60.089 -51.561  1.00  0.00    -0.069 N 
HETATM    7  H   UNL     1     -43.114  60.384 -50.878  1.00  0.00     0.277 HD
HETATM    8  H   UNL     1     -42.321  60.887 -52.210  1.00  0.00     0.277 HD
HETATM    9  C   UNL     1     -41.089  59.898 -50.877  1.00  0.00     0.239 C 
HETATM   10  C   UNL     1     -40.376  58.624 -51.333  1.00  0.00     0.029 C 
HETATM   11  C   UNL     1     -40.908  57.378 -50.591  1.00  0.00     0.134 C 
HETATM   12  C   UNL     1     -41.864  58.620 -53.431  1.00  0.00     0.035 C 
HETATM   13  C   UNL     1     -40.440  58.478 -52.862  1.00  0.00     0.010 C 
HETATM   14  O   UNL     1     -42.975  55.506 -52.854  1.00  0.00    -0.247 OA
HETATM   15  H   UNL     1     -40.816  54.792 -50.730  1.00  0.00     0.170 HD
ENDROOT
BRANCH   1  16
HETATM   16  C   UNL     1     -40.695  53.640 -52.447  1.00  0.00     0.049 A 
HETATM   17  C   UNL     1     -40.393  52.405 -51.779  1.00  0.00     0.021 A 
HETATM   18  C   UNL     1     -39.946  51.287 -52.531  1.00  0.00     0.090 A 
HETATM   19  C   UNL     1     -40.496  52.207 -50.377  1.00  0.00     0.017 A 
HETATM   20  N   UNL     1     -39.641  50.106 -51.944  1.00  0.00    -0.259 NA
HETATM   21  C   UNL     1     -39.817  51.432 -53.917  1.00  0.00     0.063 A 
HETATM   22  C   UNL     1     -39.757  49.971 -50.611  1.00  0.00     0.117 A 
HETATM   23  C   UNL     1     -40.177  50.987 -49.789  1.00  0.00     0.020 A 
HETATM   24 CL   UNL     1     -39.279  50.112 -54.908  1.00  0.00    -0.082 Cl
HETATM   25  C   UNL     1     -40.097  52.632 -54.565  1.00  0.00     0.028 A 
HETATM   26  C   UNL     1     -40.525  53.731 -53.832  1.00  0.00     0.032 A 
ENDBRANCH   1  16
TORSDOF 1
ENDMDL
MODEL 2
REMARK VINA RESULT:      -8.4      1.621      2.916
REMARK  1 active torsions:
REMARK  status: ('A' for Active; 'I' for Inactive)
REMARK    1  A    between atoms: C_11  and  N_12 
REMARK       I    between atoms: N_12  and  C_13 
REMARK       I    between atoms: C_13  and  N_14 
ROOT
HETATM    1  N   UNL     1     -41.132  56.058 -50.975  1.00  0.00    -0.308 N 
HETATM    2  C   UNL     1     -42.363  56.620 -51.210  1.00  0.00     0.323 C 
HETATM    3  N   UNL     1     -42.324  57.994 -51.506  1.00  0.00    -0.332 N 
HETATM    4  C   UNL     1     -43.620  58.658 -51.650  1.00  0.00     0.160 C 
HETATM    5  C   UNL     1     -44.085  58.801 -53.120  1.00  0.00     0.204 C 
HETATM    6  N   UNL     1     -43.613  60.130 -53.672  1.00  0.00    -0.069 N 
HETATM    7  H   UNL     1     -44.001  60.899 -53.108  1.00  0.00     0.277 HD
HETATM    8  H   UNL     1     -44.043  60.249 -54.602  1.00  0.00     0.277 HD
HETATM    9  C   UNL     1     -42.134  60.296 -53.810  1.00  0.00     0.239 C 
HETATM   10  C   UNL     1     -41.381  58.980 -53.616  1.00  0.00     0.029 C 
HETATM   11  C   UNL     1     -41.173  58.659 -52.118  1.00  0.00     0.134 C 
HETATM   12  C   UNL     1     -43.578  57.727 -54.087  1.00  0.00     0.035 C 
HETATM   13  C   UNL     1     -42.070  57.836 -54.378  1.00  0.00     0.010 C 
HETATM   14  O   UNL     1     -43.435  56.025 -51.199  1.00  0.00    -0.247 OA
HETATM   15  H   UNL     1     -40.459  56.695 -50.587  1.00  0.00     0.170 HD
ENDROOT
BRANCH   1  16
HETATM   16  C   UNL     1     -40.800  54.676 -50.907  1.00  0.00     0.049 A 
HETATM   17  C   UNL     1     -40.578  53.939 -52.120  1.00  0.00     0.021 A 
HETATM   18  C   UNL     1     -40.269  52.555 -52.056  1.00  0.00     0.090 A 
HETATM   19  C   UNL     1     -40.655  54.497 -53.423  1.00  0.00     0.017 A 
HETATM   20  N   UNL     1     -40.060  51.817 -53.171  1.00  0.00    -0.259 NA
HETATM   21  C   UNL     1     -40.191  51.952 -50.796  1.00  0.00     0.063 A 
HETATM   22  C   UNL     1     -40.144  52.395 -54.383  1.00  0.00     0.117 A 
HETATM   23  C   UNL     1     -40.439  53.725 -54.559  1.00  0.00     0.020 A 
HETATM   24 CL   UNL     1     -39.818  50.265 -50.632  1.00  0.00    -0.082 Cl
HETATM   25  C   UNL     1     -40.419  52.663 -49.620  1.00  0.00     0.028 A 
HETATM   26  C   UNL     1     -40.730  54.015 -49.678  1.00  0.00     0.032 A 
ENDBRANCH   1  16
TORSDOF 1
ENDMDL
MODEL 3
REMARK VINA RESULT:      -8.3      0.981      1.232
REMARK  1 active torsions:
REMARK  status: ('A' for Active; 'I' for Inactive)
REMARK    1  A    between atoms: C_11  and  N_12 
REMARK       I    between atoms: N_12  and  C_13 
REMARK       I    between atoms: C_13  and  N_14 
ROOT
HETATM    1  N   UNL     1     -40.983  55.161 -52.372  1.00  0.00    -0.308 N 
HETATM    2  C   UNL     1     -42.226  55.742 -52.335  1.00  0.00     0.323 C 
HETATM    3  N   UNL     1     -42.216  57.109 -52.007  1.00  0.00    -0.332 N 
HETATM    4  C   UNL     1     -43.525  57.742 -51.844  1.00  0.00     0.160 C 
HETATM    5  C   UNL     1     -44.012  58.497 -53.105  1.00  0.00     0.204 C 
HETATM    6  N   UNL     1     -43.570  59.944 -53.030  1.00  0.00    -0.069 N 
HETATM    7  H   UNL     1     -43.965  60.384 -52.187  1.00  0.00     0.277 HD
HETATM    8  H   UNL     1     -44.015  60.444 -53.814  1.00  0.00     0.277 HD
HETATM    9  C   UNL     1     -42.097  60.186 -53.088  1.00  0.00     0.239 C 
HETATM   10  C   UNL     1     -41.318  58.931 -53.486  1.00  0.00     0.029 C 
HETATM   11  C   UNL     1     -41.085  57.999 -52.276  1.00  0.00     0.134 C 
HETATM   12  C   UNL     1     -43.498  57.959 -54.444  1.00  0.00     0.035 C 
HETATM   13  C   UNL     1     -41.997  58.216 -54.666  1.00  0.00     0.010 C 
HETATM   14  O   UNL     1     -43.287  55.178 -52.578  1.00  0.00    -0.247 OA
HETATM   15  H   UNL     1     -40.316  55.581 -51.749  1.00  0.00     0.170 HD
ENDROOT
BRANCH   1  16
HETATM   16  C   UNL     1     -40.625  53.893 -52.910  1.00  0.00     0.049 A 
HETATM   17  C   UNL     1     -40.420  52.779 -52.027  1.00  0.00     0.021 A 
HETATM   18  C   UNL     1     -40.040  51.520 -52.559  1.00  0.00     0.090 A 
HETATM   19  C   UNL     1     -40.561  52.839 -50.616  1.00  0.00     0.017 A 
HETATM   20  N   UNL     1     -39.827  50.444 -51.766  1.00  0.00    -0.259 NA
HETATM   21  C   UNL     1     -39.877  51.408 -53.945  1.00  0.00     0.063 A 
HETATM   22  C   UNL     1     -39.975  50.553 -50.434  1.00  0.00     0.117 A 
HETATM   23  C   UNL     1     -40.337  51.724 -49.815  1.00  0.00     0.020 A 
HETATM   24 CL   UNL     1     -39.415  49.902 -54.674  1.00  0.00    -0.082 Cl
HETATM   25  C   UNL     1     -40.063  52.492 -54.800  1.00  0.00     0.028 A 
HETATM   26  C   UNL     1     -40.425  53.727 -54.284  1.00  0.00     0.032 A 
ENDBRANCH   1  16
TORSDOF 1
ENDMDL
MODEL 4
REMARK VINA RESULT:      -8.0      4.583      5.949
REMARK  1 active torsions:
REMARK  status: ('A' for Active; 'I' for Inactive)
REMARK    1  A    between atoms: C_11  and  N_12 
REMARK       I    between atoms: N_12  and  C_13 
REMARK       I    between atoms: C_13  and  N_14 
ROOT
HETATM    1  N   UNL     1     -41.725  56.578 -55.856  1.00  0.00    -0.308 N 
HETATM    2  C   UNL     1     -42.984  56.799 -56.357  1.00  0.00     0.323 C 
HETATM    3  N   UNL     1     -43.032  57.725 -57.413  1.00  0.00    -0.332 N 
HETATM    4  C   UNL     1     -44.366  58.078 -57.900  1.00  0.00     0.160 C 
HETATM    5  C   UNL     1     -44.797  57.285 -59.159  1.00  0.00     0.204 C 
HETATM    6  N   UNL     1     -44.401  58.055 -60.402  1.00  0.00    -0.069 N 
HETATM    7  H   UNL     1     -44.857  58.977 -60.399  1.00  0.00     0.277 HD
HETATM    8  H   UNL     1     -44.812  57.566 -61.212  1.00  0.00     0.277 HD
HETATM    9  C   UNL     1     -42.934  58.213 -60.637  1.00  0.00     0.239 C 
HETATM   10  C   UNL     1     -42.098  57.329 -59.711  1.00  0.00     0.029 C 
HETATM   11  C   UNL     1     -41.912  57.978 -58.321  1.00  0.00     0.134 C 
HETATM   12  C   UNL     1     -44.189  55.887 -59.306  1.00  0.00     0.035 C 
HETATM   13  C   UNL     1     -42.684  55.910 -59.631  1.00  0.00     0.010 C 
HETATM   14  O   UNL     1     -44.013  56.251 -55.974  1.00  0.00    -0.247 OA
HETATM   15  H   UNL     1     -41.109  57.367 -55.934  1.00  0.00     0.170 HD
ENDROOT
BRANCH   1  16
HETATM   16  C   UNL     1     -41.300  55.536 -54.985  1.00  0.00     0.049 A 
HETATM   17  C   UNL     1     -41.354  55.733 -53.563  1.00  0.00     0.021 A 
HETATM   18  C   UNL     1     -40.909  54.704 -52.692  1.00  0.00     0.090 A 
HETATM   19  C   UNL     1     -41.822  56.917 -52.935  1.00  0.00     0.017 A 
HETATM   20  N   UNL     1     -40.933  54.847 -51.346  1.00  0.00    -0.259 NA
HETATM   21  C   UNL     1     -40.428  53.519 -53.259  1.00  0.00     0.063 A 
HETATM   22  C   UNL     1     -41.387  55.990 -50.801  1.00  0.00     0.117 A 
HETATM   23  C   UNL     1     -41.838  57.048 -51.550  1.00  0.00     0.020 A 
HETATM   24 CL   UNL     1     -39.866  52.213 -52.263  1.00  0.00    -0.082 Cl
HETATM   25  C   UNL     1     -40.363  53.332 -54.638  1.00  0.00     0.028 A 
HETATM   26  C   UNL     1     -40.789  54.339 -55.494  1.00  0.00     0.032 A 
ENDBRANCH   1  16
TORSDOF 1
ENDMDL
MODEL 5
REMARK VINA RESULT:      -8.0      2.017      2.991
REMARK  1 active torsions:
REMARK  status: ('A' for Active; 'I' for Inactive)
REMARK    1  A    between atoms: C_11  and  N_12 
REMARK       I    between atoms: N_12  and  C_13 
REMARK       I    between atoms: C_13  and  N_14 
ROOT
HETATM    1  N   UNL     1     -42.230  55.242 -53.712  1.00  0.00    -0.308 N 
HETATM    2  C   UNL     1     -41.802  56.534 -53.886  1.00  0.00     0.323 C 
HETATM    3  N   UNL     1     -42.828  57.451 -54.170  1.00  0.00    -0.332 N 
HETATM    4  C   UNL     1     -42.405  58.818 -54.475  1.00  0.00     0.160 C 
HETATM    5  C   UNL     1     -42.481  59.778 -53.263  1.00  0.00     0.204 C 
HETATM    6  N   UNL     1     -43.834  60.458 -53.241  1.00  0.00    -0.069 N 
HETATM    7  H   UNL     1     -43.971  60.988 -54.114  1.00  0.00     0.277 HD
HETATM    8  H   UNL     1     -43.806  61.178 -52.504  1.00  0.00     0.277 HD
HETATM    9  C   UNL     1     -45.011  59.572 -52.994  1.00  0.00     0.239 C 
HETATM   10  C   UNL     1     -44.599  58.171 -52.539  1.00  0.00     0.029 C 
HETATM   11  C   UNL     1     -44.215  57.274 -53.738  1.00  0.00     0.134 C 
HETATM   12  C   UNL     1     -42.302  59.129 -51.887  1.00  0.00     0.035 C 
HETATM   13  C   UNL     1     -43.493  58.245 -51.474  1.00  0.00     0.010 C 
HETATM   14  O   UNL     1     -40.642  56.922 -53.793  1.00  0.00    -0.247 OA
HETATM   15  H   UNL     1     -43.057  55.011 -54.235  1.00  0.00     0.170 HD
ENDROOT
BRANCH   1  16
HETATM   16  C   UNL     1     -41.505  54.144 -53.171  1.00  0.00     0.049 A 
HETATM   17  C   UNL     1     -41.288  54.066 -51.753  1.00  0.00     0.021 A 
HETATM   18  C   UNL     1     -40.544  52.985 -51.212  1.00  0.00     0.090 A 
HETATM   19  C   UNL     1     -41.762  55.021 -50.816  1.00  0.00     0.017 A 
HETATM   20  N   UNL     1     -40.306  52.874 -49.885  1.00  0.00    -0.259 NA
HETATM   21  C   UNL     1     -40.043  52.020 -52.094  1.00  0.00     0.063 A 
HETATM   22  C   UNL     1     -40.780  53.807 -49.039  1.00  0.00     0.117 A 
HETATM   23  C   UNL     1     -41.508  54.894 -49.454  1.00  0.00     0.020 A 
HETATM   24 CL   UNL     1     -39.125  50.667 -51.512  1.00  0.00    -0.082 Cl
HETATM   25  C   UNL     1     -40.242  52.102 -53.470  1.00  0.00     0.028 A 
HETATM   26  C   UNL     1     -40.961  53.162 -54.004  1.00  0.00     0.032 A 
ENDBRANCH   1  16
TORSDOF 1
ENDMDL
MODEL 6
REMARK VINA RESULT:      -7.8      2.871      3.673
REMARK  1 active torsions:
REMARK  status: ('A' for Active; 'I' for Inactive)
REMARK    1  A    between atoms: C_11  and  N_12 
REMARK       I    between atoms: N_12  and  C_13 
REMARK       I    between atoms: C_13  and  N_14 
ROOT
HETATM    1  N   UNL     1     -41.817  56.204 -53.923  1.00  0.00    -0.308 N 
HETATM    2  C   UNL     1     -43.082  56.534 -54.340  1.00  0.00     0.323 C 
HETATM    3  N   UNL     1     -43.247  57.892 -54.667  1.00  0.00    -0.332 N 
HETATM    4  C   UNL     1     -44.607  58.311 -55.006  1.00  0.00     0.160 C 
HETATM    5  C   UNL     1     -44.879  58.365 -56.529  1.00  0.00     0.204 C 
HETATM    6  N   UNL     1     -44.577  59.755 -57.049  1.00  0.00    -0.069 N 
HETATM    7  H   UNL     1     -45.171  60.443 -56.565  1.00  0.00     0.277 HD
HETATM    8  H   UNL     1     -44.888  59.792 -58.031  1.00  0.00     0.277 HD
HETATM    9  C   UNL     1     -43.148  60.184 -56.987  1.00  0.00     0.239 C 
HETATM   10  C   UNL     1     -42.207  59.025 -56.654  1.00  0.00     0.029 C 
HETATM   11  C   UNL     1     -42.158  58.751 -55.133  1.00  0.00     0.134 C 
HETATM   12  C   UNL     1     -44.059  57.396 -57.387  1.00  0.00     0.035 C 
HETATM   13  C   UNL     1     -42.569  57.773 -57.471  1.00  0.00     0.010 C 
HETATM   14  O   UNL     1     -44.022  55.756 -54.459  1.00  0.00    -0.247 OA
HETATM   15  H   UNL     1     -41.328  56.952 -53.464  1.00  0.00     0.170 HD
ENDROOT
BRANCH   1  16
HETATM   16  C   UNL     1     -41.257  54.904 -53.771  1.00  0.00     0.049 A 
HETATM   17  C   UNL     1     -40.998  54.392 -52.454  1.00  0.00     0.021 A 
HETATM   18  C   UNL     1     -40.417  53.106 -52.300  1.00  0.00     0.090 A 
HETATM   19  C   UNL     1     -41.273  55.095 -51.252  1.00  0.00     0.017 A 
HETATM   20  N   UNL     1     -40.147  52.586 -51.080  1.00  0.00    -0.259 NA
HETATM   21  C   UNL     1     -40.116  52.374 -53.453  1.00  0.00     0.063 A 
HETATM   22  C   UNL     1     -40.429  53.294 -49.972  1.00  0.00     0.117 A 
HETATM   23  C   UNL     1     -40.988  54.547 -50.006  1.00  0.00     0.020 A 
HETATM   24 CL   UNL     1     -39.406  50.793 -53.350  1.00  0.00    -0.082 Cl
HETATM   25  C   UNL     1     -40.355  52.875 -54.731  1.00  0.00     0.028 A 
HETATM   26  C   UNL     1     -40.913  54.136 -54.887  1.00  0.00     0.032 A 
ENDBRANCH   1  16
TORSDOF 1
ENDMDL
MODEL 7
REMARK VINA RESULT:      -7.7     14.606     16.296
REMARK  1 active torsions:
REMARK  status: ('A' for Active; 'I' for Inactive)
REMARK    1  A    between atoms: C_11  and  N_12 
REMARK       I    between atoms: N_12  and  C_13 
REMARK       I    between atoms: C_13  and  N_14 
ROOT
HETATM    1  N   UNL     1     -35.872  41.656 -53.969  1.00  0.00    -0.308 N 
HETATM    2  C   UNL     1     -36.827  40.892 -54.591  1.00  0.00     0.323 C 
HETATM    3  N   UNL     1     -37.395  41.490 -55.729  1.00  0.00    -0.332 N 
HETATM    4  C   UNL     1     -38.497  40.761 -56.357  1.00  0.00     0.160 C 
HETATM    5  C   UNL     1     -38.062  39.899 -57.568  1.00  0.00     0.204 C 
HETATM    6  N   UNL     1     -38.192  40.711 -58.840  1.00  0.00    -0.069 N 
HETATM    7  H   UNL     1     -39.168  41.013 -58.961  1.00  0.00     0.277 HD
HETATM    8  H   UNL     1     -38.019  40.074 -59.632  1.00  0.00     0.277 HD
HETATM    9  C   UNL     1     -37.276  41.884 -58.966  1.00  0.00     0.239 C 
HETATM   10  C   UNL     1     -36.185  41.888 -57.895  1.00  0.00     0.029 C 
HETATM   11  C   UNL     1     -36.699  42.473 -56.560  1.00  0.00     0.134 C 
HETATM   12  C   UNL     1     -36.622  39.379 -57.532  1.00  0.00     0.035 C 
HETATM   13  C   UNL     1     -35.572  40.487 -57.732  1.00  0.00     0.010 C 
HETATM   14  O   UNL     1     -37.182  39.769 -54.247  1.00  0.00    -0.247 OA
HETATM   15  H   UNL     1     -36.010  42.646 -54.069  1.00  0.00     0.170 HD
ENDROOT
BRANCH   1  16
HETATM   16  C   UNL     1     -34.940  41.252 -52.972  1.00  0.00     0.049 A 
HETATM   17  C   UNL     1     -33.792  40.474 -53.346  1.00  0.00     0.021 A 
HETATM   18  C   UNL     1     -32.874  40.049 -52.350  1.00  0.00     0.090 A 
HETATM   19  C   UNL     1     -33.496  40.070 -54.674  1.00  0.00     0.017 A 
HETATM   20  N   UNL     1     -31.784  39.307 -52.654  1.00  0.00    -0.259 NA
HETATM   21  C   UNL     1     -33.124  40.410 -51.022  1.00  0.00     0.063 A 
HETATM   22  C   UNL     1     -31.548  38.952 -53.930  1.00  0.00     0.117 A 
HETATM   23  C   UNL     1     -32.372  39.307 -54.970  1.00  0.00     0.020 A 
HETATM   24 CL   UNL     1     -32.049  39.931 -49.746  1.00  0.00    -0.082 Cl
HETATM   25  C   UNL     1     -34.244  41.154 -50.657  1.00  0.00     0.028 A 
HETATM   26  C   UNL     1     -35.149  41.563 -51.625  1.00  0.00     0.032 A 
ENDBRANCH   1  16
TORSDOF 1
ENDMDL
MODEL 8
REMARK VINA RESULT:      -7.7      2.459      3.564
REMARK  1 active torsions:
REMARK  status: ('A' for Active; 'I' for Inactive)
REMARK    1  A    between atoms: C_11  and  N_12 
REMARK       I    between atoms: N_12  and  C_13 
REMARK       I    between atoms: C_13  and  N_14 
ROOT
HETATM    1  N   UNL     1     -42.994  55.155 -54.129  1.00  0.00    -0.308 N 
HETATM    2  C   UNL     1     -42.776  56.167 -55.029  1.00  0.00     0.323 C 
HETATM    3  N   UNL     1     -43.836  57.084 -55.138  1.00  0.00    -0.332 N 
HETATM    4  C   UNL     1     -43.694  58.113 -56.168  1.00  0.00     0.160 C 
HETATM    5  C   UNL     1     -43.163  59.464 -55.628  1.00  0.00     0.204 C 
HETATM    6  N   UNL     1     -44.330  60.349 -55.243  1.00  0.00    -0.069 N 
HETATM    7  H   UNL     1     -44.927  60.514 -56.065  1.00  0.00     0.277 HD
HETATM    8  H   UNL     1     -43.949  61.278 -55.009  1.00  0.00     0.277 HD
HETATM    9  C   UNL     1     -45.163  59.877 -54.096  1.00  0.00     0.239 C 
HETATM   10  C   UNL     1     -44.514  58.711 -53.348  1.00  0.00     0.029 C 
HETATM   11  C   UNL     1     -44.780  57.363 -54.055  1.00  0.00     0.134 C 
HETATM   12  C   UNL     1     -42.260  59.378 -54.393  1.00  0.00     0.035 C 
HETATM   13  C   UNL     1     -43.017  58.974 -53.115  1.00  0.00     0.010 C 
HETATM   14  O   UNL     1     -41.757  56.327 -55.694  1.00  0.00    -0.247 OA
HETATM   15  H   UNL     1     -43.961  54.905 -54.020  1.00  0.00     0.170 HD
ENDROOT
BRANCH   1  16
HETATM   16  C   UNL     1     -42.046  54.234 -53.599  1.00  0.00     0.049 A 
HETATM   17  C   UNL     1     -41.487  54.462 -52.296  1.00  0.00     0.021 A 
HETATM   18  C   UNL     1     -40.524  53.558 -51.776  1.00  0.00     0.090 A 
HETATM   19  C   UNL     1     -41.822  55.560 -51.461  1.00  0.00     0.017 A 
HETATM   20  N   UNL     1     -39.963  53.736 -50.557  1.00  0.00    -0.259 NA
HETATM   21  C   UNL     1     -40.151  52.464 -52.563  1.00  0.00     0.063 A 
HETATM   22  C   UNL     1     -40.316  54.794 -49.804  1.00  0.00     0.117 A 
HETATM   23  C   UNL     1     -41.235  55.729 -50.211  1.00  0.00     0.020 A 
HETATM   24 CL   UNL     1     -38.980  51.313 -51.998  1.00  0.00    -0.082 Cl
HETATM   25  C   UNL     1     -40.683  52.249 -53.832  1.00  0.00     0.028 A 
HETATM   26  C   UNL     1     -41.618  53.135 -54.349  1.00  0.00     0.032 A 
ENDBRANCH   1  16
TORSDOF 1
ENDMDL
MODEL 9
REMARK VINA RESULT:      -7.6      2.226      3.589
REMARK  1 active torsions:
REMARK  status: ('A' for Active; 'I' for Inactive)
REMARK    1  A    between atoms: C_11  and  N_12 
REMARK       I    between atoms: N_12  and  C_13 
REMARK       I    between atoms: C_13  and  N_14 
ROOT
HETATM    1  N   UNL     1     -41.309  56.577 -52.248  1.00  0.00    -0.308 N 
HETATM    2  C   UNL     1     -42.546  57.117 -52.495  1.00  0.00     0.323 C 
HETATM    3  N   UNL     1     -42.517  58.337 -53.194  1.00  0.00    -0.332 N 
HETATM    4  C   UNL     1     -43.805  59.005 -53.379  1.00  0.00     0.160 C 
HETATM    5  C   UNL     1     -44.454  58.734 -54.758  1.00  0.00     0.204 C 
HETATM    6  N   UNL     1     -44.028  59.808 -55.737  1.00  0.00    -0.069 N 
HETATM    7  H   UNL     1     -44.322  60.732 -55.390  1.00  0.00     0.277 HD
HETATM    8  H   UNL     1     -44.574  59.672 -56.602  1.00  0.00     0.277 HD
HETATM    9  C   UNL     1     -42.577  59.837 -56.091  1.00  0.00     0.239 C 
HETATM   10  C   UNL     1     -41.834  58.594 -55.599  1.00  0.00     0.029 C 
HETATM   11  C   UNL     1     -41.441  58.720 -54.110  1.00  0.00     0.134 C 
HETATM   12  C   UNL     1     -44.101  57.393 -55.408  1.00  0.00     0.035 C 
HETATM   13  C   UNL     1     -42.642  57.319 -55.894  1.00  0.00     0.010 C 
HETATM   14  O   UNL     1     -43.621  56.618 -52.179  1.00  0.00    -0.247 OA
HETATM   15  H   UNL     1     -40.576  57.258 -52.152  1.00  0.00     0.170 HD
ENDROOT
BRANCH   1  16
HETATM   16  C   UNL     1     -41.001  55.260 -51.806  1.00  0.00     0.049 A 
HETATM   17  C   UNL     1     -40.738  54.230 -52.772  1.00  0.00     0.021 A 
HETATM   18  C   UNL     1     -40.454  52.910 -52.334  1.00  0.00     0.090 A 
HETATM   19  C   UNL     1     -40.750  54.428 -54.178  1.00  0.00     0.017 A 
HETATM   20  N   UNL     1     -40.209  51.905 -53.207  1.00  0.00    -0.259 NA
HETATM   21  C   UNL     1     -40.440  52.658 -50.958  1.00  0.00     0.063 A 
HETATM   22  C   UNL     1     -40.231  52.146 -54.530  1.00  0.00     0.117 A 
HETATM   23  C   UNL     1     -40.497  53.384 -55.061  1.00  0.00     0.020 A 
HETATM   24 CL   UNL     1     -40.100  51.071 -50.342  1.00  0.00    -0.082 Cl
HETATM   25  C   UNL     1     -40.708  53.653 -50.021  1.00  0.00     0.028 A 
HETATM   26  C   UNL     1     -40.995  54.943 -50.445  1.00  0.00     0.032 A 
ENDBRANCH   1  16
TORSDOF 1
ENDMDL
MODEL 10
REMARK VINA RESULT:      -7.6      2.923      4.214
REMARK  1 active torsions:
REMARK  status: ('A' for Active; 'I' for Inactive)
REMARK    1  A    between atoms: C_11  and  N_12 
REMARK       I    between atoms: N_12  and  C_13 
REMARK       I    between atoms: C_13  and  N_14 
ROOT
HETATM    1  N   UNL     1     -42.300  55.961 -53.325  1.00  0.00    -0.308 N 
HETATM    2  C   UNL     1     -41.903  57.122 -53.939  1.00  0.00     0.323 C 
HETATM    3  N   UNL     1     -42.753  57.549 -54.974  1.00  0.00    -0.332 N 
HETATM    4  C   UNL     1     -42.308  58.719 -55.732  1.00  0.00     0.160 C 
HETATM    5  C   UNL     1     -42.944  60.048 -55.255  1.00  0.00     0.204 C 
HETATM    6  N   UNL     1     -44.208  60.316 -56.045  1.00  0.00    -0.069 N 
HETATM    7  H   UNL     1     -43.984  60.377 -57.048  1.00  0.00     0.277 HD
HETATM    8  H   UNL     1     -44.534  61.261 -55.795  1.00  0.00     0.277 HD
HETATM    9  C   UNL     1     -45.332  59.354 -55.833  1.00  0.00     0.239 C 
HETATM   10  C   UNL     1     -45.085  58.425 -54.644  1.00  0.00     0.029 C 
HETATM   11  C   UNL     1     -44.181  57.233 -55.032  1.00  0.00     0.134 C 
HETATM   12  C   UNL     1     -43.339  60.104 -53.777  1.00  0.00     0.035 C 
HETATM   13  C   UNL     1     -44.546  59.211 -53.437  1.00  0.00     0.010 C 
HETATM   14  O   UNL     1     -40.915  57.787 -53.643  1.00  0.00    -0.247 OA
HETATM   15  H   UNL     1     -42.810  55.335 -53.922  1.00  0.00     0.170 HD
ENDROOT
BRANCH   1  16
HETATM   16  C   UNL     1     -41.822  55.410 -52.102  1.00  0.00     0.049 A 
HETATM   17  C   UNL     1     -41.096  54.170 -52.118  1.00  0.00     0.021 A 
HETATM   18  C   UNL     1     -40.640  53.606 -50.898  1.00  0.00     0.090 A 
HETATM   19  C   UNL     1     -40.797  53.432 -53.293  1.00  0.00     0.017 A 
HETATM   20  N   UNL     1     -39.960  52.437 -50.862  1.00  0.00    -0.259 NA
HETATM   21  C   UNL     1     -40.917  54.289 -49.709  1.00  0.00     0.063 A 
HETATM   22  C   UNL     1     -39.701  51.776 -52.005  1.00  0.00     0.117 A 
HETATM   23  C   UNL     1     -40.098  52.230 -53.238  1.00  0.00     0.020 A 
HETATM   24 CL   UNL     1     -40.392  53.666 -48.176  1.00  0.00    -0.082 Cl
HETATM   25  C   UNL     1     -41.632  55.484 -49.692  1.00  0.00     0.028 A 
HETATM   26  C   UNL     1     -42.089  56.035 -50.881  1.00  0.00     0.032 A 
ENDBRANCH   1  16
TORSDOF 1
ENDMDL
