MODEL 1
REMARK VINA RESULT:      -8.1      0.000      0.000
REMARK  5 active torsions:
REMARK  status: ('A' for Active; 'I' for Inactive)
REMARK       I    between atoms: C_2  and  N_3 
REMARK    1  A    between atoms: N_3  and  C_4 
REMARK    2  A    between atoms: C_7  and  C_8 
REMARK    3  A    between atoms: C_8  and  N_9 
REMARK    4  A    between atoms: C_12  and  C_13 
REMARK    5  A    between atoms: C_14  and  O_15 
ROOT
HETATM    1  N   UNL     1     -42.127  58.198 -56.037  1.00  0.00    -0.060 N 
HETATM    2  H   UNL     1     -41.232  57.714 -55.914  1.00  0.00     0.280 HD
HETATM    3  C   UNL     1     -43.254  57.162 -55.974  1.00  0.00     0.272 C 
HETATM    4  C   UNL     1     -43.285  56.278 -54.700  1.00  0.00     0.190 C 
HETATM    5  O   UNL     1     -43.555  57.094 -53.535  1.00  0.00    -0.339 OA
HETATM    6  C   UNL     1     -42.451  57.657 -52.962  1.00  0.00     0.077 A 
HETATM    7  C   UNL     1     -41.738  58.668 -53.603  1.00  0.00     0.001 A 
HETATM    8  C   UNL     1     -42.209  59.204 -54.915  1.00  0.00     0.276 C 
HETATM    9  C   UNL     1     -42.115  57.255 -51.671  1.00  0.00     0.037 A 
HETATM   10  C   UNL     1     -41.006  57.808 -51.035  1.00  0.00     0.003 A 
HETATM   11  C   UNL     1     -40.252  58.782 -51.682  1.00  0.00     0.001 A 
HETATM   12  C   UNL     1     -40.619  59.218 -52.958  1.00  0.00     0.012 A 
ENDROOT
BRANCH   1  13
HETATM   13  C   UNL     1     -42.076  58.920 -57.367  1.00  0.00     0.273 C 
BRANCH  13  14
HETATM   14  C   UNL     1     -43.204  58.596 -58.308  1.00  0.00    -0.032 A 
HETATM   15  C   UNL     1     -44.436  59.249 -58.174  1.00  0.00     0.011 A 
HETATM   16  C   UNL     1     -45.494  58.968 -59.045  1.00  0.00     0.030 A 
HETATM   17  C   UNL     1     -45.344  58.038 -60.072  1.00  0.00     0.034 A 
HETATM   18  C   UNL     1     -44.114  57.382 -60.206  1.00  0.00     0.030 A 
HETATM   19  C   UNL     1     -43.053  57.653 -59.332  1.00  0.00     0.011 A 
BRANCH  17  20
HETATM   20  N   UNL     1     -46.355  57.727 -61.005  1.00  0.00    -0.328 N 
HETATM   21  C   UNL     1     -47.296  56.714 -60.912  1.00  0.00     0.218 C 
HETATM   22  C   UNL     1     -48.276  56.714 -62.060  1.00  0.00     0.117 C 
HETATM   23  O   UNL     1     -47.392  55.890 -60.010  1.00  0.00    -0.274 OA
HETATM   24  H   UNL     1     -46.407  58.317 -61.826  1.00  0.00     0.169 HD
ENDBRANCH  17  20
ENDBRANCH  13  14
ENDBRANCH   1  13
BRANCH   4  25
HETATM   25  C   UNL     1     -42.216  55.190 -54.527  1.00  0.00     0.006 A 
HETATM   26  C   UNL     1     -42.410  54.179 -53.553  1.00  0.00     0.077 A 
HETATM   27  C   UNL     1     -41.438  53.193 -53.355  1.00  0.00     0.037 A 
HETATM   28  C   UNL     1     -40.284  53.173 -54.134  1.00  0.00     0.003 A 
HETATM   29  C   UNL     1     -40.105  54.123 -55.132  1.00  0.00     0.001 A 
HETATM   30  C   UNL     1     -41.067  55.115 -55.336  1.00  0.00     0.012 A 
BRANCH  26  31
HETATM   31  O   UNL     1     -43.600  54.231 -52.871  1.00  0.00    -0.355 OA
HETATM   32  C   UNL     1     -43.582  53.919 -51.482  1.00  0.00     0.210 C 
ENDBRANCH  26  31
ENDBRANCH   4  25
TORSDOF 5
ENDMDL
MODEL 2
REMARK VINA RESULT:      -8.0      3.656      7.553
REMARK  5 active torsions:
REMARK  status: ('A' for Active; 'I' for Inactive)
REMARK       I    between atoms: C_2  and  N_3 
REMARK    1  A    between atoms: N_3  and  C_4 
REMARK    2  A    between atoms: C_7  and  C_8 
REMARK    3  A    between atoms: C_8  and  N_9 
REMARK    4  A    between atoms: C_12  and  C_13 
REMARK    5  A    between atoms: C_14  and  O_15 
ROOT
HETATM    1  N   UNL     1     -41.850  58.048 -51.626  1.00  0.00    -0.060 N 
HETATM    2  H   UNL     1     -42.529  57.474 -52.135  1.00  0.00     0.280 HD
HETATM    3  C   UNL     1     -40.800  58.556 -52.619  1.00  0.00     0.272 C 
HETATM    4  C   UNL     1     -41.351  59.328 -53.846  1.00  0.00     0.190 C 
HETATM    5  O   UNL     1     -41.985  60.557 -53.417  1.00  0.00    -0.339 OA
HETATM    6  C   UNL     1     -43.299  60.431 -53.067  1.00  0.00     0.077 A 
HETATM    7  C   UNL     1     -43.679  59.740 -51.918  1.00  0.00     0.001 A 
HETATM    8  C   UNL     1     -42.644  59.171 -51.005  1.00  0.00     0.276 C 
HETATM    9  C   UNL     1     -44.244  61.099 -53.844  1.00  0.00     0.037 A 
HETATM   10  C   UNL     1     -45.596  61.015 -53.522  1.00  0.00     0.003 A 
HETATM   11  C   UNL     1     -45.998  60.285 -52.407  1.00  0.00     0.001 A 
HETATM   12  C   UNL     1     -45.045  59.657 -51.602  1.00  0.00     0.012 A 
ENDROOT
BRANCH   1  13
HETATM   13  C   UNL     1     -41.249  57.184 -50.537  1.00  0.00     0.273 C 
BRANCH  13  14
HETATM   14  C   UNL     1     -40.976  55.760 -50.937  1.00  0.00    -0.032 A 
HETATM   15  C   UNL     1     -41.624  55.209 -52.050  1.00  0.00     0.011 A 
HETATM   16  C   UNL     1     -41.376  53.889 -52.443  1.00  0.00     0.030 A 
HETATM   17  C   UNL     1     -40.472  53.095 -51.741  1.00  0.00     0.034 A 
HETATM   18  C   UNL     1     -39.824  53.643 -50.627  1.00  0.00     0.030 A 
HETATM   19  C   UNL     1     -40.075  54.961 -50.223  1.00  0.00     0.011 A 
BRANCH  17  20
HETATM   20  N   UNL     1     -40.149  51.769 -52.098  1.00  0.00    -0.328 N 
HETATM   21  C   UNL     1     -39.909  51.281 -53.373  1.00  0.00     0.218 C 
HETATM   22  C   UNL     1     -39.521  49.823 -53.381  1.00  0.00     0.117 C 
HETATM   23  O   UNL     1     -39.965  51.918 -54.419  1.00  0.00    -0.274 OA
HETATM   24  H   UNL     1     -40.073  51.104 -51.339  1.00  0.00     0.169 HD
ENDBRANCH  17  20
ENDBRANCH  13  14
ENDBRANCH   1  13
BRANCH   4  25
HETATM   25  C   UNL     1     -42.078  58.545 -54.948  1.00  0.00     0.006 A 
HETATM   26  C   UNL     1     -42.162  59.100 -56.249  1.00  0.00     0.077 A 
HETATM   27  C   UNL     1     -42.844  58.422 -57.264  1.00  0.00     0.037 A 
HETATM   28  C   UNL     1     -43.418  57.177 -57.018  1.00  0.00     0.003 A 
HETATM   29  C   UNL     1     -43.295  56.592 -55.764  1.00  0.00     0.001 A 
HETATM   30  C   UNL     1     -42.621  57.263 -54.742  1.00  0.00     0.012 A 
BRANCH  26  31
HETATM   31  O   UNL     1     -41.518  60.299 -56.428  1.00  0.00    -0.355 OA
HETATM   32  C   UNL     1     -41.583  60.902 -57.716  1.00  0.00     0.210 C 
ENDBRANCH  26  31
ENDBRANCH   4  25
TORSDOF 5
ENDMDL
MODEL 3
REMARK VINA RESULT:      -7.9      2.716      8.083
REMARK  5 active torsions:
REMARK  status: ('A' for Active; 'I' for Inactive)
REMARK       I    between atoms: C_2  and  N_3 
REMARK    1  A    between atoms: N_3  and  C_4 
REMARK    2  A    between atoms: C_7  and  C_8 
REMARK    3  A    between atoms: C_8  and  N_9 
REMARK    4  A    between atoms: C_12  and  C_13 
REMARK    5  A    between atoms: C_14  and  O_15 
ROOT
HETATM    1  N   UNL     1     -42.652  57.730 -55.431  1.00  0.00    -0.060 N 
HETATM    2  H   UNL     1     -41.915  58.033 -56.075  1.00  0.00     0.280 HD
HETATM    3  C   UNL     1     -43.606  58.907 -55.196  1.00  0.00     0.272 C 
HETATM    4  C   UNL     1     -44.223  59.538 -56.471  1.00  0.00     0.190 C 
HETATM    5  O   UNL     1     -45.080  58.578 -57.137  1.00  0.00    -0.339 OA
HETATM    6  C   UNL     1     -44.439  57.749 -58.012  1.00  0.00     0.077 A 
HETATM    7  C   UNL     1     -43.554  56.770 -57.567  1.00  0.00     0.001 A 
HETATM    8  C   UNL     1     -43.334  56.564 -56.104  1.00  0.00     0.276 C 
HETATM    9  C   UNL     1     -44.772  57.850 -59.361  1.00  0.00     0.037 A 
HETATM   10  C   UNL     1     -44.158  57.019 -60.295  1.00  0.00     0.003 A 
HETATM   11  C   UNL     1     -43.232  56.070 -59.873  1.00  0.00     0.001 A 
HETATM   12  C   UNL     1     -42.935  55.938 -58.514  1.00  0.00     0.012 A 
ENDROOT
BRANCH   1  13
HETATM   13  C   UNL     1     -41.981  57.264 -54.157  1.00  0.00     0.273 C 
BRANCH  13  14
HETATM   14  C   UNL     1     -41.567  55.818 -54.151  1.00  0.00    -0.032 A 
HETATM   15  C   UNL     1     -42.208  54.910 -53.297  1.00  0.00     0.011 A 
HETATM   16  C   UNL     1     -41.843  53.559 -53.284  1.00  0.00     0.030 A 
HETATM   17  C   UNL     1     -40.840  53.083 -54.127  1.00  0.00     0.034 A 
HETATM   18  C   UNL     1     -40.197  53.989 -54.980  1.00  0.00     0.030 A 
HETATM   19  C   UNL     1     -40.552  55.345 -54.991  1.00  0.00     0.011 A 
BRANCH  17  20
HETATM   20  N   UNL     1     -40.443  51.732 -54.190  1.00  0.00    -0.328 N 
HETATM   21  C   UNL     1     -39.695  51.036 -53.253  1.00  0.00     0.218 C 
HETATM   22  C   UNL     1     -39.515  49.580 -53.609  1.00  0.00     0.117 C 
HETATM   23  O   UNL     1     -39.223  51.488 -52.217  1.00  0.00    -0.274 OA
HETATM   24  H   UNL     1     -40.748  51.209 -55.001  1.00  0.00     0.169 HD
ENDBRANCH  17  20
ENDBRANCH  13  14
ENDBRANCH   1  13
BRANCH   4  25
HETATM   25  C   UNL     1     -43.329  60.388 -57.384  1.00  0.00     0.006 A 
HETATM   26  C   UNL     1     -43.923  61.387 -58.195  1.00  0.00     0.077 A 
HETATM   27  C   UNL     1     -43.135  62.156 -59.058  1.00  0.00     0.037 A 
HETATM   28  C   UNL     1     -41.755  61.974 -59.104  1.00  0.00     0.003 A 
HETATM   29  C   UNL     1     -41.151  61.039 -58.274  1.00  0.00     0.001 A 
HETATM   30  C   UNL     1     -41.928  60.261 -57.412  1.00  0.00     0.012 A 
BRANCH  26  31
HETATM   31  O   UNL     1     -45.277  61.549 -58.045  1.00  0.00    -0.355 OA
HETATM   32  C   UNL     1     -46.095  61.393 -59.199  1.00  0.00     0.210 C 
ENDBRANCH  26  31
ENDBRANCH   4  25
TORSDOF 5
ENDMDL
MODEL 4
REMARK VINA RESULT:      -7.7      2.873      3.653
REMARK  5 active torsions:
REMARK  status: ('A' for Active; 'I' for Inactive)
REMARK       I    between atoms: C_2  and  N_3 
REMARK    1  A    between atoms: N_3  and  C_4 
REMARK    2  A    between atoms: C_7  and  C_8 
REMARK    3  A    between atoms: C_8  and  N_9 
REMARK    4  A    between atoms: C_12  and  C_13 
REMARK    5  A    between atoms: C_14  and  O_15 
ROOT
HETATM    1  N   UNL     1     -43.761  57.531 -55.105  1.00  0.00    -0.060 N 
HETATM    2  H   UNL     1     -42.843  57.236 -55.451  1.00  0.00     0.280 HD
HETATM    3  C   UNL     1     -44.421  56.340 -54.402  1.00  0.00     0.272 C 
HETATM    4  C   UNL     1     -43.595  55.687 -53.264  1.00  0.00     0.190 C 
HETATM    5  O   UNL     1     -43.420  56.625 -52.175  1.00  0.00    -0.339 OA
HETATM    6  C   UNL     1     -42.345  57.457 -52.304  1.00  0.00     0.077 A 
HETATM    7  C   UNL     1     -42.314  58.456 -53.275  1.00  0.00     0.001 A 
HETATM    8  C   UNL     1     -43.495  58.679 -54.162  1.00  0.00     0.276 C 
HETATM    9  C   UNL     1     -41.318  57.338 -51.370  1.00  0.00     0.037 A 
HETATM   10  C   UNL     1     -40.205  58.171 -51.447  1.00  0.00     0.003 A 
HETATM   11  C   UNL     1     -40.134  59.140 -52.444  1.00  0.00     0.001 A 
HETATM   12  C   UNL     1     -41.187  59.290 -53.350  1.00  0.00     0.012 A 
ENDROOT
BRANCH   1  13
HETATM   13  C   UNL     1     -44.560  58.021 -56.293  1.00  0.00     0.273 C 
BRANCH  13  14
HETATM   14  C   UNL     1     -43.798  58.891 -57.255  1.00  0.00    -0.032 A 
HETATM   15  C   UNL     1     -44.311  60.141 -57.626  1.00  0.00     0.011 A 
HETATM   16  C   UNL     1     -43.613  60.968 -58.512  1.00  0.00     0.030 A 
HETATM   17  C   UNL     1     -42.385  60.572 -59.039  1.00  0.00     0.034 A 
HETATM   18  C   UNL     1     -41.871  59.322 -58.672  1.00  0.00     0.030 A 
HETATM   19  C   UNL     1     -42.571  58.485 -57.792  1.00  0.00     0.011 A 
BRANCH  17  20
HETATM   20  N   UNL     1     -41.612  61.366 -59.911  1.00  0.00    -0.328 N 
HETATM   21  C   UNL     1     -40.607  62.255 -59.563  1.00  0.00     0.218 C 
HETATM   22  C   UNL     1     -39.938  62.885 -60.760  1.00  0.00     0.117 C 
HETATM   23  O   UNL     1     -40.236  62.526 -58.427  1.00  0.00    -0.274 OA
HETATM   24  H   UNL     1     -41.803  61.266 -60.900  1.00  0.00     0.169 HD
ENDBRANCH  17  20
ENDBRANCH  13  14
ENDBRANCH   1  13
BRANCH   4  25
HETATM   25  C   UNL     1     -42.366  54.844 -53.631  1.00  0.00     0.006 A 
HETATM   26  C   UNL     1     -41.894  53.875 -52.711  1.00  0.00     0.077 A 
HETATM   27  C   UNL     1     -40.758  53.114 -53.007  1.00  0.00     0.037 A 
HETATM   28  C   UNL     1     -40.099  53.275 -54.224  1.00  0.00     0.003 A 
HETATM   29  C   UNL     1     -40.584  54.179 -55.160  1.00  0.00     0.001 A 
HETATM   30  C   UNL     1     -41.714  54.948 -54.873  1.00  0.00     0.012 A 
BRANCH  26  31
HETATM   31  O   UNL     1     -42.633  53.733 -51.564  1.00  0.00    -0.355 OA
HETATM   32  C   UNL     1     -41.985  53.982 -50.321  1.00  0.00     0.210 C 
ENDBRANCH  26  31
ENDBRANCH   4  25
TORSDOF 5
ENDMDL
MODEL 5
REMARK VINA RESULT:      -7.7      3.141      7.371
REMARK  5 active torsions:
REMARK  status: ('A' for Active; 'I' for Inactive)
REMARK       I    between atoms: C_2  and  N_3 
REMARK    1  A    between atoms: N_3  and  C_4 
REMARK    2  A    between atoms: C_7  and  C_8 
REMARK    3  A    between atoms: C_8  and  N_9 
REMARK    4  A    between atoms: C_12  and  C_13 
REMARK    5  A    between atoms: C_14  and  O_15 
ROOT
HETATM    1  N   UNL     1     -43.161  57.914 -53.377  1.00  0.00    -0.060 N 
HETATM    2  H   UNL     1     -43.855  57.675 -54.092  1.00  0.00     0.280 HD
HETATM    3  C   UNL     1     -41.815  58.158 -54.068  1.00  0.00     0.272 C 
HETATM    4  C   UNL     1     -41.821  59.222 -55.197  1.00  0.00     0.190 C 
HETATM    5  O   UNL     1     -42.124  60.527 -54.650  1.00  0.00    -0.339 OA
HETATM    6  C   UNL     1     -43.457  60.811 -54.550  1.00  0.00     0.077 A 
HETATM    7  C   UNL     1     -44.272  60.149 -53.634  1.00  0.00     0.001 A 
HETATM    8  C   UNL     1     -43.687  59.151 -52.691  1.00  0.00     0.276 C 
HETATM    9  C   UNL     1     -43.957  61.853 -55.329  1.00  0.00     0.037 A 
HETATM   10  C   UNL     1     -45.305  62.192 -55.255  1.00  0.00     0.003 A 
HETATM   11  C   UNL     1     -46.145  61.506 -54.384  1.00  0.00     0.001 A 
HETATM   12  C   UNL     1     -45.631  60.494 -53.569  1.00  0.00     0.012 A 
ENDROOT
BRANCH   1  13
HETATM   13  C   UNL     1     -43.107  56.766 -52.392  1.00  0.00     0.273 C 
BRANCH  13  14
HETATM   14  C   UNL     1     -42.439  55.520 -52.906  1.00  0.00    -0.032 A 
HETATM   15  C   UNL     1     -41.295  55.025 -52.265  1.00  0.00     0.011 A 
HETATM   16  C   UNL     1     -40.664  53.863 -52.723  1.00  0.00     0.030 A 
HETATM   17  C   UNL     1     -41.165  53.166 -53.821  1.00  0.00     0.034 A 
HETATM   18  C   UNL     1     -42.307  53.660 -54.464  1.00  0.00     0.030 A 
HETATM   19  C   UNL     1     -42.937  54.828 -54.016  1.00  0.00     0.011 A 
BRANCH  17  20
HETATM   20  N   UNL     1     -40.600  51.972 -54.317  1.00  0.00    -0.328 N 
HETATM   21  C   UNL     1     -39.848  51.047 -53.611  1.00  0.00     0.218 C 
HETATM   22  C   UNL     1     -39.463  49.846 -54.441  1.00  0.00     0.117 C 
HETATM   23  O   UNL     1     -39.518  51.123 -52.433  1.00  0.00    -0.274 OA
HETATM   24  H   UNL     1     -40.774  51.763 -55.292  1.00  0.00     0.169 HD
ENDBRANCH  17  20
ENDBRANCH  13  14
ENDBRANCH   1  13
BRANCH   4  25
HETATM   25  C   UNL     1     -42.494  58.880 -56.534  1.00  0.00     0.006 A 
HETATM   26  C   UNL     1     -42.080  59.555 -57.708  1.00  0.00     0.077 A 
HETATM   27  C   UNL     1     -42.697  59.284 -58.934  1.00  0.00     0.037 A 
HETATM   28  C   UNL     1     -43.701  58.322 -59.021  1.00  0.00     0.003 A 
HETATM   29  C   UNL     1     -44.078  57.610 -57.889  1.00  0.00     0.001 A 
HETATM   30  C   UNL     1     -43.473  57.877 -56.659  1.00  0.00     0.012 A 
BRANCH  26  31
HETATM   31  O   UNL     1     -41.043  60.441 -57.552  1.00  0.00    -0.355 OA
HETATM   32  C   UNL     1     -41.185  61.736 -58.124  1.00  0.00     0.210 C 
ENDBRANCH  26  31
ENDBRANCH   4  25
TORSDOF 5
ENDMDL
MODEL 6
REMARK VINA RESULT:      -7.7      2.658      4.130
REMARK  5 active torsions:
REMARK  status: ('A' for Active; 'I' for Inactive)
REMARK       I    between atoms: C_2  and  N_3 
REMARK    1  A    between atoms: N_3  and  C_4 
REMARK    2  A    between atoms: C_7  and  C_8 
REMARK    3  A    between atoms: C_8  and  N_9 
REMARK    4  A    between atoms: C_12  and  C_13 
REMARK    5  A    between atoms: C_14  and  O_15 
ROOT
HETATM    1  N   UNL     1     -43.108  56.246 -55.085  1.00  0.00    -0.060 N 
HETATM    2  H   UNL     1     -42.554  57.108 -55.089  1.00  0.00     0.280 HD
HETATM    3  C   UNL     1     -42.624  55.361 -53.931  1.00  0.00     0.272 C 
HETATM    4  C   UNL     1     -42.635  56.020 -52.527  1.00  0.00     0.190 C 
HETATM    5  O   UNL     1     -43.994  56.323 -52.130  1.00  0.00    -0.339 OA
HETATM    6  C   UNL     1     -44.460  57.532 -52.561  1.00  0.00     0.077 A 
HETATM    7  C   UNL     1     -44.716  57.772 -53.909  1.00  0.00     0.001 A 
HETATM    8  C   UNL     1     -44.543  56.680 -54.913  1.00  0.00     0.276 C 
HETATM    9  C   UNL     1     -44.763  58.490 -51.595  1.00  0.00     0.037 A 
HETATM   10  C   UNL     1     -45.254  59.735 -51.979  1.00  0.00     0.003 A 
HETATM   11  C   UNL     1     -45.467  60.009 -53.327  1.00  0.00     0.001 A 
HETATM   12  C   UNL     1     -45.208  59.031 -54.290  1.00  0.00     0.012 A 
ENDROOT
BRANCH   1  13
HETATM   13  C   UNL     1     -42.932  55.585 -56.436  1.00  0.00     0.273 C 
BRANCH  13  14
HETATM   14  C   UNL     1     -42.665  56.532 -57.574  1.00  0.00    -0.032 A 
HETATM   15  C   UNL     1     -42.859  56.110 -58.896  1.00  0.00     0.011 A 
HETATM   16  C   UNL     1     -42.624  56.978 -59.967  1.00  0.00     0.030 A 
HETATM   17  C   UNL     1     -42.200  58.287 -59.744  1.00  0.00     0.034 A 
HETATM   18  C   UNL     1     -42.003  58.711 -58.424  1.00  0.00     0.030 A 
HETATM   19  C   UNL     1     -42.228  57.842 -57.347  1.00  0.00     0.011 A 
BRANCH  17  20
HETATM   20  N   UNL     1     -41.974  59.226 -60.772  1.00  0.00    -0.328 N 
HETATM   21  C   UNL     1     -42.900  60.092 -61.332  1.00  0.00     0.218 C 
HETATM   22  C   UNL     1     -42.297  61.012 -62.364  1.00  0.00     0.117 C 
HETATM   23  O   UNL     1     -44.090  60.170 -61.046  1.00  0.00    -0.274 OA
HETATM   24  H   UNL     1     -41.030  59.282 -61.132  1.00  0.00     0.169 HD
ENDBRANCH  17  20
ENDBRANCH  13  14
ENDBRANCH   1  13
BRANCH   4  25
HETATM   25  C   UNL     1     -41.584  57.092 -52.204  1.00  0.00     0.006 A 
HETATM   26  C   UNL     1     -41.167  57.267 -50.861  1.00  0.00     0.077 A 
HETATM   27  C   UNL     1     -40.233  58.256 -50.535  1.00  0.00     0.037 A 
HETATM   28  C   UNL     1     -39.677  59.056 -51.530  1.00  0.00     0.003 A 
HETATM   29  C   UNL     1     -40.032  58.859 -52.857  1.00  0.00     0.001 A 
HETATM   30  C   UNL     1     -40.967  57.878 -53.195  1.00  0.00     0.012 A 
BRANCH  26  31
HETATM   31  O   UNL     1     -41.713  56.398 -49.950  1.00  0.00    -0.355 OA
HETATM   32  C   UNL     1     -40.910  55.310 -49.507  1.00  0.00     0.210 C 
ENDBRANCH  26  31
ENDBRANCH   4  25
TORSDOF 5
ENDMDL
MODEL 7
REMARK VINA RESULT:      -7.6      1.848      2.297
REMARK  5 active torsions:
REMARK  status: ('A' for Active; 'I' for Inactive)
REMARK       I    between atoms: C_2  and  N_3 
REMARK    1  A    between atoms: N_3  and  C_4 
REMARK    2  A    between atoms: C_7  and  C_8 
REMARK    3  A    between atoms: C_8  and  N_9 
REMARK    4  A    between atoms: C_12  and  C_13 
REMARK    5  A    between atoms: C_14  and  O_15 
ROOT
HETATM    1  N   UNL     1     -43.933  58.197 -53.867  1.00  0.00    -0.060 N 
HETATM    2  H   UNL     1     -43.047  58.012 -54.347  1.00  0.00     0.280 HD
HETATM    3  C   UNL     1     -44.508  56.863 -53.378  1.00  0.00     0.272 C 
HETATM    4  C   UNL     1     -43.570  56.014 -52.480  1.00  0.00     0.190 C 
HETATM    5  O   UNL     1     -43.309  56.709 -51.237  1.00  0.00    -0.339 OA
HETATM    6  C   UNL     1     -42.263  57.586 -51.280  1.00  0.00     0.077 A 
HETATM    7  C   UNL     1     -42.338  58.767 -52.016  1.00  0.00     0.001 A 
HETATM    8  C   UNL     1     -43.598  59.130 -52.729  1.00  0.00     0.276 C 
HETATM    9  C   UNL     1     -41.153  57.309 -50.485  1.00  0.00     0.037 A 
HETATM   10  C   UNL     1     -40.065  58.178 -50.481  1.00  0.00     0.003 A 
HETATM   11  C   UNL     1     -40.101  59.336 -51.252  1.00  0.00     0.001 A 
HETATM   12  C   UNL     1     -41.235  59.636 -52.010  1.00  0.00     0.012 A 
ENDROOT
BRANCH   1  13
HETATM   13  C   UNL     1     -44.846  58.897 -54.851  1.00  0.00     0.273 C 
BRANCH  13  14
HETATM   14  C   UNL     1     -44.873  58.296 -56.230  1.00  0.00    -0.032 A 
HETATM   15  C   UNL     1     -43.710  57.729 -56.768  1.00  0.00     0.011 A 
HETATM   16  C   UNL     1     -43.716  57.158 -58.045  1.00  0.00     0.030 A 
HETATM   17  C   UNL     1     -44.882  57.131 -58.808  1.00  0.00     0.034 A 
HETATM   18  C   UNL     1     -46.046  57.700 -58.273  1.00  0.00     0.030 A 
HETATM   19  C   UNL     1     -46.042  58.281 -56.998  1.00  0.00     0.011 A 
BRANCH  17  20
HETATM   20  N   UNL     1     -44.971  56.545 -60.088  1.00  0.00    -0.328 N 
HETATM   21  C   UNL     1     -44.890  55.196 -60.397  1.00  0.00     0.218 C 
HETATM   22  C   UNL     1     -45.098  54.916 -61.865  1.00  0.00     0.117 C 
HETATM   23  O   UNL     1     -44.698  54.278 -59.607  1.00  0.00    -0.274 OA
HETATM   24  H   UNL     1     -45.122  57.177 -60.864  1.00  0.00     0.169 HD
ENDBRANCH  17  20
ENDBRANCH  13  14
ENDBRANCH   1  13
BRANCH   4  25
HETATM   25  C   UNL     1     -42.368  55.310 -53.123  1.00  0.00     0.006 A 
HETATM   26  C   UNL     1     -41.756  54.229 -52.442  1.00  0.00     0.077 A 
HETATM   27  C   UNL     1     -40.640  53.588 -52.991  1.00  0.00     0.037 A 
HETATM   28  C   UNL     1     -40.139  53.982 -54.230  1.00  0.00     0.003 A 
HETATM   29  C   UNL     1     -40.763  55.002 -54.937  1.00  0.00     0.001 A 
HETATM   30  C   UNL     1     -41.874  55.652 -54.396  1.00  0.00     0.012 A 
BRANCH  26  31
HETATM   31  O   UNL     1     -42.346  53.860 -51.259  1.00  0.00    -0.355 OA
HETATM   32  C   UNL     1     -41.500  53.634 -50.137  1.00  0.00     0.210 C 
ENDBRANCH  26  31
ENDBRANCH   4  25
TORSDOF 5
ENDMDL
MODEL 8
REMARK VINA RESULT:      -7.5      4.040      7.341
REMARK  5 active torsions:
REMARK  status: ('A' for Active; 'I' for Inactive)
REMARK       I    between atoms: C_2  and  N_3 
REMARK    1  A    between atoms: N_3  and  C_4 
REMARK    2  A    between atoms: C_7  and  C_8 
REMARK    3  A    between atoms: C_8  and  N_9 
REMARK    4  A    between atoms: C_12  and  C_13 
REMARK    5  A    between atoms: C_14  and  O_15 
ROOT
HETATM    1  N   UNL     1     -42.270  57.348 -54.353  1.00  0.00    -0.060 N 
HETATM    2  H   UNL     1     -42.957  57.123 -53.626  1.00  0.00     0.280 HD
HETATM    3  C   UNL     1     -42.710  58.635 -55.056  1.00  0.00     0.272 C 
HETATM    4  C   UNL     1     -42.945  59.860 -54.134  1.00  0.00     0.190 C 
HETATM    5  O   UNL     1     -41.701  60.262 -53.513  1.00  0.00    -0.339 OA
HETATM    6  C   UNL     1     -41.403  59.606 -52.352  1.00  0.00     0.077 A 
HETATM    7  C   UNL     1     -41.060  58.256 -52.351  1.00  0.00     0.001 A 
HETATM    8  C   UNL     1     -40.951  57.506 -53.637  1.00  0.00     0.276 C 
HETATM    9  C   UNL     1     -41.358  60.356 -51.179  1.00  0.00     0.037 A 
HETATM   10  C   UNL     1     -41.046  59.739 -49.970  1.00  0.00     0.003 A 
HETATM   11  C   UNL     1     -40.752  58.380 -49.942  1.00  0.00     0.001 A 
HETATM   12  C   UNL     1     -40.750  57.640 -51.127  1.00  0.00     0.012 A 
ENDROOT
BRANCH   1  13
HETATM   13  C   UNL     1     -42.202  56.165 -55.295  1.00  0.00     0.273 C 
BRANCH  13  14
HETATM   14  C   UNL     1     -41.620  54.912 -54.700  1.00  0.00    -0.032 A 
HETATM   15  C   UNL     1     -40.528  54.286 -55.316  1.00  0.00     0.011 A 
HETATM   16  C   UNL     1     -39.967  53.125 -54.772  1.00  0.00     0.030 A 
HETATM   17  C   UNL     1     -40.476  52.570 -53.599  1.00  0.00     0.034 A 
HETATM   18  C   UNL     1     -41.569  53.193 -52.983  1.00  0.00     0.030 A 
HETATM   19  C   UNL     1     -42.140  54.350 -53.528  1.00  0.00     0.011 A 
BRANCH  17  20
HETATM   20  N   UNL     1     -39.942  51.422 -52.978  1.00  0.00    -0.328 N 
HETATM   21  C   UNL     1     -39.949  50.126 -53.469  1.00  0.00     0.218 C 
HETATM   22  C   UNL     1     -39.224  49.153 -52.572  1.00  0.00     0.117 C 
HETATM   23  O   UNL     1     -40.449  49.749 -54.523  1.00  0.00    -0.274 OA
HETATM   24  H   UNL     1     -39.495  51.562 -52.081  1.00  0.00     0.169 HD
ENDBRANCH  17  20
ENDBRANCH  13  14
ENDBRANCH   1  13
BRANCH   4  25
HETATM   25  C   UNL     1     -44.186  59.879 -53.230  1.00  0.00     0.006 A 
HETATM   26  C   UNL     1     -45.009  61.032 -53.212  1.00  0.00     0.077 A 
HETATM   27  C   UNL     1     -46.129  61.087 -52.375  1.00  0.00     0.037 A 
HETATM   28  C   UNL     1     -46.467  59.997 -51.576  1.00  0.00     0.003 A 
HETATM   29  C   UNL     1     -45.703  58.839 -51.626  1.00  0.00     0.001 A 
HETATM   30  C   UNL     1     -44.580  58.774 -52.454  1.00  0.00     0.012 A 
BRANCH  26  31
HETATM   31  O   UNL     1     -44.646  62.037 -54.073  1.00  0.00    -0.355 OA
HETATM   32  C   UNL     1     -44.109  63.230 -53.511  1.00  0.00     0.210 C 
ENDBRANCH  26  31
ENDBRANCH   4  25
TORSDOF 5
ENDMDL
MODEL 9
REMARK VINA RESULT:      -7.5      2.404      4.483
REMARK  5 active torsions:
REMARK  status: ('A' for Active; 'I' for Inactive)
REMARK       I    between atoms: C_2  and  N_3 
REMARK    1  A    between atoms: N_3  and  C_4 
REMARK    2  A    between atoms: C_7  and  C_8 
REMARK    3  A    between atoms: C_8  and  N_9 
REMARK    4  A    between atoms: C_12  and  C_13 
REMARK    5  A    between atoms: C_14  and  O_15 
ROOT
HETATM    1  N   UNL     1     -42.687  55.586 -55.470  1.00  0.00    -0.060 N 
HETATM    2  H   UNL     1     -43.557  55.976 -55.093  1.00  0.00     0.280 HD
HETATM    3  C   UNL     1     -41.635  56.699 -55.513  1.00  0.00     0.272 C 
HETATM    4  C   UNL     1     -41.368  57.426 -54.169  1.00  0.00     0.190 C 
HETATM    5  O   UNL     1     -40.798  56.504 -53.209  1.00  0.00    -0.339 OA
HETATM    6  C   UNL     1     -41.712  55.786 -52.492  1.00  0.00     0.077 A 
HETATM    7  C   UNL     1     -42.493  54.802 -53.094  1.00  0.00     0.001 A 
HETATM    8  C   UNL     1     -42.300  54.465 -54.536  1.00  0.00     0.276 C 
HETATM    9  C   UNL     1     -41.772  56.003 -51.117  1.00  0.00     0.037 A 
HETATM   10  C   UNL     1     -42.677  55.288 -50.338  1.00  0.00     0.003 A 
HETATM   11  C   UNL     1     -43.501  54.338 -50.932  1.00  0.00     0.001 A 
HETATM   12  C   UNL     1     -43.406  54.087 -52.303  1.00  0.00     0.012 A 
ENDROOT
BRANCH   1  13
HETATM   13  C   UNL     1     -42.995  55.025 -56.842  1.00  0.00     0.273 C 
BRANCH  13  14
HETATM   14  C   UNL     1     -43.336  56.054 -57.885  1.00  0.00    -0.032 A 
HETATM   15  C   UNL     1     -44.115  57.167 -57.543  1.00  0.00     0.011 A 
HETATM   16  C   UNL     1     -44.435  58.139 -58.497  1.00  0.00     0.030 A 
HETATM   17  C   UNL     1     -43.977  58.027 -59.809  1.00  0.00     0.034 A 
HETATM   18  C   UNL     1     -43.199  56.914 -60.154  1.00  0.00     0.030 A 
HETATM   19  C   UNL     1     -42.884  55.934 -59.205  1.00  0.00     0.011 A 
BRANCH  17  20
HETATM   20  N   UNL     1     -44.233  58.983 -60.814  1.00  0.00    -0.328 N 
HETATM   21  C   UNL     1     -43.428  60.052 -61.175  1.00  0.00     0.218 C 
HETATM   22  C   UNL     1     -43.978  60.833 -62.343  1.00  0.00     0.117 C 
HETATM   23  O   UNL     1     -42.363  60.369 -60.658  1.00  0.00    -0.274 OA
HETATM   24  H   UNL     1     -45.091  58.868 -61.337  1.00  0.00     0.169 HD
ENDBRANCH  17  20
ENDBRANCH  13  14
ENDBRANCH   1  13
BRANCH   4  25
HETATM   25  C   UNL     1     -42.430  58.392 -53.626  1.00  0.00     0.006 A 
HETATM   26  C   UNL     1     -42.027  59.456 -52.781  1.00  0.00     0.077 A 
HETATM   27  C   UNL     1     -42.978  60.333 -52.249  1.00  0.00     0.037 A 
HETATM   28  C   UNL     1     -44.326  60.192 -52.570  1.00  0.00     0.003 A 
HETATM   29  C   UNL     1     -44.729  59.190 -53.442  1.00  0.00     0.001 A 
HETATM   30  C   UNL     1     -43.790  58.305 -53.976  1.00  0.00     0.012 A 
BRANCH  26  31
HETATM   31  O   UNL     1     -40.677  59.566 -52.564  1.00  0.00    -0.355 OA
HETATM   32  C   UNL     1     -40.200  59.365 -51.238  1.00  0.00     0.210 C 
ENDBRANCH  26  31
ENDBRANCH   4  25
TORSDOF 5
ENDMDL
MODEL 10
REMARK VINA RESULT:      -7.5      2.371      7.743
REMARK  5 active torsions:
REMARK  status: ('A' for Active; 'I' for Inactive)
REMARK       I    between atoms: C_2  and  N_3 
REMARK    1  A    between atoms: N_3  and  C_4 
REMARK    2  A    between atoms: C_7  and  C_8 
REMARK    3  A    between atoms: C_8  and  N_9 
REMARK    4  A    between atoms: C_12  and  C_13 
REMARK    5  A    between atoms: C_14  and  O_15 
ROOT
HETATM    1  N   UNL     1     -43.370  58.722 -56.270  1.00  0.00    -0.060 N 
HETATM    2  H   UNL     1     -44.149  59.171 -56.762  1.00  0.00     0.280 HD
HETATM    3  C   UNL     1     -43.435  57.214 -56.532  1.00  0.00     0.272 C 
HETATM    4  C   UNL     1     -43.453  56.789 -58.023  1.00  0.00     0.190 C 
HETATM    5  O   UNL     1     -42.206  57.156 -58.661  1.00  0.00    -0.339 OA
HETATM    6  C   UNL     1     -42.169  58.428 -59.156  1.00  0.00     0.077 A 
HETATM    7  C   UNL     1     -42.154  59.535 -58.310  1.00  0.00     0.001 A 
HETATM    8  C   UNL     1     -42.115  59.348 -56.829  1.00  0.00     0.276 C 
HETATM    9  C   UNL     1     -42.049  58.582 -60.536  1.00  0.00     0.037 A 
HETATM   10  C   UNL     1     -41.993  59.858 -61.092  1.00  0.00     0.003 A 
HETATM   11  C   UNL     1     -42.030  60.975 -60.264  1.00  0.00     0.001 A 
HETATM   12  C   UNL     1     -42.101  60.818 -58.878  1.00  0.00     0.012 A 
ENDROOT
BRANCH   1  13
HETATM   13  C   UNL     1     -43.501  59.063 -54.801  1.00  0.00     0.273 C 
BRANCH  13  14
HETATM   14  C   UNL     1     -42.932  58.038 -53.859  1.00  0.00    -0.032 A 
HETATM   15  C   UNL     1     -43.784  57.139 -53.205  1.00  0.00     0.011 A 
HETATM   16  C   UNL     1     -43.273  56.173 -52.332  1.00  0.00     0.030 A 
HETATM   17  C   UNL     1     -41.902  56.076 -52.100  1.00  0.00     0.034 A 
HETATM   18  C   UNL     1     -41.048  56.975 -52.751  1.00  0.00     0.030 A 
HETATM   19  C   UNL     1     -41.555  57.951 -53.619  1.00  0.00     0.011 A 
BRANCH  17  20
HETATM   20  N   UNL     1     -41.314  55.108 -51.259  1.00  0.00    -0.328 N 
HETATM   21  C   UNL     1     -40.745  53.904 -51.641  1.00  0.00     0.218 C 
HETATM   22  C   UNL     1     -40.144  53.144 -50.484  1.00  0.00     0.117 C 
HETATM   23  O   UNL     1     -40.680  53.458 -52.781  1.00  0.00    -0.274 OA
HETATM   24  H   UNL     1     -41.295  55.322 -50.270  1.00  0.00     0.169 HD
ENDBRANCH  17  20
ENDBRANCH  13  14
ENDBRANCH   1  13
BRANCH   4  25
HETATM   25  C   UNL     1     -44.726  57.030 -58.846  1.00  0.00     0.006 A 
HETATM   26  C   UNL     1     -45.075  56.108 -59.864  1.00  0.00     0.077 A 
HETATM   27  C   UNL     1     -46.214  56.320 -60.649  1.00  0.00     0.037 A 
HETATM   28  C   UNL     1     -47.037  57.419 -60.416  1.00  0.00     0.003 A 
HETATM   29  C   UNL     1     -46.740  58.300 -59.384  1.00  0.00     0.001 A 
HETATM   30  C   UNL     1     -45.603  58.102 -58.598  1.00  0.00     0.012 A 
BRANCH  26  31
HETATM   31  O   UNL     1     -44.250  55.019 -59.989  1.00  0.00    -0.355 OA
HETATM   32  C   UNL     1     -44.783  53.741 -59.658  1.00  0.00     0.210 C 
ENDBRANCH  26  31
ENDBRANCH   4  25
TORSDOF 5
ENDMDL
