MODEL 1
REMARK VINA RESULT:      -7.7      0.000      0.000
REMARK  6 active torsions:
REMARK  status: ('A' for Active; 'I' for Inactive)
REMARK    1  A    between atoms: C_2  and  N_3 
REMARK    2  A    between atoms: C_2  and  C_24 
REMARK       I    between atoms: N_3  and  C_4 
REMARK    3  A    between atoms: C_4  and  C_5 
REMARK    4  A    between atoms: C_5  and  N_6 
REMARK    5  A    between atoms: C_10  and  N_11 
REMARK       I    between atoms: N_11  and  C_12 
REMARK       I    between atoms: C_12  and  N_13 
REMARK    6  A    between atoms: N_13  and  C_14 
ROOT
HETATM    1  N   UNL     1     -42.778  59.225 -51.566  1.00  0.00    -0.063 N 
HETATM    2  H   UNL     1     -43.355  59.712 -50.864  1.00  0.00     0.280 HD
HETATM    3  C   UNL     1     -43.593  58.043 -52.036  1.00  0.00     0.237 C 
HETATM    4  C   UNL     1     -43.535  56.883 -51.063  1.00  0.00     0.053 C 
HETATM    5  C   UNL     1     -42.116  56.473 -50.694  1.00  0.00     0.089 C 
HETATM    6  C   UNL     1     -41.346  57.671 -50.147  1.00  0.00     0.053 C 
HETATM    7  C   UNL     1     -41.418  58.941 -50.977  1.00  0.00     0.237 C 
ENDROOT
BRANCH   1   8
HETATM    8  C   UNL     1     -42.604  60.237 -52.719  1.00  0.00     0.337 C 
BRANCH   8   9
HETATM    9  C   UNL     1     -41.895  59.641 -53.934  1.00  0.00     0.244 C 
HETATM   10  N   UNL     1     -42.718  59.321 -54.984  1.00  0.00    -0.351 N 
HETATM   11  H   UNL     1     -43.716  59.499 -54.940  1.00  0.00     0.163 HD
HETATM   12  O   UNL     1     -40.671  59.546 -53.955  1.00  0.00    -0.272 OA
BRANCH  10  13
HETATM   13  C   UNL     1     -42.223  58.806 -56.253  1.00  0.00     0.120 C 
HETATM   14  C   UNL     1     -42.921  59.456 -57.447  1.00  0.00     0.038 C 
BRANCH  13  15
HETATM   15  C   UNL     1     -42.404  57.307 -56.245  1.00  0.00     0.005 A 
HETATM   16  S   UNL     1     -43.206  56.495 -57.534  1.00  0.00    -0.104 SA
HETATM   17  C   UNL     1     -42.994  54.969 -56.798  1.00  0.00     0.050 A 
HETATM   18  C   UNL     1     -42.333  55.063 -55.595  1.00  0.00     0.008 A 
HETATM   19  C   UNL     1     -41.993  56.410 -55.276  1.00  0.00     0.017 A 
ENDBRANCH  13  15
ENDBRANCH  10  13
ENDBRANCH   8   9
ENDBRANCH   1   8
BRANCH   5  20
HETATM   20  N   UNL     1     -41.451  55.685 -51.736  1.00  0.00    -0.338 N 
HETATM   21  C   UNL     1     -41.489  54.321 -51.891  1.00  0.00     0.321 C 
HETATM   22  N   UNL     1     -40.502  53.869 -52.730  1.00  0.00    -0.309 N 
HETATM   23  O   UNL     1     -42.267  53.619 -51.258  1.00  0.00    -0.247 OA
HETATM   24  H   UNL     1     -39.767  54.524 -52.956  1.00  0.00     0.170 HD
HETATM   25  H   UNL     1     -41.014  56.202 -52.490  1.00  0.00     0.164 HD
BRANCH  22  26
HETATM   26  C   UNL     1     -40.225  52.514 -53.022  1.00  0.00     0.036 A 
HETATM   27  C   UNL     1     -40.481  51.924 -54.262  1.00  0.00     0.029 A 
HETATM   28  C   UNL     1     -40.220  50.567 -54.471  1.00  0.00     0.002 A 
HETATM   29  C   UNL     1     -39.698  49.788 -53.441  1.00  0.00     0.000 A 
HETATM   30  C   UNL     1     -39.420  50.372 -52.207  1.00  0.00     0.002 A 
HETATM   31  C   UNL     1     -39.672  51.731 -52.001  1.00  0.00     0.029 A 
ENDBRANCH  22  26
ENDBRANCH   5  20
TORSDOF 6
ENDMDL
MODEL 2
REMARK VINA RESULT:      -7.6      2.440      6.273
REMARK  6 active torsions:
REMARK  status: ('A' for Active; 'I' for Inactive)
REMARK    1  A    between atoms: C_2  and  N_3 
REMARK    2  A    between atoms: C_2  and  C_24 
REMARK       I    between atoms: N_3  and  C_4 
REMARK    3  A    between atoms: C_4  and  C_5 
REMARK    4  A    between atoms: C_5  and  N_6 
REMARK    5  A    between atoms: C_10  and  N_11 
REMARK       I    between atoms: N_11  and  C_12 
REMARK       I    between atoms: C_12  and  N_13 
REMARK    6  A    between atoms: N_13  and  C_14 
ROOT
HETATM    1  N   UNL     1     -42.536  55.957 -50.169  1.00  0.00    -0.063 N 
HETATM    2  H   UNL     1     -42.883  56.289 -49.257  1.00  0.00     0.280 HD
HETATM    3  C   UNL     1     -41.420  56.896 -50.564  1.00  0.00     0.237 C 
HETATM    4  C   UNL     1     -41.940  58.195 -51.142  1.00  0.00     0.053 C 
HETATM    5  C   UNL     1     -42.933  57.996 -52.280  1.00  0.00     0.089 C 
HETATM    6  C   UNL     1     -44.088  57.112 -51.823  1.00  0.00     0.053 C 
HETATM    7  C   UNL     1     -43.699  55.822 -51.121  1.00  0.00     0.237 C 
ENDROOT
BRANCH   1   8
HETATM    8  C   UNL     1     -41.968  54.547 -49.896  1.00  0.00     0.337 C 
BRANCH   8   9
HETATM    9  C   UNL     1     -40.780  54.200 -50.792  1.00  0.00     0.244 C 
HETATM   10  N   UNL     1     -41.109  53.848 -52.077  1.00  0.00    -0.351 N 
HETATM   11  H   UNL     1     -42.075  53.850 -52.389  1.00  0.00     0.163 HD
HETATM   12  O   UNL     1     -39.631  54.316 -50.375  1.00  0.00    -0.272 OA
BRANCH  10  13
HETATM   13  C   UNL     1     -40.115  53.550 -53.098  1.00  0.00     0.120 C 
HETATM   14  C   UNL     1     -40.443  54.221 -54.431  1.00  0.00     0.038 C 
BRANCH  13  15
HETATM   15  C   UNL     1     -40.027  52.049 -53.232  1.00  0.00     0.005 A 
HETATM   16  S   UNL     1     -39.493  51.062 -51.925  1.00  0.00    -0.104 SA
HETATM   17  C   UNL     1     -39.677  49.631 -52.839  1.00  0.00     0.050 A 
HETATM   18  C   UNL     1     -40.128  49.886 -54.113  1.00  0.00     0.008 A 
HETATM   19  C   UNL     1     -40.331  51.279 -54.340  1.00  0.00     0.017 A 
ENDBRANCH  13  15
ENDBRANCH  10  13
ENDBRANCH   8   9
ENDBRANCH   1   8
BRANCH   5  20
HETATM   20  N   UNL     1     -42.294  57.639 -53.550  1.00  0.00    -0.338 N 
HETATM   21  C   UNL     1     -42.822  57.784 -54.810  1.00  0.00     0.321 C 
HETATM   22  N   UNL     1     -42.137  57.048 -55.744  1.00  0.00    -0.309 N 
HETATM   23  O   UNL     1     -43.845  58.424 -55.014  1.00  0.00    -0.247 OA
HETATM   24  H   UNL     1     -41.494  56.355 -55.389  1.00  0.00     0.170 HD
HETATM   25  H   UNL     1     -41.319  57.368 -53.510  1.00  0.00     0.164 HD
BRANCH  22  26
HETATM   26  C   UNL     1     -42.486  56.919 -57.108  1.00  0.00     0.036 A 
HETATM   27  C   UNL     1     -43.079  55.774 -57.648  1.00  0.00     0.029 A 
HETATM   28  C   UNL     1     -43.361  55.697 -59.014  1.00  0.00     0.002 A 
HETATM   29  C   UNL     1     -43.055  56.766 -59.853  1.00  0.00     0.000 A 
HETATM   30  C   UNL     1     -42.483  57.919 -59.321  1.00  0.00     0.002 A 
HETATM   31  C   UNL     1     -42.209  58.000 -57.952  1.00  0.00     0.029 A 
ENDBRANCH  22  26
ENDBRANCH   5  20
TORSDOF 6
ENDMDL
MODEL 3
REMARK VINA RESULT:      -7.6      1.798      2.513
REMARK  6 active torsions:
REMARK  status: ('A' for Active; 'I' for Inactive)
REMARK    1  A    between atoms: C_2  and  N_3 
REMARK    2  A    between atoms: C_2  and  C_24 
REMARK       I    between atoms: N_3  and  C_4 
REMARK    3  A    between atoms: C_4  and  C_5 
REMARK    4  A    between atoms: C_5  and  N_6 
REMARK    5  A    between atoms: C_10  and  N_11 
REMARK       I    between atoms: N_11  and  C_12 
REMARK       I    between atoms: C_12  and  N_13 
REMARK    6  A    between atoms: N_13  and  C_14 
ROOT
HETATM    1  N   UNL     1     -43.558  58.623 -52.560  1.00  0.00    -0.063 N 
HETATM    2  H   UNL     1     -44.041  59.219 -51.872  1.00  0.00     0.280 HD
HETATM    3  C   UNL     1     -44.085  57.222 -52.349  1.00  0.00     0.237 C 
HETATM    4  C   UNL     1     -43.429  56.534 -51.170  1.00  0.00     0.053 C 
HETATM    5  C   UNL     1     -41.907  56.557 -51.227  1.00  0.00     0.089 C 
HETATM    6  C   UNL     1     -41.406  57.992 -51.357  1.00  0.00     0.053 C 
HETATM    7  C   UNL     1     -42.069  58.830 -52.436  1.00  0.00     0.237 C 
ENDROOT
BRANCH   1   8
HETATM    8  C   UNL     1     -44.008  59.152 -53.940  1.00  0.00     0.337 C 
BRANCH   8   9
HETATM    9  C   UNL     1     -44.314  58.035 -54.937  1.00  0.00     0.244 C 
HETATM   10  N   UNL     1     -43.210  57.412 -55.462  1.00  0.00    -0.351 N 
HETATM   11  H   UNL     1     -42.274  57.676 -55.174  1.00  0.00     0.163 HD
HETATM   12  O   UNL     1     -45.474  57.702 -55.161  1.00  0.00    -0.272 OA
BRANCH  10  13
HETATM   13  C   UNL     1     -43.296  56.280 -56.374  1.00  0.00     0.120 C 
HETATM   14  C   UNL     1     -42.473  55.088 -55.888  1.00  0.00     0.038 C 
BRANCH  13  15
HETATM   15  C   UNL     1     -42.851  56.752 -57.738  1.00  0.00     0.005 A 
HETATM   16  S   UNL     1     -42.189  58.324 -57.969  1.00  0.00    -0.104 SA
HETATM   17  C   UNL     1     -41.973  58.063 -59.643  1.00  0.00     0.050 A 
HETATM   18  C   UNL     1     -42.397  56.813 -60.029  1.00  0.00     0.008 A 
HETATM   19  C   UNL     1     -42.902  56.057 -58.932  1.00  0.00     0.017 A 
ENDBRANCH  13  15
ENDBRANCH  10  13
ENDBRANCH   8   9
ENDBRANCH   1   8
BRANCH   5  20
HETATM   20  N   UNL     1     -41.347  55.578 -52.162  1.00  0.00    -0.338 N 
HETATM   21  C   UNL     1     -41.350  54.211 -52.028  1.00  0.00     0.321 C 
HETATM   22  N   UNL     1     -40.458  53.606 -52.877  1.00  0.00    -0.309 N 
HETATM   23  O   UNL     1     -42.014  53.646 -51.168  1.00  0.00    -0.247 OA
HETATM   24  H   UNL     1     -39.784  54.209 -53.327  1.00  0.00     0.170 HD
HETATM   25  H   UNL     1     -41.029  55.931 -53.057  1.00  0.00     0.164 HD
BRANCH  22  26
HETATM   26  C   UNL     1     -40.167  52.223 -52.918  1.00  0.00     0.036 A 
HETATM   27  C   UNL     1     -39.687  51.503 -51.820  1.00  0.00     0.029 A 
HETATM   28  C   UNL     1     -39.380  50.145 -51.940  1.00  0.00     0.002 A 
HETATM   29  C   UNL     1     -39.554  49.495 -53.159  1.00  0.00     0.000 A 
HETATM   30  C   UNL     1     -40.051  50.199 -54.254  1.00  0.00     0.002 A 
HETATM   31  C   UNL     1     -40.367  51.555 -54.131  1.00  0.00     0.029 A 
ENDBRANCH  22  26
ENDBRANCH   5  20
TORSDOF 6
ENDMDL
MODEL 4
REMARK VINA RESULT:      -7.3      1.706      2.248
REMARK  6 active torsions:
REMARK  status: ('A' for Active; 'I' for Inactive)
REMARK    1  A    between atoms: C_2  and  N_3 
REMARK    2  A    between atoms: C_2  and  C_24 
REMARK       I    between atoms: N_3  and  C_4 
REMARK    3  A    between atoms: C_4  and  C_5 
REMARK    4  A    between atoms: C_5  and  N_6 
REMARK    5  A    between atoms: C_10  and  N_11 
REMARK       I    between atoms: N_11  and  C_12 
REMARK       I    between atoms: C_12  and  N_13 
REMARK    6  A    between atoms: N_13  and  C_14 
ROOT
HETATM    1  N   UNL     1     -43.827  59.155 -53.440  1.00  0.00    -0.063 N 
HETATM    2  H   UNL     1     -44.525  59.703 -52.916  1.00  0.00     0.280 HD
HETATM    3  C   UNL     1     -44.398  57.763 -53.576  1.00  0.00     0.237 C 
HETATM    4  C   UNL     1     -44.217  56.943 -52.316  1.00  0.00     0.053 C 
HETATM    5  C   UNL     1     -42.779  56.912 -51.815  1.00  0.00     0.089 C 
HETATM    6  C   UNL     1     -42.261  58.332 -51.611  1.00  0.00     0.053 C 
HETATM    7  C   UNL     1     -42.484  59.292 -52.766  1.00  0.00     0.237 C 
ENDROOT
BRANCH   1   8
HETATM    8  C   UNL     1     -43.743  59.828 -54.828  1.00  0.00     0.337 C 
BRANCH   8   9
HETATM    9  C   UNL     1     -42.737  59.153 -55.758  1.00  0.00     0.244 C 
HETATM   10  N   UNL     1     -43.277  58.607 -56.895  1.00  0.00    -0.351 N 
HETATM   11  H   UNL     1     -44.270  58.682 -57.090  1.00  0.00     0.163 HD
HETATM   12  O   UNL     1     -41.535  59.188 -55.506  1.00  0.00    -0.272 OA
BRANCH  10  13
HETATM   13  C   UNL     1     -42.473  57.982 -57.935  1.00  0.00     0.120 C 
HETATM   14  C   UNL     1     -41.848  59.014 -58.875  1.00  0.00     0.038 C 
BRANCH  13  15
HETATM   15  C   UNL     1     -43.356  57.008 -58.678  1.00  0.00     0.005 A 
HETATM   16  S   UNL     1     -45.018  57.351 -58.973  1.00  0.00    -0.104 SA
HETATM   17  C   UNL     1     -45.250  55.869 -59.789  1.00  0.00     0.050 A 
HETATM   18  C   UNL     1     -44.098  55.120 -59.838  1.00  0.00     0.008 A 
HETATM   19  C   UNL     1     -43.006  55.776 -59.198  1.00  0.00     0.017 A 
ENDBRANCH  13  15
ENDBRANCH  10  13
ENDBRANCH   8   9
ENDBRANCH   1   8
BRANCH   5  20
HETATM   20  N   UNL     1     -41.920  56.002 -52.579  1.00  0.00    -0.338 N 
HETATM   21  C   UNL     1     -41.882  54.632 -52.491  1.00  0.00     0.321 C 
HETATM   22  N   UNL     1     -40.752  54.108 -53.066  1.00  0.00    -0.309 N 
HETATM   23  O   UNL     1     -42.730  53.999 -51.874  1.00  0.00    -0.247 OA
HETATM   24  H   UNL     1     -40.014  54.762 -53.286  1.00  0.00     0.170 HD
HETATM   25  H   UNL     1     -41.381  56.410 -53.335  1.00  0.00     0.164 HD
BRANCH  22  26
HETATM   26  C   UNL     1     -40.381  52.744 -53.062  1.00  0.00     0.036 A 
HETATM   27  C   UNL     1     -39.824  52.099 -51.954  1.00  0.00     0.029 A 
HETATM   28  C   UNL     1     -39.443  50.757 -52.030  1.00  0.00     0.002 A 
HETATM   29  C   UNL     1     -39.617  50.047 -53.216  1.00  0.00     0.000 A 
HETATM   30  C   UNL     1     -40.190  50.675 -54.319  1.00  0.00     0.002 A 
HETATM   31  C   UNL     1     -40.581  52.015 -54.240  1.00  0.00     0.029 A 
ENDBRANCH  22  26
ENDBRANCH   5  20
TORSDOF 6
ENDMDL
MODEL 5
REMARK VINA RESULT:      -7.2      2.229      2.704
REMARK  6 active torsions:
REMARK  status: ('A' for Active; 'I' for Inactive)
REMARK    1  A    between atoms: C_2  and  N_3 
REMARK    2  A    between atoms: C_2  and  C_24 
REMARK       I    between atoms: N_3  and  C_4 
REMARK    3  A    between atoms: C_4  and  C_5 
REMARK    4  A    between atoms: C_5  and  N_6 
REMARK    5  A    between atoms: C_10  and  N_11 
REMARK       I    between atoms: N_11  and  C_12 
REMARK       I    between atoms: C_12  and  N_13 
REMARK    6  A    between atoms: N_13  and  C_14 
ROOT
HETATM    1  N   UNL     1     -43.943  58.117 -53.662  1.00  0.00    -0.063 N 
HETATM    2  H   UNL     1     -44.460  58.789 -53.076  1.00  0.00     0.280 HD
HETATM    3  C   UNL     1     -44.177  56.755 -53.050  1.00  0.00     0.237 C 
HETATM    4  C   UNL     1     -43.295  56.509 -51.844  1.00  0.00     0.053 C 
HETATM    5  C   UNL     1     -41.816  56.754 -52.116  1.00  0.00     0.089 C 
HETATM    6  C   UNL     1     -41.606  58.165 -52.655  1.00  0.00     0.053 C 
HETATM    7  C   UNL     1     -42.514  58.579 -53.800  1.00  0.00     0.237 C 
ENDROOT
BRANCH   1   8
HETATM    8  C   UNL     1     -44.613  58.193 -55.052  1.00  0.00     0.337 C 
BRANCH   8   9
HETATM    9  C   UNL     1     -43.901  57.344 -56.104  1.00  0.00     0.244 C 
HETATM   10  N   UNL     1     -43.619  57.997 -57.277  1.00  0.00    -0.351 N 
HETATM   11  H   UNL     1     -43.855  58.976 -57.402  1.00  0.00     0.163 HD
HETATM   12  O   UNL     1     -43.556  56.194 -55.847  1.00  0.00    -0.272 OA
BRANCH  10  13
HETATM   13  C   UNL     1     -42.885  57.379 -58.373  1.00  0.00     0.120 C 
HETATM   14  C   UNL     1     -42.187  58.416 -59.252  1.00  0.00     0.038 C 
BRANCH  13  15
HETATM   15  C   UNL     1     -43.858  56.536 -59.163  1.00  0.00     0.005 A 
HETATM   16  S   UNL     1     -45.189  57.246 -59.993  1.00  0.00    -0.104 SA
HETATM   17  C   UNL     1     -45.726  55.731 -60.570  1.00  0.00     0.050 A 
HETATM   18  C   UNL     1     -44.921  54.700 -60.142  1.00  0.00     0.008 A 
HETATM   19  C   UNL     1     -43.844  55.164 -59.332  1.00  0.00     0.017 A 
ENDBRANCH  13  15
ENDBRANCH  10  13
ENDBRANCH   8   9
ENDBRANCH   1   8
BRANCH   5  20
HETATM   20  N   UNL     1     -41.176  55.664 -52.859  1.00  0.00    -0.338 N 
HETATM   21  C   UNL     1     -41.255  54.320 -52.586  1.00  0.00     0.321 C 
HETATM   22  N   UNL     1     -40.282  53.604 -53.235  1.00  0.00    -0.309 N 
HETATM   23  O   UNL     1     -42.053  53.870 -51.774  1.00  0.00    -0.247 OA
HETATM   24  H   UNL     1     -39.528  54.136 -53.646  1.00  0.00     0.170 HD
HETATM   25  H   UNL     1     -40.725  55.911 -53.731  1.00  0.00     0.164 HD
BRANCH  22  26
HETATM   26  C   UNL     1     -40.046  52.217 -53.093  1.00  0.00     0.036 A 
HETATM   27  C   UNL     1     -40.215  51.295 -54.129  1.00  0.00     0.029 A 
HETATM   28  C   UNL     1     -40.003  49.931 -53.908  1.00  0.00     0.002 A 
HETATM   29  C   UNL     1     -39.617  49.478 -52.649  1.00  0.00     0.000 A 
HETATM   30  C   UNL     1     -39.425  50.392 -51.615  1.00  0.00     0.002 A 
HETATM   31  C   UNL     1     -39.628  51.757 -51.838  1.00  0.00     0.029 A 
ENDBRANCH  22  26
ENDBRANCH   5  20
TORSDOF 6
ENDMDL
MODEL 6
REMARK VINA RESULT:      -7.2      1.938      4.248
REMARK  6 active torsions:
REMARK  status: ('A' for Active; 'I' for Inactive)
REMARK    1  A    between atoms: C_2  and  N_3 
REMARK    2  A    between atoms: C_2  and  C_24 
REMARK       I    between atoms: N_3  and  C_4 
REMARK    3  A    between atoms: C_4  and  C_5 
REMARK    4  A    between atoms: C_5  and  N_6 
REMARK    5  A    between atoms: C_10  and  N_11 
REMARK       I    between atoms: N_11  and  C_12 
REMARK       I    between atoms: C_12  and  N_13 
REMARK    6  A    between atoms: N_13  and  C_14 
ROOT
HETATM    1  N   UNL     1     -42.988  59.320 -55.706  1.00  0.00    -0.063 N 
HETATM    2  H   UNL     1     -43.756  59.835 -56.161  1.00  0.00     0.280 HD
HETATM    3  C   UNL     1     -42.103  58.811 -56.821  1.00  0.00     0.237 C 
HETATM    4  C   UNL     1     -42.663  57.565 -57.475  1.00  0.00     0.053 C 
HETATM    5  C   UNL     1     -43.003  56.462 -56.482  1.00  0.00     0.089 C 
HETATM    6  C   UNL     1     -43.962  56.986 -55.418  1.00  0.00     0.053 C 
HETATM    7  C   UNL     1     -43.570  58.298 -54.761  1.00  0.00     0.237 C 
ENDROOT
BRANCH   1   8
HETATM    8  C   UNL     1     -42.230  60.376 -54.872  1.00  0.00     0.337 C 
BRANCH   8   9
HETATM    9  C   UNL     1     -41.605  59.796 -53.603  1.00  0.00     0.244 C 
HETATM   10  N   UNL     1     -42.320  60.019 -52.454  1.00  0.00    -0.351 N 
HETATM   11  H   UNL     1     -43.206  60.514 -52.476  1.00  0.00     0.163 HD
HETATM   12  O   UNL     1     -40.581  59.122 -53.666  1.00  0.00    -0.272 OA
BRANCH  10  13
HETATM   13  C   UNL     1     -41.924  59.489 -51.157  1.00  0.00     0.120 C 
HETATM   14  C   UNL     1     -40.414  59.578 -50.937  1.00  0.00     0.038 C 
BRANCH  13  15
HETATM   15  C   UNL     1     -42.420  58.065 -51.070  1.00  0.00     0.005 A 
HETATM   16  S   UNL     1     -44.088  57.684 -51.271  1.00  0.00    -0.104 SA
HETATM   17  C   UNL     1     -43.806  56.015 -51.043  1.00  0.00     0.050 A 
HETATM   18  C   UNL     1     -42.477  55.743 -50.813  1.00  0.00     0.008 A 
HETATM   19  C   UNL     1     -41.678  56.923 -50.830  1.00  0.00     0.017 A 
ENDBRANCH  13  15
ENDBRANCH  10  13
ENDBRANCH   8   9
ENDBRANCH   1   8
BRANCH   5  20
HETATM   20  N   UNL     1     -41.826  55.731 -56.003  1.00  0.00    -0.338 N 
HETATM   21  C   UNL     1     -41.815  54.549 -55.302  1.00  0.00     0.321 C 
HETATM   22  N   UNL     1     -40.601  54.312 -54.708  1.00  0.00    -0.309 N 
HETATM   23  O   UNL     1     -42.823  53.868 -55.167  1.00  0.00    -0.247 OA
HETATM   24  H   UNL     1     -39.957  55.089 -54.674  1.00  0.00     0.170 HD
HETATM   25  H   UNL     1     -40.923  56.063 -56.319  1.00  0.00     0.164 HD
BRANCH  22  26
HETATM   26  C   UNL     1     -40.301  53.228 -53.852  1.00  0.00     0.036 A 
HETATM   27  C   UNL     1     -40.230  53.341 -52.460  1.00  0.00     0.029 A 
HETATM   28  C   UNL     1     -39.888  52.237 -51.674  1.00  0.00     0.002 A 
HETATM   29  C   UNL     1     -39.616  51.010 -52.274  1.00  0.00     0.000 A 
HETATM   30  C   UNL     1     -39.704  50.882 -53.658  1.00  0.00     0.002 A 
HETATM   31  C   UNL     1     -40.055  51.984 -54.443  1.00  0.00     0.029 A 
ENDBRANCH  22  26
ENDBRANCH   5  20
TORSDOF 6
ENDMDL
MODEL 7
REMARK VINA RESULT:      -7.2      6.002      8.039
REMARK  6 active torsions:
REMARK  status: ('A' for Active; 'I' for Inactive)
REMARK    1  A    between atoms: C_2  and  N_3 
REMARK    2  A    between atoms: C_2  and  C_24 
REMARK       I    between atoms: N_3  and  C_4 
REMARK    3  A    between atoms: C_4  and  C_5 
REMARK    4  A    between atoms: C_5  and  N_6 
REMARK    5  A    between atoms: C_10  and  N_11 
REMARK       I    between atoms: N_11  and  C_12 
REMARK       I    between atoms: C_12  and  N_13 
REMARK    6  A    between atoms: N_13  and  C_14 
ROOT
HETATM    1  N   UNL     1     -45.539  56.733 -60.139  1.00  0.00    -0.063 N 
HETATM    2  H   UNL     1     -45.413  57.488 -60.829  1.00  0.00     0.280 HD
HETATM    3  C   UNL     1     -45.460  57.386 -58.779  1.00  0.00     0.237 C 
HETATM    4  C   UNL     1     -44.032  57.651 -58.351  1.00  0.00     0.053 C 
HETATM    5  C   UNL     1     -43.138  56.420 -58.434  1.00  0.00     0.089 C 
HETATM    6  C   UNL     1     -43.177  55.834 -59.841  1.00  0.00     0.053 C 
HETATM    7  C   UNL     1     -44.559  55.625 -60.435  1.00  0.00     0.237 C 
ENDROOT
BRANCH   1   8
HETATM    8  C   UNL     1     -46.966  56.196 -60.385  1.00  0.00     0.337 C 
BRANCH   8   9
HETATM    9  C   UNL     1     -47.665  56.875 -61.562  1.00  0.00     0.244 C 
HETATM   10  N   UNL     1     -47.698  58.245 -61.501  1.00  0.00    -0.351 N 
HETATM   11  H   UNL     1     -47.262  58.746 -60.733  1.00  0.00     0.163 HD
HETATM   12  O   UNL     1     -48.081  56.210 -62.506  1.00  0.00    -0.272 OA
BRANCH  10  13
HETATM   13  C   UNL     1     -48.258  59.073 -62.559  1.00  0.00     0.120 C 
HETATM   14  C   UNL     1     -47.458  60.360 -62.765  1.00  0.00     0.038 C 
BRANCH  13  15
HETATM   15  C   UNL     1     -49.699  59.358 -62.209  1.00  0.00     0.005 A 
HETATM   16  S   UNL     1     -50.119  60.569 -61.059  1.00  0.00    -0.104 SA
HETATM   17  C   UNL     1     -51.789  60.263 -61.243  1.00  0.00     0.050 A 
HETATM   18  C   UNL     1     -52.033  59.261 -62.153  1.00  0.00     0.008 A 
HETATM   19  C   UNL     1     -50.829  58.740 -62.710  1.00  0.00     0.017 A 
ENDBRANCH  13  15
ENDBRANCH  10  13
ENDBRANCH   8   9
ENDBRANCH   1   8
BRANCH   5  20
HETATM   20  N   UNL     1     -43.340  55.482 -57.325  1.00  0.00    -0.338 N 
HETATM   21  C   UNL     1     -42.642  55.438 -56.143  1.00  0.00     0.321 C 
HETATM   22  N   UNL     1     -42.828  54.252 -55.478  1.00  0.00    -0.309 N 
HETATM   23  O   UNL     1     -41.877  56.334 -55.809  1.00  0.00    -0.247 OA
HETATM   24  H   UNL     1     -43.258  53.504 -56.002  1.00  0.00     0.170 HD
HETATM   25  H   UNL     1     -44.152  54.879 -57.380  1.00  0.00     0.164 HD
BRANCH  22  26
HETATM   26  C   UNL     1     -42.181  53.869 -54.281  1.00  0.00     0.036 A 
HETATM   27  C   UNL     1     -42.633  54.231 -53.009  1.00  0.00     0.029 A 
HETATM   28  C   UNL     1     -41.922  53.852 -51.867  1.00  0.00     0.002 A 
HETATM   29  C   UNL     1     -40.753  53.103 -51.988  1.00  0.00     0.000 A 
HETATM   30  C   UNL     1     -40.306  52.720 -53.250  1.00  0.00     0.002 A 
HETATM   31  C   UNL     1     -41.022  53.091 -54.391  1.00  0.00     0.029 A 
ENDBRANCH  22  26
ENDBRANCH   5  20
TORSDOF 6
ENDMDL
MODEL 8
REMARK VINA RESULT:      -7.0      2.406      3.497
REMARK  6 active torsions:
REMARK  status: ('A' for Active; 'I' for Inactive)
REMARK    1  A    between atoms: C_2  and  N_3 
REMARK    2  A    between atoms: C_2  and  C_24 
REMARK       I    between atoms: N_3  and  C_4 
REMARK    3  A    between atoms: C_4  and  C_5 
REMARK    4  A    between atoms: C_5  and  N_6 
REMARK    5  A    between atoms: C_10  and  N_11 
REMARK       I    between atoms: N_11  and  C_12 
REMARK       I    between atoms: C_12  and  N_13 
REMARK    6  A    between atoms: N_13  and  C_14 
ROOT
HETATM    1  N   UNL     1     -43.019  59.321 -53.544  1.00  0.00    -0.063 N 
HETATM    2  H   UNL     1     -43.900  59.825 -53.363  1.00  0.00     0.280 HD
HETATM    3  C   UNL     1     -43.393  58.083 -54.325  1.00  0.00     0.237 C 
HETATM    4  C   UNL     1     -43.935  56.985 -53.435  1.00  0.00     0.053 C 
HETATM    5  C   UNL     1     -43.022  56.652 -52.261  1.00  0.00     0.089 C 
HETATM    6  C   UNL     1     -42.732  57.908 -51.447  1.00  0.00     0.053 C 
HETATM    7  C   UNL     1     -42.286  59.124 -52.240  1.00  0.00     0.237 C 
ENDROOT
BRANCH   1   8
HETATM    8  C   UNL     1     -42.184  60.272 -54.430  1.00  0.00     0.337 C 
BRANCH   8   9
HETATM    9  C   UNL     1     -42.776  60.459 -55.826  1.00  0.00     0.244 C 
HETATM   10  N   UNL     1     -41.959  60.069 -56.857  1.00  0.00    -0.351 N 
HETATM   11  H   UNL     1     -41.044  59.666 -56.676  1.00  0.00     0.163 HD
HETATM   12  O   UNL     1     -43.928  60.859 -55.965  1.00  0.00    -0.272 OA
BRANCH  10  13
HETATM   13  C   UNL     1     -42.369  60.105 -58.253  1.00  0.00     0.120 C 
HETATM   14  C   UNL     1     -42.256  58.734 -58.920  1.00  0.00     0.038 C 
BRANCH  13  15
HETATM   15  C   UNL     1     -41.526  61.142 -58.955  1.00  0.00     0.005 A 
HETATM   16  S   UNL     1     -41.687  61.433 -60.645  1.00  0.00    -0.104 SA
HETATM   17  C   UNL     1     -40.481  62.642 -60.623  1.00  0.00     0.050 A 
HETATM   18  C   UNL     1     -39.957  62.825 -59.364  1.00  0.00     0.008 A 
HETATM   19  C   UNL     1     -40.559  61.962 -58.403  1.00  0.00     0.017 A 
ENDBRANCH  13  15
ENDBRANCH  10  13
ENDBRANCH   8   9
ENDBRANCH   1   8
BRANCH   5  20
HETATM   20  N   UNL     1     -41.868  55.832 -52.640  1.00  0.00    -0.338 N 
HETATM   21  C   UNL     1     -41.857  54.479 -52.875  1.00  0.00     0.321 C 
HETATM   22  N   UNL     1     -40.586  53.962 -52.863  1.00  0.00    -0.309 N 
HETATM   23  O   UNL     1     -42.891  53.831 -52.979  1.00  0.00    -0.247 OA
HETATM   24  H   UNL     1     -39.861  54.559 -52.491  1.00  0.00     0.170 HD
HETATM   25  H   UNL     1     -41.013  56.325 -52.867  1.00  0.00     0.164 HD
BRANCH  22  26
HETATM   26  C   UNL     1     -40.251  52.595 -52.988  1.00  0.00     0.036 A 
HETATM   27  C   UNL     1     -40.334  51.886 -54.189  1.00  0.00     0.029 A 
HETATM   28  C   UNL     1     -40.026  50.524 -54.234  1.00  0.00     0.002 A 
HETATM   29  C   UNL     1     -39.628  49.859 -53.077  1.00  0.00     0.000 A 
HETATM   30  C   UNL     1     -39.522  50.561 -51.878  1.00  0.00     0.002 A 
HETATM   31  C   UNL     1     -39.821  51.926 -51.836  1.00  0.00     0.029 A 
ENDBRANCH  22  26
ENDBRANCH   5  20
TORSDOF 6
ENDMDL
MODEL 9
REMARK VINA RESULT:      -6.9      3.480      5.295
REMARK  6 active torsions:
REMARK  status: ('A' for Active; 'I' for Inactive)
REMARK    1  A    between atoms: C_2  and  N_3 
REMARK    2  A    between atoms: C_2  and  C_24 
REMARK       I    between atoms: N_3  and  C_4 
REMARK    3  A    between atoms: C_4  and  C_5 
REMARK    4  A    between atoms: C_5  and  N_6 
REMARK    5  A    between atoms: C_10  and  N_11 
REMARK       I    between atoms: N_11  and  C_12 
REMARK       I    between atoms: C_12  and  N_13 
REMARK    6  A    between atoms: N_13  and  C_14 
ROOT
HETATM    1  N   UNL     1     -44.075  58.145 -52.558  1.00  0.00    -0.063 N 
HETATM    2  H   UNL     1     -44.353  59.037 -52.993  1.00  0.00     0.280 HD
HETATM    3  C   UNL     1     -42.731  58.390 -51.912  1.00  0.00     0.237 C 
HETATM    4  C   UNL     1     -41.597  58.349 -52.915  1.00  0.00     0.053 C 
HETATM    5  C   UNL     1     -41.587  57.086 -53.766  1.00  0.00     0.089 C 
HETATM    6  C   UNL     1     -42.930  56.912 -54.468  1.00  0.00     0.053 C 
HETATM    7  C   UNL     1     -44.160  57.045 -53.587  1.00  0.00     0.237 C 
ENDROOT
BRANCH   1   8
HETATM    8  C   UNL     1     -45.140  57.876 -51.472  1.00  0.00     0.337 C 
BRANCH   8   9
HETATM    9  C   UNL     1     -45.642  59.153 -50.800  1.00  0.00     0.244 C 
HETATM   10  N   UNL     1     -45.736  60.243 -51.628  1.00  0.00    -0.351 N 
HETATM   11  H   UNL     1     -45.505  60.172 -52.614  1.00  0.00     0.163 HD
HETATM   12  O   UNL     1     -45.999  59.140 -49.625  1.00  0.00    -0.272 OA
BRANCH  10  13
HETATM   13  C   UNL     1     -46.258  61.530 -51.192  1.00  0.00     0.120 C 
HETATM   14  C   UNL     1     -47.052  62.230 -52.294  1.00  0.00     0.038 C 
BRANCH  13  15
HETATM   15  C   UNL     1     -45.092  62.366 -50.723  1.00  0.00     0.005 A 
HETATM   16  S   UNL     1     -45.324  63.736 -49.705  1.00  0.00    -0.104 SA
HETATM   17  C   UNL     1     -43.650  64.071 -49.657  1.00  0.00     0.050 A 
HETATM   18  C   UNL     1     -42.921  63.171 -50.400  1.00  0.00     0.008 A 
HETATM   19  C   UNL     1     -43.752  62.188 -51.013  1.00  0.00     0.017 A 
ENDBRANCH  13  15
ENDBRANCH  10  13
ENDBRANCH   8   9
ENDBRANCH   1   8
BRANCH   5  20
HETATM   20  N   UNL     1     -41.059  55.916 -53.059  1.00  0.00    -0.338 N 
HETATM   21  C   UNL     1     -40.636  54.734 -53.618  1.00  0.00     0.321 C 
HETATM   22  N   UNL     1     -40.532  53.731 -52.687  1.00  0.00    -0.309 N 
HETATM   23  O   UNL     1     -40.478  54.608 -54.825  1.00  0.00    -0.247 OA
HETATM   24  H   UNL     1     -40.959  53.904 -51.788  1.00  0.00     0.170 HD
HETATM   25  H   UNL     1     -40.873  56.026 -52.069  1.00  0.00     0.164 HD
BRANCH  22  26
HETATM   26  C   UNL     1     -40.207  52.383 -52.961  1.00  0.00     0.036 A 
HETATM   27  C   UNL     1     -40.368  51.790 -54.216  1.00  0.00     0.029 A 
HETATM   28  C   UNL     1     -40.064  50.440 -54.409  1.00  0.00     0.002 A 
HETATM   29  C   UNL     1     -39.593  49.671 -53.348  1.00  0.00     0.000 A 
HETATM   30  C   UNL     1     -39.408  50.258 -52.098  1.00  0.00     0.002 A 
HETATM   31  C   UNL     1     -39.703  51.611 -51.908  1.00  0.00     0.029 A 
ENDBRANCH  22  26
ENDBRANCH   5  20
TORSDOF 6
ENDMDL
MODEL 10
REMARK VINA RESULT:      -6.9      3.048      4.831
REMARK  6 active torsions:
REMARK  status: ('A' for Active; 'I' for Inactive)
REMARK    1  A    between atoms: C_2  and  N_3 
REMARK    2  A    between atoms: C_2  and  C_24 
REMARK       I    between atoms: N_3  and  C_4 
REMARK    3  A    between atoms: C_4  and  C_5 
REMARK    4  A    between atoms: C_5  and  N_6 
REMARK    5  A    between atoms: C_10  and  N_11 
REMARK       I    between atoms: N_11  and  C_12 
REMARK       I    between atoms: C_12  and  N_13 
REMARK    6  A    between atoms: N_13  and  C_14 
ROOT
HETATM    1  N   UNL     1     -42.333  59.192 -52.094  1.00  0.00    -0.063 N 
HETATM    2  H   UNL     1     -42.919  59.755 -51.460  1.00  0.00     0.280 HD
HETATM    3  C   UNL     1     -43.191  58.033 -52.546  1.00  0.00     0.237 C 
HETATM    4  C   UNL     1     -43.267  56.935 -51.506  1.00  0.00     0.053 C 
HETATM    5  C   UNL     1     -41.901  56.464 -51.023  1.00  0.00     0.089 C 
HETATM    6  C   UNL     1     -41.092  57.646 -50.497  1.00  0.00     0.053 C 
HETATM    7  C   UNL     1     -41.032  58.864 -51.403  1.00  0.00     0.237 C 
ENDROOT
BRANCH   1   8
HETATM    8  C   UNL     1     -42.024  60.118 -53.290  1.00  0.00     0.337 C 
BRANCH   8   9
HETATM    9  C   UNL     1     -42.984  61.303 -53.390  1.00  0.00     0.244 C 
HETATM   10  N   UNL     1     -43.079  62.066 -52.253  1.00  0.00    -0.351 N 
HETATM   11  H   UNL     1     -42.524  61.851 -51.431  1.00  0.00     0.163 HD
HETATM   12  O   UNL     1     -43.547  61.561 -54.450  1.00  0.00    -0.272 OA
BRANCH  10  13
HETATM   13  C   UNL     1     -43.887  63.275 -52.173  1.00  0.00     0.120 C 
HETATM   14  C   UNL     1     -43.029  64.539 -52.173  1.00  0.00     0.038 C 
BRANCH  13  15
HETATM   15  C   UNL     1     -44.743  63.176 -50.933  1.00  0.00     0.005 A 
HETATM   16  S   UNL     1     -45.981  61.988 -50.790  1.00  0.00    -0.104 SA
HETATM   17  C   UNL     1     -46.416  62.527 -49.230  1.00  0.00     0.050 A 
HETATM   18  C   UNL     1     -45.647  63.591 -48.818  1.00  0.00     0.008 A 
HETATM   19  C   UNL     1     -44.682  63.965 -49.799  1.00  0.00     0.017 A 
ENDBRANCH  13  15
ENDBRANCH  10  13
ENDBRANCH   8   9
ENDBRANCH   1   8
BRANCH   5  20
HETATM   20  N   UNL     1     -41.226  55.575 -51.972  1.00  0.00    -0.338 N 
HETATM   21  C   UNL     1     -41.313  54.206 -52.027  1.00  0.00     0.321 C 
HETATM   22  N   UNL     1     -40.309  53.654 -52.784  1.00  0.00    -0.309 N 
HETATM   23  O   UNL     1     -42.144  53.583 -51.379  1.00  0.00    -0.247 OA
HETATM   24  H   UNL     1     -39.540  54.263 -53.024  1.00  0.00     0.170 HD
HETATM   25  H   UNL     1     -40.737  56.017 -52.742  1.00  0.00     0.164 HD
BRANCH  22  26
HETATM   26  C   UNL     1     -40.076  52.271 -52.961  1.00  0.00     0.036 A 
HETATM   27  C   UNL     1     -40.273  51.604 -54.173  1.00  0.00     0.029 A 
HETATM   28  C   UNL     1     -40.062  50.226 -54.269  1.00  0.00     0.002 A 
HETATM   29  C   UNL     1     -39.648  49.504 -53.153  1.00  0.00     0.000 A 
HETATM   30  C   UNL     1     -39.428  50.163 -51.945  1.00  0.00     0.002 A 
HETATM   31  C   UNL     1     -39.631  51.543 -51.852  1.00  0.00     0.029 A 
ENDBRANCH  22  26
ENDBRANCH   5  20
TORSDOF 6
ENDMDL
