MODEL 1
REMARK VINA RESULT:      -7.3      0.000      0.000
REMARK  8 active torsions:
REMARK  status: ('A' for Active; 'I' for Inactive)
REMARK    1  A    between atoms: C_2  and  N_3 
REMARK    2  A    between atoms: C_2  and  C_17 
REMARK    3  A    between atoms: N_3  and  N_4 
REMARK       I    between atoms: N_4  and  C_5 
REMARK    4  A    between atoms: C_5  and  C_6 
REMARK    5  A    between atoms: C_6  and  N_7 
REMARK    6  A    between atoms: N_7  and  C_8 
REMARK    7  A    between atoms: C_9  and  O_10 
REMARK       I    between atoms: C_17  and  N_18 
REMARK    8  A    between atoms: N_18  and  C_19 
ROOT
HETATM    1  N   UNL     1     -41.643  56.756 -53.014  1.00  0.00    -0.225 NA
HETATM    2  H   UNL     1     -40.653  56.590 -53.254  1.00  0.00     0.147 HD
ENDROOT
BRANCH   1   3
HETATM    3  C   UNL     1     -41.856  56.107 -51.682  1.00  0.00     0.165 C 
HETATM    4  C   UNL     1     -43.190  56.583 -51.116  1.00  0.00     0.038 C 
BRANCH   3   5
HETATM    5  C   UNL     1     -41.878  54.572 -51.806  1.00  0.00     0.241 C 
HETATM    6  N   UNL     1     -40.618  54.030 -51.996  1.00  0.00    -0.326 N 
HETATM    7  H   UNL     1     -39.875  54.724 -51.971  1.00  0.00     0.169 HD
HETATM    8  O   UNL     1     -42.937  53.951 -51.779  1.00  0.00    -0.271 OA
BRANCH   6   9
HETATM    9  C   UNL     1     -40.253  52.676 -52.067  1.00  0.00     0.036 A 
HETATM   10  C   UNL     1     -40.062  51.982 -53.265  1.00  0.00     0.053 A 
HETATM   11  C   UNL     1     -39.731  50.627 -53.240  1.00  0.00     0.036 A 
HETATM   12 CL   UNL     1     -39.508  49.774 -54.719  1.00  0.00    -0.084 Cl
HETATM   13  C   UNL     1     -39.585  49.951 -52.031  1.00  0.00     0.024 A 
HETATM   14  C   UNL     1     -39.766  50.638 -50.833  1.00  0.00     0.004 A 
HETATM   15  C   UNL     1     -40.096  51.995 -50.853  1.00  0.00     0.029 A 
ENDBRANCH   6   9
ENDBRANCH   3   5
ENDBRANCH   1   3
BRANCH   1  16
HETATM   16  N   UNL     1     -42.406  56.106 -54.029  1.00  0.00    -0.290 N 
HETATM   17  C   UNL     1     -41.744  55.365 -55.006  1.00  0.00     0.245 C 
HETATM   18  O   UNL     1     -40.526  55.190 -55.002  1.00  0.00    -0.271 OA
HETATM   19  H   UNL     1     -43.320  56.485 -54.269  1.00  0.00     0.183 HD
BRANCH  17  20
HETATM   20  C   UNL     1     -42.659  54.853 -56.120  1.00  0.00     0.196 C 
BRANCH  20  21
HETATM   21  N   UNL     1     -43.600  55.923 -56.493  1.00  0.00    -0.282 NA
HETATM   22  H   UNL     1     -43.645  56.600 -55.718  1.00  0.00     0.128 HD
BRANCH  21  23
HETATM   23  C   UNL     1     -43.101  56.675 -57.596  1.00  0.00     0.042 A 
HETATM   24  C   UNL     1     -42.783  58.041 -57.424  1.00  0.00     0.089 A 
HETATM   25  C   UNL     1     -42.257  58.769 -58.491  1.00  0.00     0.038 A 
HETATM   26  C   UNL     1     -42.037  58.145 -59.722  1.00  0.00     0.003 A 
HETATM   27  C   UNL     1     -42.341  56.793 -59.891  1.00  0.00     0.002 A 
HETATM   28  C   UNL     1     -42.868  56.057 -58.829  1.00  0.00     0.026 A 
BRANCH  24  29
HETATM   29  O   UNL     1     -43.034  58.534 -56.165  1.00  0.00    -0.354 OA
HETATM   30  C   UNL     1     -42.024  59.345 -55.579  1.00  0.00     0.210 C 
ENDBRANCH  24  29
ENDBRANCH  21  23
ENDBRANCH  20  21
ENDBRANCH  17  20
ENDBRANCH   1  16
TORSDOF 8
ENDMDL
MODEL 2
REMARK VINA RESULT:      -7.3      4.340      7.413
REMARK  8 active torsions:
REMARK  status: ('A' for Active; 'I' for Inactive)
REMARK    1  A    between atoms: C_2  and  N_3 
REMARK    2  A    between atoms: C_2  and  C_17 
REMARK    3  A    between atoms: N_3  and  N_4 
REMARK       I    between atoms: N_4  and  C_5 
REMARK    4  A    between atoms: C_5  and  C_6 
REMARK    5  A    between atoms: C_6  and  N_7 
REMARK    6  A    between atoms: N_7  and  C_8 
REMARK    7  A    between atoms: C_9  and  O_10 
REMARK       I    between atoms: C_17  and  N_18 
REMARK    8  A    between atoms: N_18  and  C_19 
ROOT
HETATM    1  N   UNL     1     -43.371  56.904 -52.673  1.00  0.00    -0.225 NA
HETATM    2  H   UNL     1     -44.044  56.218 -52.298  1.00  0.00     0.147 HD
ENDROOT
BRANCH   1   3
HETATM    3  C   UNL     1     -42.014  56.325 -52.427  1.00  0.00     0.165 C 
HETATM    4  C   UNL     1     -41.563  56.717 -51.023  1.00  0.00     0.038 C 
BRANCH   3   5
HETATM    5  C   UNL     1     -42.033  54.789 -52.542  1.00  0.00     0.241 C 
HETATM    6  N   UNL     1     -40.794  54.258 -52.859  1.00  0.00    -0.326 N 
HETATM    7  H   UNL     1     -40.059  54.958 -52.914  1.00  0.00     0.169 HD
HETATM    8  O   UNL     1     -43.077  54.158 -52.404  1.00  0.00    -0.271 OA
BRANCH   6   9
HETATM    9  C   UNL     1     -40.426  52.907 -52.963  1.00  0.00     0.036 A 
HETATM   10  C   UNL     1     -40.054  52.114 -51.874  1.00  0.00     0.053 A 
HETATM   11  C   UNL     1     -39.672  50.787 -52.076  1.00  0.00     0.036 A 
HETATM   12 CL   UNL     1     -39.205  49.818 -50.732  1.00  0.00    -0.084 Cl
HETATM   13  C   UNL     1     -39.656  50.237 -53.355  1.00  0.00     0.024 A 
HETATM   14  C   UNL     1     -40.033  51.018 -54.445  1.00  0.00     0.004 A 
HETATM   15  C   UNL     1     -40.418  52.347 -54.248  1.00  0.00     0.029 A 
ENDBRANCH   6   9
ENDBRANCH   3   5
ENDBRANCH   1   3
BRANCH   1  16
HETATM   16  N   UNL     1     -43.564  58.098 -51.916  1.00  0.00    -0.290 N 
HETATM   17  C   UNL     1     -44.672  58.197 -51.078  1.00  0.00     0.245 C 
HETATM   18  O   UNL     1     -45.469  57.275 -50.909  1.00  0.00    -0.271 OA
HETATM   19  H   UNL     1     -43.161  58.966 -52.264  1.00  0.00     0.183 HD
BRANCH  17  20
HETATM   20  C   UNL     1     -44.848  59.580 -50.447  1.00  0.00     0.196 C 
BRANCH  20  21
HETATM   21  N   UNL     1     -45.876  59.498 -49.396  1.00  0.00    -0.282 NA
HETATM   22  H   UNL     1     -45.749  58.611 -48.888  1.00  0.00     0.128 HD
BRANCH  21  23
HETATM   23  C   UNL     1     -45.673  60.507 -48.410  1.00  0.00     0.042 A 
HETATM   24  C   UNL     1     -46.036  60.255 -47.067  1.00  0.00     0.089 A 
HETATM   25  C   UNL     1     -45.803  61.226 -46.093  1.00  0.00     0.038 A 
HETATM   26  C   UNL     1     -45.204  62.439 -46.446  1.00  0.00     0.003 A 
HETATM   27  C   UNL     1     -44.837  62.686 -47.769  1.00  0.00     0.002 A 
HETATM   28  C   UNL     1     -45.067  61.720 -48.750  1.00  0.00     0.026 A 
BRANCH  24  29
HETATM   29  O   UNL     1     -46.604  59.023 -46.848  1.00  0.00    -0.354 OA
HETATM   30  C   UNL     1     -47.079  58.757 -45.534  1.00  0.00     0.210 C 
ENDBRANCH  24  29
ENDBRANCH  21  23
ENDBRANCH  20  21
ENDBRANCH  17  20
ENDBRANCH   1  16
TORSDOF 8
ENDMDL
MODEL 3
REMARK VINA RESULT:      -7.3      2.323      2.773
REMARK  8 active torsions:
REMARK  status: ('A' for Active; 'I' for Inactive)
REMARK    1  A    between atoms: C_2  and  N_3 
REMARK    2  A    between atoms: C_2  and  C_17 
REMARK    3  A    between atoms: N_3  and  N_4 
REMARK       I    between atoms: N_4  and  C_5 
REMARK    4  A    between atoms: C_5  and  C_6 
REMARK    5  A    between atoms: C_6  and  N_7 
REMARK    6  A    between atoms: N_7  and  C_8 
REMARK    7  A    between atoms: C_9  and  O_10 
REMARK       I    between atoms: C_17  and  N_18 
REMARK    8  A    between atoms: N_18  and  C_19 
ROOT
HETATM    1  N   UNL     1     -44.493  55.960 -54.361  1.00  0.00    -0.225 NA
HETATM    2  H   UNL     1     -45.344  56.452 -54.047  1.00  0.00     0.147 HD
ENDROOT
BRANCH   1   3
HETATM    3  C   UNL     1     -43.476  56.172 -53.284  1.00  0.00     0.165 C 
HETATM    4  C   UNL     1     -44.131  56.932 -52.135  1.00  0.00     0.038 C 
BRANCH   3   5
HETATM    5  C   UNL     1     -42.932  54.830 -52.758  1.00  0.00     0.241 C 
HETATM    6  N   UNL     1     -41.764  54.439 -53.391  1.00  0.00    -0.326 N 
HETATM    7  H   UNL     1     -41.423  55.122 -54.063  1.00  0.00     0.169 HD
HETATM    8  O   UNL     1     -43.538  54.195 -51.900  1.00  0.00    -0.271 OA
BRANCH   6   9
HETATM    9  C   UNL     1     -40.954  53.325 -53.115  1.00  0.00     0.036 A 
HETATM   10  C   UNL     1     -40.743  52.275 -54.012  1.00  0.00     0.053 A 
HETATM   11  C   UNL     1     -39.947  51.190 -53.640  1.00  0.00     0.036 A 
HETATM   12 CL   UNL     1     -39.698  49.893 -54.744  1.00  0.00    -0.084 Cl
HETATM   13  C   UNL     1     -39.354  51.140 -52.380  1.00  0.00     0.024 A 
HETATM   14  C   UNL     1     -39.554  52.188 -51.484  1.00  0.00     0.004 A 
HETATM   15  C   UNL     1     -40.349  53.276 -51.852  1.00  0.00     0.029 A 
ENDBRANCH   6   9
ENDBRANCH   3   5
ENDBRANCH   1   3
BRANCH   1  16
HETATM   16  N   UNL     1     -44.097  56.598 -55.573  1.00  0.00    -0.290 N 
HETATM   17  C   UNL     1     -43.224  55.936 -56.434  1.00  0.00     0.245 C 
HETATM   18  O   UNL     1     -42.821  54.792 -56.229  1.00  0.00    -0.271 OA
HETATM   19  H   UNL     1     -44.115  57.616 -55.617  1.00  0.00     0.183 HD
BRANCH  17  20
HETATM   20  C   UNL     1     -42.756  56.789 -57.615  1.00  0.00     0.196 C 
BRANCH  20  21
HETATM   21  N   UNL     1     -43.855  57.675 -58.030  1.00  0.00    -0.282 NA
HETATM   22  H   UNL     1     -43.453  58.471 -58.545  1.00  0.00     0.128 HD
BRANCH  21  23
HETATM   23  C   UNL     1     -44.700  57.026 -58.977  1.00  0.00     0.042 A 
HETATM   24  C   UNL     1     -46.088  57.293 -58.973  1.00  0.00     0.089 A 
HETATM   25  C   UNL     1     -46.911  56.689 -59.924  1.00  0.00     0.038 A 
HETATM   26  C   UNL     1     -46.361  55.833 -60.881  1.00  0.00     0.003 A 
HETATM   27  C   UNL     1     -44.989  55.576 -60.893  1.00  0.00     0.002 A 
HETATM   28  C   UNL     1     -44.158  56.175 -59.945  1.00  0.00     0.026 A 
BRANCH  24  29
HETATM   29  O   UNL     1     -46.504  58.160 -57.991  1.00  0.00    -0.354 OA
HETATM   30  C   UNL     1     -47.434  59.165 -58.370  1.00  0.00     0.210 C 
ENDBRANCH  24  29
ENDBRANCH  21  23
ENDBRANCH  20  21
ENDBRANCH  17  20
ENDBRANCH   1  16
TORSDOF 8
ENDMDL
MODEL 4
REMARK VINA RESULT:      -7.3      3.196      4.074
REMARK  8 active torsions:
REMARK  status: ('A' for Active; 'I' for Inactive)
REMARK    1  A    between atoms: C_2  and  N_3 
REMARK    2  A    between atoms: C_2  and  C_17 
REMARK    3  A    between atoms: N_3  and  N_4 
REMARK       I    between atoms: N_4  and  C_5 
REMARK    4  A    between atoms: C_5  and  C_6 
REMARK    5  A    between atoms: C_6  and  N_7 
REMARK    6  A    between atoms: N_7  and  C_8 
REMARK    7  A    between atoms: C_9  and  O_10 
REMARK       I    between atoms: C_17  and  N_18 
REMARK    8  A    between atoms: N_18  and  C_19 
ROOT
HETATM    1  N   UNL     1     -42.264  56.432 -57.472  1.00  0.00    -0.225 NA
HETATM    2  H   UNL     1     -41.498  55.769 -57.665  1.00  0.00     0.147 HD
ENDROOT
BRANCH   1   3
HETATM    3  C   UNL     1     -42.434  56.440 -55.985  1.00  0.00     0.165 C 
HETATM    4  C   UNL     1     -43.834  56.949 -55.656  1.00  0.00     0.038 C 
BRANCH   3   5
HETATM    5  C   UNL     1     -42.257  55.028 -55.395  1.00  0.00     0.241 C 
HETATM    6  N   UNL     1     -41.071  54.882 -54.696  1.00  0.00    -0.326 N 
HETATM    7  H   UNL     1     -40.531  55.742 -54.637  1.00  0.00     0.169 HD
HETATM    8  O   UNL     1     -43.092  54.150 -55.597  1.00  0.00    -0.271 OA
BRANCH   6   9
HETATM    9  C   UNL     1     -40.621  53.770 -53.965  1.00  0.00     0.036 A 
HETATM   10  C   UNL     1     -40.283  52.544 -54.542  1.00  0.00     0.053 A 
HETATM   11  C   UNL     1     -39.876  51.482 -53.733  1.00  0.00     0.036 A 
HETATM   12 CL   UNL     1     -39.471  49.969 -54.448  1.00  0.00    -0.084 Cl
HETATM   13  C   UNL     1     -39.798  51.628 -52.350  1.00  0.00     0.024 A 
HETATM   14  C   UNL     1     -40.126  52.851 -51.769  1.00  0.00     0.004 A 
HETATM   15  C   UNL     1     -40.533  53.917 -52.574  1.00  0.00     0.029 A 
ENDBRANCH   6   9
ENDBRANCH   3   5
ENDBRANCH   1   3
BRANCH   1  16
HETATM   16  N   UNL     1     -43.418  55.897 -58.117  1.00  0.00    -0.290 N 
HETATM   17  C   UNL     1     -43.420  55.765 -59.503  1.00  0.00     0.245 C 
HETATM   18  O   UNL     1     -42.444  56.034 -60.203  1.00  0.00    -0.271 OA
HETATM   19  H   UNL     1     -44.321  55.987 -57.654  1.00  0.00     0.183 HD
BRANCH  17  20
HETATM   20  C   UNL     1     -44.768  55.329 -60.081  1.00  0.00     0.196 C 
BRANCH  20  21
HETATM   21  N   UNL     1     -45.848  55.917 -59.271  1.00  0.00    -0.282 NA
HETATM   22  H   UNL     1     -45.421  56.513 -58.547  1.00  0.00     0.128 HD
BRANCH  21  23
HETATM   23  C   UNL     1     -46.637  56.812 -60.051  1.00  0.00     0.042 A 
HETATM   24  C   UNL     1     -46.620  58.195 -59.760  1.00  0.00     0.089 A 
HETATM   25  C   UNL     1     -47.360  59.077 -60.546  1.00  0.00     0.038 A 
HETATM   26  C   UNL     1     -48.108  58.593 -61.623  1.00  0.00     0.003 A 
HETATM   27  C   UNL     1     -48.118  57.229 -61.918  1.00  0.00     0.002 A 
HETATM   28  C   UNL     1     -47.381  56.339 -61.136  1.00  0.00     0.026 A 
BRANCH  24  29
HETATM   29  O   UNL     1     -45.838  58.545 -58.684  1.00  0.00    -0.354 OA
HETATM   30  C   UNL     1     -44.639  59.256 -58.963  1.00  0.00     0.210 C 
ENDBRANCH  24  29
ENDBRANCH  21  23
ENDBRANCH  20  21
ENDBRANCH  17  20
ENDBRANCH   1  16
TORSDOF 8
ENDMDL
MODEL 5
REMARK VINA RESULT:      -7.3      2.334      7.145
REMARK  8 active torsions:
REMARK  status: ('A' for Active; 'I' for Inactive)
REMARK    1  A    between atoms: C_2  and  N_3 
REMARK    2  A    between atoms: C_2  and  C_17 
REMARK    3  A    between atoms: N_3  and  N_4 
REMARK       I    between atoms: N_4  and  C_5 
REMARK    4  A    between atoms: C_5  and  C_6 
REMARK    5  A    between atoms: C_6  and  N_7 
REMARK    6  A    between atoms: N_7  and  C_8 
REMARK    7  A    between atoms: C_9  and  O_10 
REMARK       I    between atoms: C_17  and  N_18 
REMARK    8  A    between atoms: N_18  and  C_19 
ROOT
HETATM    1  N   UNL     1     -42.303  56.083 -50.882  1.00  0.00    -0.225 NA
HETATM    2  H   UNL     1     -42.874  56.094 -50.023  1.00  0.00     0.147 HD
ENDROOT
BRANCH   1   3
HETATM    3  C   UNL     1     -43.256  56.319 -52.012  1.00  0.00     0.165 C 
HETATM    4  C   UNL     1     -44.231  57.420 -51.607  1.00  0.00     0.038 C 
BRANCH   3   5
HETATM    5  C   UNL     1     -42.512  56.746 -53.291  1.00  0.00     0.241 C 
HETATM    6  N   UNL     1     -43.339  56.808 -54.400  1.00  0.00    -0.326 N 
HETATM    7  H   UNL     1     -44.314  56.613 -54.184  1.00  0.00     0.169 HD
HETATM    8  O   UNL     1     -41.301  56.953 -53.278  1.00  0.00    -0.271 OA
BRANCH   6   9
HETATM    9  C   UNL     1     -43.024  57.235 -55.700  1.00  0.00     0.036 A 
HETATM   10  C   UNL     1     -43.049  56.402 -56.821  1.00  0.00     0.053 A 
HETATM   11  C   UNL     1     -42.689  56.905 -58.071  1.00  0.00     0.036 A 
HETATM   12 CL   UNL     1     -42.711  55.872 -59.448  1.00  0.00    -0.084 Cl
HETATM   13  C   UNL     1     -42.304  58.236 -58.220  1.00  0.00     0.024 A 
HETATM   14  C   UNL     1     -42.284  59.074 -57.108  1.00  0.00     0.004 A 
HETATM   15  C   UNL     1     -42.646  58.575 -55.854  1.00  0.00     0.029 A 
ENDBRANCH   6   9
ENDBRANCH   3   5
ENDBRANCH   1   3
BRANCH   1  16
HETATM   16  N   UNL     1     -41.731  54.779 -50.957  1.00  0.00    -0.290 N 
HETATM   17  C   UNL     1     -41.257  54.178 -49.793  1.00  0.00     0.245 C 
HETATM   18  O   UNL     1     -41.361  54.696 -48.682  1.00  0.00    -0.271 OA
HETATM   19  H   UNL     1     -41.323  54.475 -51.840  1.00  0.00     0.183 HD
BRANCH  17  20
HETATM   20  C   UNL     1     -40.529  52.854 -50.033  1.00  0.00     0.196 C 
BRANCH  20  21
HETATM   21  N   UNL     1     -39.594  53.021 -51.159  1.00  0.00    -0.282 NA
HETATM   22  H   UNL     1     -38.635  52.888 -50.806  1.00  0.00     0.128 HD
BRANCH  21  23
HETATM   23  C   UNL     1     -39.768  51.983 -52.120  1.00  0.00     0.042 A 
HETATM   24  C   UNL     1     -40.185  52.307 -53.431  1.00  0.00     0.089 A 
HETATM   25  C   UNL     1     -40.318  51.298 -54.384  1.00  0.00     0.038 A 
HETATM   26  C   UNL     1     -40.030  49.973 -54.044  1.00  0.00     0.003 A 
HETATM   27  C   UNL     1     -39.609  49.653 -52.753  1.00  0.00     0.002 A 
HETATM   28  C   UNL     1     -39.474  50.656 -51.793  1.00  0.00     0.026 A 
BRANCH  24  29
HETATM   29  O   UNL     1     -40.426  53.644 -53.642  1.00  0.00    -0.354 OA
HETATM   30  C   UNL     1     -40.217  54.135 -54.960  1.00  0.00     0.210 C 
ENDBRANCH  24  29
ENDBRANCH  21  23
ENDBRANCH  20  21
ENDBRANCH  17  20
ENDBRANCH   1  16
TORSDOF 8
ENDMDL
MODEL 6
REMARK VINA RESULT:      -7.2      1.677      2.752
REMARK  8 active torsions:
REMARK  status: ('A' for Active; 'I' for Inactive)
REMARK    1  A    between atoms: C_2  and  N_3 
REMARK    2  A    between atoms: C_2  and  C_17 
REMARK    3  A    between atoms: N_3  and  N_4 
REMARK       I    between atoms: N_4  and  C_5 
REMARK    4  A    between atoms: C_5  and  C_6 
REMARK    5  A    between atoms: C_6  and  N_7 
REMARK    6  A    between atoms: N_7  and  C_8 
REMARK    7  A    between atoms: C_9  and  O_10 
REMARK       I    between atoms: C_17  and  N_18 
REMARK    8  A    between atoms: N_18  and  C_19 
ROOT
HETATM    1  N   UNL     1     -42.731  56.200 -50.638  1.00  0.00    -0.225 NA
HETATM    2  H   UNL     1     -42.644  57.022 -50.022  1.00  0.00     0.147 HD
ENDROOT
BRANCH   1   3
HETATM    3  C   UNL     1     -41.432  55.464 -50.527  1.00  0.00     0.165 C 
HETATM    4  C   UNL     1     -41.101  55.278 -49.050  1.00  0.00     0.038 C 
BRANCH   3   5
HETATM    5  C   UNL     1     -41.512  54.084 -51.207  1.00  0.00     0.241 C 
HETATM    6  N   UNL     1     -40.330  53.370 -51.114  1.00  0.00    -0.326 N 
HETATM    7  H   UNL     1     -39.615  53.845 -50.569  1.00  0.00     0.169 HD
HETATM    8  O   UNL     1     -42.530  53.728 -51.795  1.00  0.00    -0.271 OA
BRANCH   6   9
HETATM    9  C   UNL     1     -40.068  52.059 -51.542  1.00  0.00     0.036 A 
HETATM   10  C   UNL     1     -39.911  51.693 -52.881  1.00  0.00     0.053 A 
HETATM   11  C   UNL     1     -39.684  50.358 -53.218  1.00  0.00     0.036 A 
HETATM   12 CL   UNL     1     -39.502  49.911 -54.870  1.00  0.00    -0.084 Cl
HETATM   13  C   UNL     1     -39.610  49.377 -52.231  1.00  0.00     0.024 A 
HETATM   14  C   UNL     1     -39.758  49.735 -50.893  1.00  0.00     0.004 A 
HETATM   15  C   UNL     1     -39.983  51.071 -50.552  1.00  0.00     0.029 A 
ENDBRANCH   6   9
ENDBRANCH   3   5
ENDBRANCH   1   3
BRANCH   1  16
HETATM   16  N   UNL     1     -42.918  56.714 -51.956  1.00  0.00    -0.290 N 
HETATM   17  C   UNL     1     -42.645  58.058 -52.204  1.00  0.00     0.245 C 
HETATM   18  O   UNL     1     -42.189  58.817 -51.349  1.00  0.00    -0.271 OA
HETATM   19  H   UNL     1     -43.586  56.251 -52.570  1.00  0.00     0.183 HD
BRANCH  17  20
HETATM   20  C   UNL     1     -43.035  58.518 -53.610  1.00  0.00     0.196 C 
BRANCH  20  21
HETATM   21  N   UNL     1     -41.913  58.254 -54.526  1.00  0.00    -0.282 NA
HETATM   22  H   UNL     1     -41.228  57.661 -54.037  1.00  0.00     0.128 HD
BRANCH  21  23
HETATM   23  C   UNL     1     -42.340  57.468 -55.636  1.00  0.00     0.042 A 
HETATM   24  C   UNL     1     -42.181  56.064 -55.599  1.00  0.00     0.089 A 
HETATM   25  C   UNL     1     -42.634  55.288 -56.666  1.00  0.00     0.038 A 
HETATM   26  C   UNL     1     -43.250  55.899 -57.762  1.00  0.00     0.003 A 
HETATM   27  C   UNL     1     -43.416  57.284 -57.795  1.00  0.00     0.002 A 
HETATM   28  C   UNL     1     -42.966  58.068 -56.732  1.00  0.00     0.026 A 
BRANCH  24  29
HETATM   29  O   UNL     1     -41.572  55.584 -54.464  1.00  0.00    -0.354 OA
HETATM   30  C   UNL     1     -40.323  54.927 -54.631  1.00  0.00     0.210 C 
ENDBRANCH  24  29
ENDBRANCH  21  23
ENDBRANCH  20  21
ENDBRANCH  17  20
ENDBRANCH   1  16
TORSDOF 8
ENDMDL
MODEL 7
REMARK VINA RESULT:      -7.2      2.082      2.917
REMARK  8 active torsions:
REMARK  status: ('A' for Active; 'I' for Inactive)
REMARK    1  A    between atoms: C_2  and  N_3 
REMARK    2  A    between atoms: C_2  and  C_17 
REMARK    3  A    between atoms: N_3  and  N_4 
REMARK       I    between atoms: N_4  and  C_5 
REMARK    4  A    between atoms: C_5  and  C_6 
REMARK    5  A    between atoms: C_6  and  N_7 
REMARK    6  A    between atoms: N_7  and  C_8 
REMARK    7  A    between atoms: C_9  and  O_10 
REMARK       I    between atoms: C_17  and  N_18 
REMARK    8  A    between atoms: N_18  and  C_19 
ROOT
HETATM    1  N   UNL     1     -44.568  56.560 -53.464  1.00  0.00    -0.225 NA
HETATM    2  H   UNL     1     -44.749  57.429 -52.939  1.00  0.00     0.147 HD
ENDROOT
BRANCH   1   3
HETATM    3  C   UNL     1     -43.085  56.359 -53.425  1.00  0.00     0.165 C 
HETATM    4  C   UNL     1     -42.485  57.345 -52.428  1.00  0.00     0.038 C 
BRANCH   3   5
HETATM    5  C   UNL     1     -42.728  54.923 -52.995  1.00  0.00     0.241 C 
HETATM    6  N   UNL     1     -41.446  54.554 -53.369  1.00  0.00    -0.326 N 
HETATM    7  H   UNL     1     -40.928  55.303 -53.819  1.00  0.00     0.169 HD
HETATM    8  O   UNL     1     -43.550  54.211 -52.425  1.00  0.00    -0.271 OA
BRANCH   6   9
HETATM    9  C   UNL     1     -40.763  53.362 -53.076  1.00  0.00     0.036 A 
HETATM   10  C   UNL     1     -40.584  52.322 -53.990  1.00  0.00     0.053 A 
HETATM   11  C   UNL     1     -39.918  51.159 -53.602  1.00  0.00     0.036 A 
HETATM   12 CL   UNL     1     -39.710  49.874 -54.729  1.00  0.00    -0.084 Cl
HETATM   13  C   UNL     1     -39.424  51.020 -52.307  1.00  0.00     0.024 A 
HETATM   14  C   UNL     1     -39.591  52.056 -51.392  1.00  0.00     0.004 A 
HETATM   15  C   UNL     1     -40.256  53.223 -51.777  1.00  0.00     0.029 A 
ENDBRANCH   6   9
ENDBRANCH   3   5
ENDBRANCH   1   3
BRANCH   1  16
HETATM   16  N   UNL     1     -45.018  56.804 -54.795  1.00  0.00    -0.290 N 
HETATM   17  C   UNL     1     -45.290  58.112 -55.190  1.00  0.00     0.245 C 
HETATM   18  O   UNL     1     -45.103  59.084 -54.459  1.00  0.00    -0.271 OA
HETATM   19  H   UNL     1     -45.497  56.055 -55.293  1.00  0.00     0.183 HD
BRANCH  17  20
HETATM   20  C   UNL     1     -45.912  58.220 -56.583  1.00  0.00     0.196 C 
BRANCH  20  21
HETATM   21  N   UNL     1     -44.835  58.362 -57.577  1.00  0.00    -0.282 NA
HETATM   22  H   UNL     1     -43.933  58.236 -57.097  1.00  0.00     0.128 HD
BRANCH  21  23
HETATM   23  C   UNL     1     -44.883  57.304 -58.531  1.00  0.00     0.042 A 
HETATM   24  C   UNL     1     -43.947  56.249 -58.452  1.00  0.00     0.089 A 
HETATM   25  C   UNL     1     -44.016  55.192 -59.360  1.00  0.00     0.038 A 
HETATM   26  C   UNL     1     -45.015  55.176 -60.337  1.00  0.00     0.003 A 
HETATM   27  C   UNL     1     -45.947  56.212 -60.411  1.00  0.00     0.002 A 
HETATM   28  C   UNL     1     -45.884  57.273 -59.507  1.00  0.00     0.026 A 
BRANCH  24  29
HETATM   29  O   UNL     1     -43.023  56.375 -57.442  1.00  0.00    -0.354 OA
HETATM   30  C   UNL     1     -42.670  55.191 -56.740  1.00  0.00     0.210 C 
ENDBRANCH  24  29
ENDBRANCH  21  23
ENDBRANCH  20  21
ENDBRANCH  17  20
ENDBRANCH   1  16
TORSDOF 8
ENDMDL
MODEL 8
REMARK VINA RESULT:      -7.1      1.609      2.524
REMARK  8 active torsions:
REMARK  status: ('A' for Active; 'I' for Inactive)
REMARK    1  A    between atoms: C_2  and  N_3 
REMARK    2  A    between atoms: C_2  and  C_17 
REMARK    3  A    between atoms: N_3  and  N_4 
REMARK       I    between atoms: N_4  and  C_5 
REMARK    4  A    between atoms: C_5  and  C_6 
REMARK    5  A    between atoms: C_6  and  N_7 
REMARK    6  A    between atoms: N_7  and  C_8 
REMARK    7  A    between atoms: C_9  and  O_10 
REMARK       I    between atoms: C_17  and  N_18 
REMARK    8  A    between atoms: N_18  and  C_19 
ROOT
HETATM    1  N   UNL     1     -41.262  57.023 -52.957  1.00  0.00    -0.225 NA
HETATM    2  H   UNL     1     -40.579  56.345 -53.328  1.00  0.00     0.147 HD
ENDROOT
BRANCH   1   3
HETATM    3  C   UNL     1     -42.010  56.303 -51.879  1.00  0.00     0.165 C 
HETATM    4  C   UNL     1     -43.441  56.829 -51.841  1.00  0.00     0.038 C 
BRANCH   3   5
HETATM    5  C   UNL     1     -42.035  54.784 -52.136  1.00  0.00     0.241 C 
HETATM    6  N   UNL     1     -40.794  54.277 -52.485  1.00  0.00    -0.326 N 
HETATM    7  H   UNL     1     -40.055  54.975 -52.465  1.00  0.00     0.169 HD
HETATM    8  O   UNL     1     -43.084  54.150 -52.069  1.00  0.00    -0.271 OA
BRANCH   6   9
HETATM    9  C   UNL     1     -40.431  52.939 -52.708  1.00  0.00     0.036 A 
HETATM   10  C   UNL     1     -40.013  52.067 -51.700  1.00  0.00     0.053 A 
HETATM   11  C   UNL     1     -39.640  50.760 -52.020  1.00  0.00     0.036 A 
HETATM   12 CL   UNL     1     -39.115  49.692 -50.776  1.00  0.00    -0.084 Cl
HETATM   13  C   UNL     1     -39.680  50.310 -53.337  1.00  0.00     0.024 A 
HETATM   14  C   UNL     1     -40.104  51.172 -54.346  1.00  0.00     0.004 A 
HETATM   15  C   UNL     1     -40.480  52.480 -54.031  1.00  0.00     0.029 A 
ENDBRANCH   6   9
ENDBRANCH   3   5
ENDBRANCH   1   3
BRANCH   1  16
HETATM   16  N   UNL     1     -42.123  57.349 -54.047  1.00  0.00    -0.290 N 
HETATM   17  C   UNL     1     -42.011  56.633 -55.237  1.00  0.00     0.245 C 
HETATM   18  O   UNL     1     -41.240  55.684 -55.377  1.00  0.00    -0.271 OA
HETATM   19  H   UNL     1     -42.504  58.292 -54.103  1.00  0.00     0.183 HD
BRANCH  17  20
HETATM   20  C   UNL     1     -42.876  57.182 -56.373  1.00  0.00     0.196 C 
BRANCH  20  21
HETATM   21  N   UNL     1     -42.232  56.867 -57.659  1.00  0.00    -0.282 NA
HETATM   22  H   UNL     1     -42.854  56.238 -58.187  1.00  0.00     0.128 HD
BRANCH  21  23
HETATM   23  C   UNL     1     -42.128  58.033 -58.472  1.00  0.00     0.042 A 
HETATM   24  C   UNL     1     -42.328  57.931 -59.868  1.00  0.00     0.089 A 
HETATM   25  C   UNL     1     -42.266  59.077 -60.661  1.00  0.00     0.038 A 
HETATM   26  C   UNL     1     -42.015  60.320 -60.074  1.00  0.00     0.003 A 
HETATM   27  C   UNL     1     -41.827  60.424 -58.695  1.00  0.00     0.002 A 
HETATM   28  C   UNL     1     -41.887  59.283 -57.894  1.00  0.00     0.026 A 
BRANCH  24  29
HETATM   29  O   UNL     1     -42.577  56.658 -60.321  1.00  0.00    -0.354 OA
HETATM   30  C   UNL     1     -43.938  56.299 -60.520  1.00  0.00     0.210 C 
ENDBRANCH  24  29
ENDBRANCH  21  23
ENDBRANCH  20  21
ENDBRANCH  17  20
ENDBRANCH   1  16
TORSDOF 8
ENDMDL
MODEL 9
REMARK VINA RESULT:      -7.0      2.860      7.053
REMARK  8 active torsions:
REMARK  status: ('A' for Active; 'I' for Inactive)
REMARK    1  A    between atoms: C_2  and  N_3 
REMARK    2  A    between atoms: C_2  and  C_17 
REMARK    3  A    between atoms: N_3  and  N_4 
REMARK       I    between atoms: N_4  and  C_5 
REMARK    4  A    between atoms: C_5  and  C_6 
REMARK    5  A    between atoms: C_6  and  N_7 
REMARK    6  A    between atoms: N_7  and  C_8 
REMARK    7  A    between atoms: C_9  and  O_10 
REMARK       I    between atoms: C_17  and  N_18 
REMARK    8  A    between atoms: N_18  and  C_19 
ROOT
HETATM    1  N   UNL     1     -42.414  57.956 -50.551  1.00  0.00    -0.225 NA
HETATM    2  H   UNL     1     -43.340  58.281 -50.236  1.00  0.00     0.147 HD
ENDROOT
BRANCH   1   3
HETATM    3  C   UNL     1     -42.114  58.720 -51.803  1.00  0.00     0.165 C 
HETATM    4  C   UNL     1     -40.610  58.679 -52.052  1.00  0.00     0.038 C 
BRANCH   3   5
HETATM    5  C   UNL     1     -42.846  58.113 -53.015  1.00  0.00     0.241 C 
HETATM    6  N   UNL     1     -42.028  57.982 -54.125  1.00  0.00    -0.326 N 
HETATM    7  H   UNL     1     -41.065  58.256 -53.950  1.00  0.00     0.169 HD
HETATM    8  O   UNL     1     -44.041  57.838 -52.959  1.00  0.00    -0.271 OA
BRANCH   6   9
HETATM    9  C   UNL     1     -42.332  57.399 -55.366  1.00  0.00     0.036 A 
HETATM   10  C   UNL     1     -42.497  58.124 -56.548  1.00  0.00     0.053 A 
HETATM   11  C   UNL     1     -42.829  57.463 -57.732  1.00  0.00     0.036 A 
HETATM   12 CL   UNL     1     -43.043  58.363 -59.184  1.00  0.00    -0.084 Cl
HETATM   13  C   UNL     1     -42.999  56.081 -57.752  1.00  0.00     0.024 A 
HETATM   14  C   UNL     1     -42.828  55.350 -56.579  1.00  0.00     0.004 A 
HETATM   15  C   UNL     1     -42.493  56.007 -55.392  1.00  0.00     0.029 A 
ENDBRANCH   6   9
ENDBRANCH   3   5
ENDBRANCH   1   3
BRANCH   1  16
HETATM   16  N   UNL     1     -42.559  56.563 -50.823  1.00  0.00    -0.290 N 
HETATM   17  C   UNL     1     -41.857  55.644 -50.046  1.00  0.00     0.245 C 
HETATM   18  O   UNL     1     -41.157  55.973 -49.089  1.00  0.00    -0.271 OA
HETATM   19  H   UNL     1     -42.824  56.275 -51.763  1.00  0.00     0.183 HD
BRANCH  17  20
HETATM   20  C   UNL     1     -41.976  54.201 -50.539  1.00  0.00     0.196 C 
BRANCH  20  21
HETATM   21  N   UNL     1     -40.628  53.614 -50.627  1.00  0.00    -0.282 NA
HETATM   22  H   UNL     1     -40.584  52.806 -49.990  1.00  0.00     0.128 HD
BRANCH  21  23
HETATM   23  C   UNL     1     -40.399  53.062 -51.921  1.00  0.00     0.042 A 
HETATM   24  C   UNL     1     -39.882  51.753 -52.041  1.00  0.00     0.089 A 
HETATM   25  C   UNL     1     -39.694  51.196 -53.306  1.00  0.00     0.038 A 
HETATM   26  C   UNL     1     -40.026  51.929 -54.448  1.00  0.00     0.003 A 
HETATM   27  C   UNL     1     -40.546  53.219 -54.332  1.00  0.00     0.002 A 
HETATM   28  C   UNL     1     -40.737  53.784 -53.070  1.00  0.00     0.026 A 
BRANCH  24  29
HETATM   29  O   UNL     1     -39.607  51.133 -50.845  1.00  0.00    -0.354 OA
HETATM   30  C   UNL     1     -39.701  49.714 -50.818  1.00  0.00     0.210 C 
ENDBRANCH  24  29
ENDBRANCH  21  23
ENDBRANCH  20  21
ENDBRANCH  17  20
ENDBRANCH   1  16
TORSDOF 8
ENDMDL
MODEL 10
REMARK VINA RESULT:      -7.0      2.388      3.720
REMARK  8 active torsions:
REMARK  status: ('A' for Active; 'I' for Inactive)
REMARK    1  A    between atoms: C_2  and  N_3 
REMARK    2  A    between atoms: C_2  and  C_17 
REMARK    3  A    between atoms: N_3  and  N_4 
REMARK       I    between atoms: N_4  and  C_5 
REMARK    4  A    between atoms: C_5  and  C_6 
REMARK    5  A    between atoms: C_6  and  N_7 
REMARK    6  A    between atoms: N_7  and  C_8 
REMARK    7  A    between atoms: C_9  and  O_10 
REMARK       I    between atoms: C_17  and  N_18 
REMARK    8  A    between atoms: N_18  and  C_19 
ROOT
HETATM    1  N   UNL     1     -42.332  55.850 -57.120  1.00  0.00    -0.225 NA
HETATM    2  H   UNL     1     -43.300  55.528 -57.271  1.00  0.00     0.147 HD
ENDROOT
BRANCH   1   3
HETATM    3  C   UNL     1     -42.250  56.245 -55.679  1.00  0.00     0.165 C 
HETATM    4  C   UNL     1     -43.596  55.965 -55.019  1.00  0.00     0.038 C 
BRANCH   3   5
HETATM    5  C   UNL     1     -41.151  55.454 -54.945  1.00  0.00     0.241 C 
HETATM    6  N   UNL     1     -41.629  54.302 -54.344  1.00  0.00    -0.326 N 
HETATM    7  H   UNL     1     -42.615  54.133 -54.526  1.00  0.00     0.169 HD
HETATM    8  O   UNL     1     -39.998  55.875 -54.892  1.00  0.00    -0.271 OA
BRANCH   6   9
HETATM    9  C   UNL     1     -40.904  53.308 -53.666  1.00  0.00     0.036 A 
HETATM   10  C   UNL     1     -40.478  52.116 -54.256  1.00  0.00     0.053 A 
HETATM   11  C   UNL     1     -39.790  51.169 -53.496  1.00  0.00     0.036 A 
HETATM   12 CL   UNL     1     -39.277  49.696 -54.225  1.00  0.00    -0.084 Cl
HETATM   13  C   UNL     1     -39.518  51.397 -52.149  1.00  0.00     0.024 A 
HETATM   14  C   UNL     1     -39.933  52.588 -51.556  1.00  0.00     0.004 A 
HETATM   15  C   UNL     1     -40.620  53.539 -52.313  1.00  0.00     0.029 A 
ENDBRANCH   6   9
ENDBRANCH   3   5
ENDBRANCH   1   3
BRANCH   1  16
HETATM   16  N   UNL     1     -42.157  56.980 -57.973  1.00  0.00    -0.290 N 
HETATM   17  C   UNL     1     -42.326  56.825 -59.347  1.00  0.00     0.245 C 
HETATM   18  O   UNL     1     -42.680  55.766 -59.863  1.00  0.00    -0.271 OA
HETATM   19  H   UNL     1     -41.557  57.740 -57.658  1.00  0.00     0.183 HD
BRANCH  17  20
HETATM   20  C   UNL     1     -41.957  58.068 -60.159  1.00  0.00     0.196 C 
BRANCH  20  21
HETATM   21  N   UNL     1     -42.733  59.214 -59.656  1.00  0.00    -0.282 NA
HETATM   22  H   UNL     1     -42.960  59.042 -58.666  1.00  0.00     0.128 HD
BRANCH  21  23
HETATM   23  C   UNL     1     -41.939  60.397 -59.642  1.00  0.00     0.042 A 
HETATM   24  C   UNL     1     -41.299  60.795 -58.446  1.00  0.00     0.089 A 
HETATM   25  C   UNL     1     -40.489  61.931 -58.439  1.00  0.00     0.038 A 
HETATM   26  C   UNL     1     -40.305  62.664 -59.614  1.00  0.00     0.003 A 
HETATM   27  C   UNL     1     -40.928  62.268 -60.798  1.00  0.00     0.002 A 
HETATM   28  C   UNL     1     -41.740  61.133 -60.814  1.00  0.00     0.026 A 
BRANCH  24  29
HETATM   29  O   UNL     1     -41.550  59.985 -57.364  1.00  0.00    -0.354 OA
HETATM   30  C   UNL     1     -42.276  60.558 -56.285  1.00  0.00     0.210 C 
ENDBRANCH  24  29
ENDBRANCH  21  23
ENDBRANCH  20  21
ENDBRANCH  17  20
ENDBRANCH   1  16
TORSDOF 8
ENDMDL
