MODEL 1
REMARK VINA RESULT:      -9.7      0.000      0.000
REMARK  3 active torsions:
REMARK  status: ('A' for Active; 'I' for Inactive)
REMARK    1  A    between atoms: C_2  and  N_3 
REMARK    2  A    between atoms: C_6  and  C_7 
REMARK       I    between atoms: C_7  and  N_8 
REMARK    3  A    between atoms: N_8  and  C_9 
ROOT
HETATM    1  C   UNL     1     -43.666  58.069 -51.994  1.00  0.00     0.036 A 
HETATM    2  C   UNL     1     -43.260  59.402 -52.068  1.00  0.00     0.049 A 
HETATM    3  C   UNL     1     -44.012  60.437 -51.465  1.00  0.00     0.061 A 
HETATM    4  C   UNL     1     -45.200  60.125 -50.791  1.00  0.00     0.050 A 
HETATM    5  N   UNL     1     -46.038  61.026 -50.114  1.00  0.00    -0.324 N 
HETATM    6  C   UNL     1     -45.706  62.187 -49.472  1.00  0.00     0.245 C 
HETATM    7  O   UNL     1     -46.576  62.741 -48.796  1.00  0.00    -0.271 OA
HETATM    8  C   UNL     1     -44.241  62.609 -49.447  1.00  0.00     0.180 C 
HETATM    9  N   UNL     1     -43.726  62.801 -50.793  1.00  0.00    -0.334 N 
HETATM   10  C   UNL     1     -43.528  61.818 -51.733  1.00  0.00     0.256 C 
HETATM   11  O   UNL     1     -42.948  62.047 -52.793  1.00  0.00    -0.267 OA
HETATM   12  C   UNL     1     -44.044  63.971 -48.769  1.00  0.00     0.037 C 
HETATM   13  C   UNL     1     -42.869  64.575 -49.525  1.00  0.00     0.022 C 
HETATM   14  C   UNL     1     -43.122  64.112 -50.950  1.00  0.00     0.127 C 
HETATM   15  C   UNL     1     -45.637  58.792 -50.779  1.00  0.00     0.033 A 
HETATM   16  C   UNL     1     -44.869  57.774 -51.355  1.00  0.00     0.032 A 
HETATM   17  H   UNL     1     -46.979  60.729 -49.884  1.00  0.00     0.169 HD
ENDROOT
BRANCH   1  18
HETATM   18  N   UNL     1     -42.944  56.983 -52.533  1.00  0.00    -0.323 N 
HETATM   19  C   UNL     1     -41.674  56.559 -52.189  1.00  0.00     0.257 C 
HETATM   20  O   UNL     1     -40.964  57.034 -51.310  1.00  0.00    -0.267 OA
HETATM   21  H   UNL     1     -43.434  56.423 -53.218  1.00  0.00     0.169 HD
BRANCH  19  22
HETATM   22  C   UNL     1     -41.175  55.363 -52.921  1.00  0.00     0.044 A 
HETATM   23  C   UNL     1     -40.836  54.144 -52.278  1.00  0.00     0.008 A 
HETATM   24  C   UNL     1     -40.324  53.092 -53.060  1.00  0.00     0.045 A 
HETATM   25  C   UNL     1     -40.921  53.651 -50.943  1.00  0.00     0.032 A 
HETATM   26  N   UNL     1     -40.042  52.040 -52.203  1.00  0.00    -0.352 N 
HETATM   27  C   UNL     1     -40.185  53.215 -54.454  1.00  0.00     0.030 A 
HETATM   28  C   UNL     1     -40.408  52.377 -50.923  1.00  0.00     0.092 A 
HETATM   29  C   UNL     1     -40.562  54.409 -55.070  1.00  0.00     0.003 A 
HETATM   30  C   UNL     1     -41.047  55.470 -54.318  1.00  0.00     0.018 A 
BRANCH  26  31
HETATM   31  C   UNL     1     -39.469  50.735 -52.544  1.00  0.00     0.081 C 
HETATM   32  C   UNL     1     -40.076  50.126 -53.808  1.00  0.00     0.032 C 
HETATM   33  C   UNL     1     -39.492  49.765 -51.363  1.00  0.00     0.032 C 
ENDBRANCH  26  31
ENDBRANCH  19  22
ENDBRANCH   1  18
TORSDOF 3
ENDMDL
MODEL 2
REMARK VINA RESULT:      -9.2      5.532      9.639
REMARK  3 active torsions:
REMARK  status: ('A' for Active; 'I' for Inactive)
REMARK    1  A    between atoms: C_2  and  N_3 
REMARK    2  A    between atoms: C_6  and  C_7 
REMARK       I    between atoms: C_7  and  N_8 
REMARK    3  A    between atoms: N_8  and  C_9 
ROOT
HETATM    1  C   UNL     1     -42.810  55.493 -55.325  1.00  0.00     0.036 A 
HETATM    2  C   UNL     1     -41.961  54.454 -54.943  1.00  0.00     0.049 A 
HETATM    3  C   UNL     1     -41.349  54.431 -53.668  1.00  0.00     0.061 A 
HETATM    4  C   UNL     1     -41.583  55.481 -52.770  1.00  0.00     0.050 A 
HETATM    5  N   UNL     1     -41.083  55.590 -51.463  1.00  0.00    -0.324 N 
HETATM    6  C   UNL     1     -40.775  54.594 -50.578  1.00  0.00     0.245 C 
HETATM    7  O   UNL     1     -40.508  54.916 -49.418  1.00  0.00    -0.271 OA
HETATM    8  C   UNL     1     -40.991  53.147 -51.010  1.00  0.00     0.180 C 
HETATM    9  N   UNL     1     -40.195  52.825 -52.182  1.00  0.00    -0.334 N 
HETATM   10  C   UNL     1     -40.373  53.331 -53.448  1.00  0.00     0.256 C 
HETATM   11  O   UNL     1     -39.750  52.890 -54.412  1.00  0.00    -0.267 OA
HETATM   12  C   UNL     1     -40.518  52.150 -49.945  1.00  0.00     0.037 C 
HETATM   13  C   UNL     1     -40.022  50.967 -50.764  1.00  0.00     0.022 C 
HETATM   14  C   UNL     1     -39.377  51.644 -51.962  1.00  0.00     0.127 C 
HETATM   15  C   UNL     1     -42.384  56.556 -53.187  1.00  0.00     0.033 A 
HETATM   16  C   UNL     1     -43.006  56.552 -54.439  1.00  0.00     0.032 A 
HETATM   17  H   UNL     1     -41.116  56.496 -51.009  1.00  0.00     0.169 HD
ENDROOT
BRANCH   1  18
HETATM   18  N   UNL     1     -43.488  55.558 -56.561  1.00  0.00    -0.323 N 
HETATM   19  C   UNL     1     -43.241  56.417 -57.616  1.00  0.00     0.257 C 
HETATM   20  O   UNL     1     -42.346  57.252 -57.677  1.00  0.00    -0.267 OA
HETATM   21  H   UNL     1     -44.208  54.863 -56.707  1.00  0.00     0.169 HD
BRANCH  19  22
HETATM   22  C   UNL     1     -44.113  56.238 -58.808  1.00  0.00     0.044 A 
HETATM   23  C   UNL     1     -45.039  57.220 -59.247  1.00  0.00     0.008 A 
HETATM   24  C   UNL     1     -45.852  56.928 -60.358  1.00  0.00     0.045 A 
HETATM   25  C   UNL     1     -45.364  58.550 -58.849  1.00  0.00     0.032 A 
HETATM   26  N   UNL     1     -46.683  58.018 -60.560  1.00  0.00    -0.352 N 
HETATM   27  C   UNL     1     -45.733  55.712 -61.055  1.00  0.00     0.030 A 
HETATM   28  C   UNL     1     -46.384  59.002 -59.649  1.00  0.00     0.092 A 
HETATM   29  C   UNL     1     -44.787  54.778 -60.629  1.00  0.00     0.003 A 
HETATM   30  C   UNL     1     -43.989  55.033 -59.522  1.00  0.00     0.018 A 
BRANCH  26  31
HETATM   31  C   UNL     1     -47.722  58.177 -61.581  1.00  0.00     0.081 C 
HETATM   32  C   UNL     1     -48.610  59.400 -61.348  1.00  0.00     0.032 C 
HETATM   33  C   UNL     1     -48.535  56.899 -61.785  1.00  0.00     0.032 C 
ENDBRANCH  26  31
ENDBRANCH  19  22
ENDBRANCH   1  18
TORSDOF 3
ENDMDL
MODEL 3
REMARK VINA RESULT:      -9.1      4.187      6.062
REMARK  3 active torsions:
REMARK  status: ('A' for Active; 'I' for Inactive)
REMARK    1  A    between atoms: C_2  and  N_3 
REMARK    2  A    between atoms: C_6  and  C_7 
REMARK       I    between atoms: C_7  and  N_8 
REMARK    3  A    between atoms: N_8  and  C_9 
ROOT
HETATM    1  C   UNL     1     -41.603  58.043 -54.273  1.00  0.00     0.036 A 
HETATM    2  C   UNL     1     -41.989  57.888 -55.605  1.00  0.00     0.049 A 
HETATM    3  C   UNL     1     -42.348  58.998 -56.405  1.00  0.00     0.061 A 
HETATM    4  C   UNL     1     -42.333  60.284 -55.847  1.00  0.00     0.050 A 
HETATM    5  N   UNL     1     -42.625  61.485 -56.512  1.00  0.00    -0.324 N 
HETATM    6  C   UNL     1     -42.443  61.802 -57.829  1.00  0.00     0.245 C 
HETATM    7  O   UNL     1     -42.612  62.976 -58.169  1.00  0.00    -0.271 OA
HETATM    8  C   UNL     1     -41.834  60.751 -58.751  1.00  0.00     0.180 C 
HETATM    9  N   UNL     1     -42.655  59.553 -58.795  1.00  0.00    -0.334 N 
HETATM   10  C   UNL     1     -42.859  58.670 -57.763  1.00  0.00     0.256 C 
HETATM   11  O   UNL     1     -43.446  57.603 -57.932  1.00  0.00    -0.267 OA
HETATM   12  C   UNL     1     -41.776  61.225 -60.209  1.00  0.00     0.037 C 
HETATM   13  C   UNL     1     -41.978  59.944 -61.005  1.00  0.00     0.022 C 
HETATM   14  C   UNL     1     -42.992  59.189 -60.161  1.00  0.00     0.127 C 
HETATM   15  C   UNL     1     -42.008  60.424 -54.489  1.00  0.00     0.033 A 
HETATM   16  C   UNL     1     -41.628  59.322 -53.718  1.00  0.00     0.032 A 
HETATM   17  H   UNL     1     -42.821  62.309 -55.953  1.00  0.00     0.169 HD
ENDROOT
BRANCH   1  18
HETATM   18  N   UNL     1     -41.191  56.988 -53.433  1.00  0.00    -0.323 N 
HETATM   19  C   UNL     1     -41.964  56.263 -52.545  1.00  0.00     0.257 C 
HETATM   20  O   UNL     1     -43.170  56.386 -52.366  1.00  0.00    -0.267 OA
HETATM   21  H   UNL     1     -40.226  56.699 -53.527  1.00  0.00     0.169 HD
BRANCH  19  22
HETATM   22  C   UNL     1     -41.253  55.188 -51.800  1.00  0.00     0.044 A 
HETATM   23  C   UNL     1     -40.870  53.957 -52.392  1.00  0.00     0.008 A 
HETATM   24  C   UNL     1     -40.247  52.988 -51.583  1.00  0.00     0.045 A 
HETATM   25  C   UNL     1     -40.919  53.411 -53.708  1.00  0.00     0.032 A 
HETATM   26  N   UNL     1     -40.009  51.878 -52.377  1.00  0.00    -0.352 N 
HETATM   27  C   UNL     1     -39.966  53.235 -50.227  1.00  0.00     0.030 A 
HETATM   28  C   UNL     1     -40.411  52.137 -53.665  1.00  0.00     0.092 A 
HETATM   29  C   UNL     1     -40.316  54.469 -49.677  1.00  0.00     0.003 A 
HETATM   30  C   UNL     1     -40.952  55.432 -50.448  1.00  0.00     0.018 A 
BRANCH  26  31
HETATM   31  C   UNL     1     -39.402  50.604 -51.980  1.00  0.00     0.081 C 
HETATM   32  C   UNL     1     -39.485  49.535 -53.069  1.00  0.00     0.032 C 
HETATM   33  C   UNL     1     -39.928  50.106 -50.634  1.00  0.00     0.032 C 
ENDBRANCH  26  31
ENDBRANCH  19  22
ENDBRANCH   1  18
TORSDOF 3
ENDMDL
MODEL 4
REMARK VINA RESULT:      -9.1      2.698      9.994
REMARK  3 active torsions:
REMARK  status: ('A' for Active; 'I' for Inactive)
REMARK    1  A    between atoms: C_2  and  N_3 
REMARK    2  A    between atoms: C_6  and  C_7 
REMARK       I    between atoms: C_7  and  N_8 
REMARK    3  A    between atoms: N_8  and  C_9 
ROOT
HETATM    1  C   UNL     1     -44.092  58.667 -51.653  1.00  0.00     0.036 A 
HETATM    2  C   UNL     1     -43.429  57.488 -51.313  1.00  0.00     0.049 A 
HETATM    3  C   UNL     1     -43.405  56.375 -52.186  1.00  0.00     0.061 A 
HETATM    4  C   UNL     1     -44.074  56.448 -53.415  1.00  0.00     0.050 A 
HETATM    5  N   UNL     1     -44.117  55.452 -54.404  1.00  0.00    -0.324 N 
HETATM    6  C   UNL     1     -43.176  54.506 -54.708  1.00  0.00     0.245 C 
HETATM    7  O   UNL     1     -43.344  53.834 -55.728  1.00  0.00    -0.271 OA
HETATM    8  C   UNL     1     -41.880  54.488 -53.905  1.00  0.00     0.180 C 
HETATM    9  N   UNL     1     -42.141  54.271 -52.491  1.00  0.00    -0.334 N 
HETATM   10  C   UNL     1     -42.770  55.147 -51.639  1.00  0.00     0.256 C 
HETATM   11  O   UNL     1     -42.815  54.947 -50.427  1.00  0.00    -0.267 OA
HETATM   12  C   UNL     1     -40.970  53.320 -54.305  1.00  0.00     0.037 C 
HETATM   13  C   UNL     1     -40.271  52.954 -53.003  1.00  0.00     0.022 C 
HETATM   14  C   UNL     1     -41.371  53.154 -51.973  1.00  0.00     0.127 C 
HETATM   15  C   UNL     1     -44.795  57.613 -53.721  1.00  0.00     0.033 A 
HETATM   16  C   UNL     1     -44.787  58.715 -52.861  1.00  0.00     0.032 A 
HETATM   17  H   UNL     1     -44.825  55.519 -55.126  1.00  0.00     0.169 HD
ENDROOT
BRANCH   1  18
HETATM   18  N   UNL     1     -44.120  59.828 -50.852  1.00  0.00    -0.323 N 
HETATM   19  C   UNL     1     -45.150  60.273 -50.044  1.00  0.00     0.257 C 
HETATM   20  O   UNL     1     -46.216  59.701 -49.847  1.00  0.00    -0.267 OA
HETATM   21  H   UNL     1     -43.267  60.372 -50.833  1.00  0.00     0.169 HD
BRANCH  19  22
HETATM   22  C   UNL     1     -44.883  61.532 -49.296  1.00  0.00     0.044 A 
HETATM   23  C   UNL     1     -45.089  61.663 -47.898  1.00  0.00     0.008 A 
HETATM   24  C   UNL     1     -44.854  62.915 -47.299  1.00  0.00     0.045 A 
HETATM   25  C   UNL     1     -45.466  60.778 -46.847  1.00  0.00     0.032 A 
HETATM   26  N   UNL     1     -45.158  62.792 -45.953  1.00  0.00    -0.352 N 
HETATM   27  C   UNL     1     -44.385  64.009 -48.048  1.00  0.00     0.030 A 
HETATM   28  C   UNL     1     -45.523  61.497 -45.679  1.00  0.00     0.092 A 
HETATM   29  C   UNL     1     -44.151  63.846 -49.413  1.00  0.00     0.003 A 
HETATM   30  C   UNL     1     -44.398  62.628 -50.032  1.00  0.00     0.018 A 
BRANCH  26  31
HETATM   31  C   UNL     1     -45.096  63.831 -44.921  1.00  0.00     0.081 C 
HETATM   32  C   UNL     1     -44.390  63.367 -43.646  1.00  0.00     0.032 C 
HETATM   33  C   UNL     1     -46.464  64.449 -44.637  1.00  0.00     0.032 C 
ENDBRANCH  26  31
ENDBRANCH  19  22
ENDBRANCH   1  18
TORSDOF 3
ENDMDL
MODEL 5
REMARK VINA RESULT:      -9.1      4.699      6.322
REMARK  3 active torsions:
REMARK  status: ('A' for Active; 'I' for Inactive)
REMARK    1  A    between atoms: C_2  and  N_3 
REMARK    2  A    between atoms: C_6  and  C_7 
REMARK       I    between atoms: C_7  and  N_8 
REMARK    3  A    between atoms: N_8  and  C_9 
ROOT
HETATM    1  C   UNL     1     -43.300  56.579 -54.902  1.00  0.00     0.036 A 
HETATM    2  C   UNL     1     -42.895  56.694 -56.232  1.00  0.00     0.049 A 
HETATM    3  C   UNL     1     -43.598  57.507 -57.151  1.00  0.00     0.061 A 
HETATM    4  C   UNL     1     -44.737  58.203 -56.726  1.00  0.00     0.050 A 
HETATM    5  N   UNL     1     -45.521  59.074 -57.499  1.00  0.00    -0.324 N 
HETATM    6  C   UNL     1     -45.140  59.871 -58.544  1.00  0.00     0.245 C 
HETATM    7  O   UNL     1     -45.958  60.687 -58.975  1.00  0.00    -0.271 OA
HETATM    8  C   UNL     1     -43.675  59.861 -58.966  1.00  0.00     0.180 C 
HETATM    9  N   UNL     1     -43.255  58.531 -59.376  1.00  0.00    -0.334 N 
HETATM   10  C   UNL     1     -43.127  57.433 -58.560  1.00  0.00     0.256 C 
HETATM   11  O   UNL     1     -42.622  56.386 -58.961  1.00  0.00    -0.267 OA
HETATM   12  C   UNL     1     -43.425  60.735 -60.202  1.00  0.00     0.037 C 
HETATM   13  C   UNL     1     -42.302  60.007 -60.929  1.00  0.00     0.022 C 
HETATM   14  C   UNL     1     -42.657  58.547 -60.700  1.00  0.00     0.127 C 
HETATM   15  C   UNL     1     -45.177  58.030 -55.405  1.00  0.00     0.033 A 
HETATM   16  C   UNL     1     -44.457  57.245 -54.499  1.00  0.00     0.032 A 
HETATM   17  H   UNL     1     -46.446  59.318 -57.162  1.00  0.00     0.169 HD
ENDROOT
BRANCH   1  18
HETATM   18  N   UNL     1     -42.623  55.823 -53.922  1.00  0.00    -0.323 N 
HETATM   19  C   UNL     1     -41.549  56.215 -53.145  1.00  0.00     0.257 C 
HETATM   20  O   UNL     1     -41.021  57.322 -53.142  1.00  0.00    -0.267 OA
HETATM   21  H   UNL     1     -42.998  54.902 -53.736  1.00  0.00     0.169 HD
BRANCH  19  22
HETATM   22  C   UNL     1     -41.051  55.201 -52.175  1.00  0.00     0.044 A 
HETATM   23  C   UNL     1     -40.636  53.899 -52.557  1.00  0.00     0.008 A 
HETATM   24  C   UNL     1     -40.231  53.002 -51.552  1.00  0.00     0.045 A 
HETATM   25  C   UNL     1     -40.471  53.217 -53.798  1.00  0.00     0.032 A 
HETATM   26  N   UNL     1     -39.913  51.804 -52.172  1.00  0.00    -0.352 N 
HETATM   27  C   UNL     1     -40.193  53.384 -50.199  1.00  0.00     0.030 A 
HETATM   28  C   UNL     1     -40.054  51.936 -53.532  1.00  0.00     0.092 A 
HETATM   29  C   UNL     1     -40.567  54.682 -49.852  1.00  0.00     0.003 A 
HETATM   30  C   UNL     1     -40.993  55.579 -50.822  1.00  0.00     0.018 A 
BRANCH  26  31
HETATM   31  C   UNL     1     -39.464  50.559 -51.542  1.00  0.00     0.081 C 
HETATM   32  C   UNL     1     -39.476  49.365 -52.497  1.00  0.00     0.032 C 
HETATM   33  C   UNL     1     -40.207  50.268 -50.239  1.00  0.00     0.032 C 
ENDBRANCH  26  31
ENDBRANCH  19  22
ENDBRANCH   1  18
TORSDOF 3
ENDMDL
MODEL 6
REMARK VINA RESULT:      -8.8      1.802      2.561
REMARK  3 active torsions:
REMARK  status: ('A' for Active; 'I' for Inactive)
REMARK    1  A    between atoms: C_2  and  N_3 
REMARK    2  A    between atoms: C_6  and  C_7 
REMARK       I    between atoms: C_7  and  N_8 
REMARK    3  A    between atoms: N_8  and  C_9 
ROOT
HETATM    1  C   UNL     1     -43.390  58.454 -51.946  1.00  0.00     0.036 A 
HETATM    2  C   UNL     1     -43.411  59.624 -51.185  1.00  0.00     0.049 A 
HETATM    3  C   UNL     1     -44.330  60.665 -51.457  1.00  0.00     0.061 A 
HETATM    4  C   UNL     1     -45.231  60.530 -52.521  1.00  0.00     0.050 A 
HETATM    5  N   UNL     1     -46.223  61.450 -52.897  1.00  0.00    -0.324 N 
HETATM    6  C   UNL     1     -46.921  62.325 -52.112  1.00  0.00     0.245 C 
HETATM    7  O   UNL     1     -47.870  62.926 -52.622  1.00  0.00    -0.271 OA
HETATM    8  C   UNL     1     -46.634  62.345 -50.615  1.00  0.00     0.180 C 
HETATM    9  N   UNL     1     -45.245  62.679 -50.351  1.00  0.00    -0.334 N 
HETATM   10  C   UNL     1     -44.152  61.901 -50.648  1.00  0.00     0.256 C 
HETATM   11  O   UNL     1     -43.025  62.193 -50.254  1.00  0.00    -0.267 OA
HETATM   12  C   UNL     1     -47.431  63.436 -49.888  1.00  0.00     0.037 C 
HETATM   13  C   UNL     1     -46.498  63.866 -48.765  1.00  0.00     0.022 C 
HETATM   14  C   UNL     1     -45.133  63.796 -49.428  1.00  0.00     0.127 C 
HETATM   15  C   UNL     1     -45.158  59.381 -53.323  1.00  0.00     0.033 A 
HETATM   16  C   UNL     1     -44.265  58.347 -53.026  1.00  0.00     0.032 A 
HETATM   17  H   UNL     1     -46.638  61.361 -53.818  1.00  0.00     0.169 HD
ENDROOT
BRANCH   1  18
HETATM   18  N   UNL     1     -42.533  57.359 -51.704  1.00  0.00    -0.323 N 
HETATM   19  C   UNL     1     -42.835  56.176 -51.057  1.00  0.00     0.257 C 
HETATM   20  O   UNL     1     -43.931  55.851 -50.614  1.00  0.00    -0.267 OA
HETATM   21  H   UNL     1     -41.602  57.433 -52.093  1.00  0.00     0.169 HD
BRANCH  19  22
HETATM   22  C   UNL     1     -41.725  55.189 -50.967  1.00  0.00     0.044 A 
HETATM   23  C   UNL     1     -41.472  54.212 -51.964  1.00  0.00     0.008 A 
HETATM   24  C   UNL     1     -40.426  53.294 -51.755  1.00  0.00     0.045 A 
HETATM   25  C   UNL     1     -42.020  53.914 -53.246  1.00  0.00     0.032 A 
HETATM   26  N   UNL     1     -40.408  52.433 -52.841  1.00  0.00    -0.352 N 
HETATM   27  C   UNL     1     -39.613  53.357 -50.609  1.00  0.00     0.030 A 
HETATM   28  C   UNL     1     -41.370  52.812 -53.746  1.00  0.00     0.092 A 
HETATM   29  C   UNL     1     -39.855  54.352 -49.661  1.00  0.00     0.003 A 
HETATM   30  C   UNL     1     -40.896  55.255 -49.833  1.00  0.00     0.018 A 
BRANCH  26  31
HETATM   31  C   UNL     1     -39.515  51.294 -53.068  1.00  0.00     0.081 C 
HETATM   32  C   UNL     1     -39.784  50.576 -54.391  1.00  0.00     0.032 C 
HETATM   33  C   UNL     1     -39.486  50.333 -51.880  1.00  0.00     0.032 C 
ENDBRANCH  26  31
ENDBRANCH  19  22
ENDBRANCH   1  18
TORSDOF 3
ENDMDL
MODEL 7
REMARK VINA RESULT:      -8.7      4.929      6.281
REMARK  3 active torsions:
REMARK  status: ('A' for Active; 'I' for Inactive)
REMARK    1  A    between atoms: C_2  and  N_3 
REMARK    2  A    between atoms: C_6  and  C_7 
REMARK       I    between atoms: C_7  and  N_8 
REMARK    3  A    between atoms: N_8  and  C_9 
ROOT
HETATM    1  C   UNL     1     -42.994  56.167 -55.870  1.00  0.00     0.036 A 
HETATM    2  C   UNL     1     -43.653  57.396 -55.813  1.00  0.00     0.049 A 
HETATM    3  C   UNL     1     -44.264  57.960 -56.957  1.00  0.00     0.061 A 
HETATM    4  C   UNL     1     -44.195  57.283 -58.182  1.00  0.00     0.050 A 
HETATM    5  N   UNL     1     -44.776  57.688 -59.394  1.00  0.00    -0.324 N 
HETATM    6  C   UNL     1     -45.915  58.418 -59.597  1.00  0.00     0.245 C 
HETATM    7  O   UNL     1     -46.337  58.518 -60.751  1.00  0.00    -0.271 OA
HETATM    8  C   UNL     1     -46.710  58.874 -58.379  1.00  0.00     0.180 C 
HETATM    9  N   UNL     1     -45.907  59.723 -57.515  1.00  0.00    -0.334 N 
HETATM   10  C   UNL     1     -44.817  59.329 -56.776  1.00  0.00     0.256 C 
HETATM   11  O   UNL     1     -44.289  60.078 -55.956  1.00  0.00    -0.267 OA
HETATM   12  C   UNL     1     -47.907  59.752 -58.767  1.00  0.00     0.037 C 
HETATM   13  C   UNL     1     -48.025  60.723 -57.600  1.00  0.00     0.022 C 
HETATM   14  C   UNL     1     -46.571  60.986 -57.244  1.00  0.00     0.127 C 
HETATM   15  C   UNL     1     -43.473  56.081 -58.246  1.00  0.00     0.033 A 
HETATM   16  C   UNL     1     -42.898  55.521 -57.102  1.00  0.00     0.032 A 
HETATM   17  H   UNL     1     -44.453  57.254 -60.252  1.00  0.00     0.169 HD
ENDROOT
BRANCH   1  18
HETATM   18  N   UNL     1     -42.401  55.525 -54.762  1.00  0.00    -0.323 N 
HETATM   19  C   UNL     1     -41.479  56.050 -53.876  1.00  0.00     0.257 C 
HETATM   20  O   UNL     1     -41.045  57.196 -53.874  1.00  0.00    -0.267 OA
HETATM   21  H   UNL     1     -42.727  54.587 -54.569  1.00  0.00     0.169 HD
BRANCH  19  22
HETATM   22  C   UNL     1     -41.044  55.136 -52.785  1.00  0.00     0.044 A 
HETATM   23  C   UNL     1     -40.588  53.812 -53.015  1.00  0.00     0.008 A 
HETATM   24  C   UNL     1     -40.249  53.015 -51.906  1.00  0.00     0.045 A 
HETATM   25  C   UNL     1     -40.327  53.023 -54.174  1.00  0.00     0.032 A 
HETATM   26  N   UNL     1     -39.875  51.772 -52.390  1.00  0.00    -0.352 N 
HETATM   27  C   UNL     1     -40.313  53.519 -50.595  1.00  0.00     0.030 A 
HETATM   28  C   UNL     1     -39.918  51.779 -53.763  1.00  0.00     0.092 A 
HETATM   29  C   UNL     1     -40.725  54.837 -50.395  1.00  0.00     0.003 A 
HETATM   30  C   UNL     1     -41.088  55.635 -51.471  1.00  0.00     0.018 A 
BRANCH  26  31
HETATM   31  C   UNL     1     -39.461  50.597 -51.618  1.00  0.00     0.081 C 
HETATM   32  C   UNL     1     -39.493  49.303 -52.433  1.00  0.00     0.032 C 
HETATM   33  C   UNL     1     -40.221  50.471 -50.299  1.00  0.00     0.032 C 
ENDBRANCH  26  31
ENDBRANCH  19  22
ENDBRANCH   1  18
TORSDOF 3
ENDMDL
MODEL 8
REMARK VINA RESULT:      -8.7      5.443      6.546
REMARK  3 active torsions:
REMARK  status: ('A' for Active; 'I' for Inactive)
REMARK    1  A    between atoms: C_2  and  N_3 
REMARK    2  A    between atoms: C_6  and  C_7 
REMARK       I    between atoms: C_7  and  N_8 
REMARK    3  A    between atoms: N_8  and  C_9 
ROOT
HETATM    1  C   UNL     1     -42.429  56.276 -57.053  1.00  0.00     0.036 A 
HETATM    2  C   UNL     1     -42.272  57.662 -57.071  1.00  0.00     0.049 A 
HETATM    3  C   UNL     1     -42.893  58.463 -58.058  1.00  0.00     0.061 A 
HETATM    4  C   UNL     1     -43.671  57.855 -59.051  1.00  0.00     0.050 A 
HETATM    5  N   UNL     1     -44.379  58.507 -60.074  1.00  0.00    -0.324 N 
HETATM    6  C   UNL     1     -44.947  59.751 -60.065  1.00  0.00     0.245 C 
HETATM    7  O   UNL     1     -45.669  60.062 -61.015  1.00  0.00    -0.271 OA
HETATM    8  C   UNL     1     -44.838  60.588 -58.795  1.00  0.00     0.180 C 
HETATM    9  N   UNL     1     -43.449  60.841 -58.450  1.00  0.00    -0.334 N 
HETATM   10  C   UNL     1     -42.534  59.907 -58.028  1.00  0.00     0.256 C 
HETATM   11  O   UNL     1     -41.423  60.232 -57.614  1.00  0.00    -0.267 OA
HETATM   12  C   UNL     1     -45.445  61.986 -58.972  1.00  0.00     0.037 C 
HETATM   13  C   UNL     1     -44.575  62.864 -58.083  1.00  0.00     0.022 C 
HETATM   14  C   UNL     1     -43.194  62.261 -58.278  1.00  0.00     0.127 C 
HETATM   15  C   UNL     1     -43.770  56.455 -59.066  1.00  0.00     0.033 A 
HETATM   16  C   UNL     1     -43.174  55.678 -58.069  1.00  0.00     0.032 A 
HETATM   17  H   UNL     1     -44.694  57.958 -60.867  1.00  0.00     0.169 HD
ENDROOT
BRANCH   1  18
HETATM   18  N   UNL     1     -41.877  55.421 -56.076  1.00  0.00    -0.323 N 
HETATM   19  C   UNL     1     -42.546  54.724 -55.088  1.00  0.00     0.257 C 
HETATM   20  O   UNL     1     -43.759  54.692 -54.917  1.00  0.00    -0.267 OA
HETATM   21  H   UNL     1     -40.879  55.267 -56.137  1.00  0.00     0.169 HD
BRANCH  19  22
HETATM   22  C   UNL     1     -41.693  53.881 -54.205  1.00  0.00     0.044 A 
HETATM   23  C   UNL     1     -41.720  53.964 -52.789  1.00  0.00     0.008 A 
HETATM   24  C   UNL     1     -40.835  53.156 -52.051  1.00  0.00     0.045 A 
HETATM   25  C   UNL     1     -42.499  54.684 -51.836  1.00  0.00     0.032 A 
HETATM   26  N   UNL     1     -41.030  53.447 -50.711  1.00  0.00    -0.352 N 
HETATM   27  C   UNL     1     -39.967  52.250 -52.686  1.00  0.00     0.030 A 
HETATM   28  C   UNL     1     -42.042  54.368 -50.581  1.00  0.00     0.092 A 
HETATM   29  C   UNL     1     -39.987  52.156 -54.078  1.00  0.00     0.003 A 
HETATM   30  C   UNL     1     -40.834  52.959 -54.830  1.00  0.00     0.018 A 
BRANCH  26  31
HETATM   31  C   UNL     1     -40.325  52.880 -49.558  1.00  0.00     0.081 C 
HETATM   32  C   UNL     1     -40.587  51.385 -49.372  1.00  0.00     0.032 C 
HETATM   33  C   UNL     1     -40.571  53.677 -48.278  1.00  0.00     0.032 C 
ENDBRANCH  26  31
ENDBRANCH  19  22
ENDBRANCH   1  18
TORSDOF 3
ENDMDL
MODEL 9
REMARK VINA RESULT:      -8.6      1.622      2.334
REMARK  3 active torsions:
REMARK  status: ('A' for Active; 'I' for Inactive)
REMARK    1  A    between atoms: C_2  and  N_3 
REMARK    2  A    between atoms: C_6  and  C_7 
REMARK       I    between atoms: C_7  and  N_8 
REMARK    3  A    between atoms: N_8  and  C_9 
ROOT
HETATM    1  C   UNL     1     -42.440  58.727 -51.720  1.00  0.00     0.036 A 
HETATM    2  C   UNL     1     -43.762  59.173 -51.766  1.00  0.00     0.049 A 
HETATM    3  C   UNL     1     -44.152  60.392 -51.164  1.00  0.00     0.061 A 
HETATM    4  C   UNL     1     -43.197  61.166 -50.491  1.00  0.00     0.050 A 
HETATM    5  N   UNL     1     -43.413  62.410 -49.876  1.00  0.00    -0.324 N 
HETATM    6  C   UNL     1     -44.309  63.387 -50.210  1.00  0.00     0.245 C 
HETATM    7  O   UNL     1     -44.215  64.475 -49.638  1.00  0.00    -0.271 OA
HETATM    8  C   UNL     1     -45.219  63.156 -51.412  1.00  0.00     0.180 C 
HETATM    9  N   UNL     1     -46.049  61.978 -51.224  1.00  0.00    -0.334 N 
HETATM   10  C   UNL     1     -45.612  60.676 -51.183  1.00  0.00     0.256 C 
HETATM   11  O   UNL     1     -46.398  59.731 -51.171  1.00  0.00    -0.267 OA
HETATM   12  C   UNL     1     -46.223  64.300 -51.604  1.00  0.00     0.037 C 
HETATM   13  C   UNL     1     -47.451  63.601 -52.169  1.00  0.00     0.022 C 
HETATM   14  C   UNL     1     -47.457  62.284 -51.411  1.00  0.00     0.127 C 
HETATM   15  C   UNL     1     -41.885  60.679 -50.392  1.00  0.00     0.033 A 
HETATM   16  C   UNL     1     -41.507  59.486 -51.015  1.00  0.00     0.032 A 
HETATM   17  H   UNL     1     -42.719  62.748 -49.218  1.00  0.00     0.169 HD
ENDROOT
BRANCH   1  18
HETATM   18  N   UNL     1     -41.974  57.546 -52.334  1.00  0.00    -0.323 N 
HETATM   19  C   UNL     1     -41.695  56.334 -51.732  1.00  0.00     0.257 C 
HETATM   20  O   UNL     1     -41.852  56.059 -50.548  1.00  0.00    -0.267 OA
HETATM   21  H   UNL     1     -41.877  57.580 -53.341  1.00  0.00     0.169 HD
BRANCH  19  22
HETATM   22  C   UNL     1     -41.231  55.253 -52.645  1.00  0.00     0.044 A 
HETATM   23  C   UNL     1     -40.843  53.966 -52.190  1.00  0.00     0.008 A 
HETATM   24  C   UNL     1     -40.371  53.034 -53.134  1.00  0.00     0.045 A 
HETATM   25  C   UNL     1     -40.841  53.299 -50.930  1.00  0.00     0.032 A 
HETATM   26  N   UNL     1     -40.028  51.884 -52.442  1.00  0.00    -0.352 N 
HETATM   27  C   UNL     1     -40.319  53.342 -54.505  1.00  0.00     0.030 A 
HETATM   28  C   UNL     1     -40.317  52.043 -51.109  1.00  0.00     0.092 A 
HETATM   29  C   UNL     1     -40.744  54.600 -54.934  1.00  0.00     0.003 A 
HETATM   30  C   UNL     1     -41.191  55.545 -54.020  1.00  0.00     0.018 A 
BRANCH  26  31
HETATM   31  C   UNL     1     -39.465  50.645 -52.986  1.00  0.00     0.081 C 
HETATM   32  C   UNL     1     -40.077  50.249 -54.331  1.00  0.00     0.032 C 
HETATM   33  C   UNL     1     -39.496  49.500 -51.974  1.00  0.00     0.032 C 
ENDBRANCH  26  31
ENDBRANCH  19  22
ENDBRANCH   1  18
TORSDOF 3
ENDMDL
MODEL 10
REMARK VINA RESULT:      -8.4      5.165      6.654
REMARK  3 active torsions:
REMARK  status: ('A' for Active; 'I' for Inactive)
REMARK    1  A    between atoms: C_2  and  N_3 
REMARK    2  A    between atoms: C_6  and  C_7 
REMARK       I    between atoms: C_7  and  N_8 
REMARK    3  A    between atoms: N_8  and  C_9 
ROOT
HETATM    1  C   UNL     1     -42.573  57.195 -56.109  1.00  0.00     0.036 A 
HETATM    2  C   UNL     1     -42.209  57.532 -57.413  1.00  0.00     0.049 A 
HETATM    3  C   UNL     1     -42.810  58.620 -58.090  1.00  0.00     0.061 A 
HETATM    4  C   UNL     1     -43.804  59.369 -57.447  1.00  0.00     0.050 A 
HETATM    5  N   UNL     1     -44.468  60.493 -57.963  1.00  0.00    -0.324 N 
HETATM    6  C   UNL     1     -44.007  61.430 -58.846  1.00  0.00     0.245 C 
HETATM    7  O   UNL     1     -44.700  62.432 -59.037  1.00  0.00    -0.271 OA
HETATM    8  C   UNL     1     -42.581  61.294 -59.369  1.00  0.00     0.180 C 
HETATM    9  N   UNL     1     -42.398  60.037 -60.075  1.00  0.00    -0.334 N 
HETATM   10  C   UNL     1     -42.415  58.782 -59.515  1.00  0.00     0.256 C 
HETATM   11  O   UNL     1     -42.102  57.783 -60.160  1.00  0.00    -0.267 OA
HETATM   12  C   UNL     1     -42.244  62.367 -60.413  1.00  0.00     0.037 C 
HETATM   13  C   UNL     1     -41.285  61.654 -61.355  1.00  0.00     0.022 C 
HETATM   14  C   UNL     1     -41.860  60.248 -61.408  1.00  0.00     0.127 C 
HETATM   15  C   UNL     1     -44.211  58.982 -56.161  1.00  0.00     0.033 A 
HETATM   16  C   UNL     1     -43.590  57.923 -55.493  1.00  0.00     0.032 A 
HETATM   17  H   UNL     1     -45.327  60.793 -57.515  1.00  0.00     0.169 HD
ENDROOT
BRANCH   1  18
HETATM   18  N   UNL     1     -41.987  56.153 -55.360  1.00  0.00    -0.323 N 
HETATM   19  C   UNL     1     -42.357  54.822 -55.329  1.00  0.00     0.257 C 
HETATM   20  O   UNL     1     -43.246  54.301 -55.994  1.00  0.00    -0.267 OA
HETATM   21  H   UNL     1     -41.170  56.404 -54.818  1.00  0.00     0.169 HD
BRANCH  19  22
HETATM   22  C   UNL     1     -41.535  53.945 -54.452  1.00  0.00     0.044 A 
HETATM   23  C   UNL     1     -41.597  53.986 -53.035  1.00  0.00     0.008 A 
HETATM   24  C   UNL     1     -40.739  53.147 -52.300  1.00  0.00     0.045 A 
HETATM   25  C   UNL     1     -42.393  54.684 -52.080  1.00  0.00     0.032 A 
HETATM   26  N   UNL     1     -40.965  53.400 -50.957  1.00  0.00    -0.352 N 
HETATM   27  C   UNL     1     -39.863  52.252 -52.941  1.00  0.00     0.030 A 
HETATM   28  C   UNL     1     -41.970  54.326 -50.824  1.00  0.00     0.092 A 
HETATM   29  C   UNL     1     -39.848  52.200 -54.335  1.00  0.00     0.003 A 
HETATM   30  C   UNL     1     -40.669  53.034 -55.082  1.00  0.00     0.018 A 
BRANCH  26  31
HETATM   31  C   UNL     1     -40.294  52.791 -49.804  1.00  0.00     0.081 C 
HETATM   32  C   UNL     1     -40.603  51.302 -49.649  1.00  0.00     0.032 C 
HETATM   33  C   UNL     1     -40.535  53.572 -48.513  1.00  0.00     0.032 C 
ENDBRANCH  26  31
ENDBRANCH  19  22
ENDBRANCH   1  18
TORSDOF 3
ENDMDL
