MODEL 1
REMARK VINA RESULT:      -8.9      0.000      0.000
REMARK  5 active torsions:
REMARK  status: ('A' for Active; 'I' for Inactive)
REMARK    1  A    between atoms: C_6  and  O_7 
REMARK    2  A    between atoms: O_7  and  C_8 
REMARK    3  A    between atoms: C_8  and  C_9 
REMARK       I    between atoms: C_9  and  N_10 
REMARK    4  A    between atoms: N_10  and  N_11 
REMARK    5  A    between atoms: C_12  and  C_13 
ROOT
HETATM    1  C   UNL     1     -42.619  55.226 -56.323  1.00  0.00     0.261 C 
HETATM    2  N   UNL     1     -41.346  55.416 -55.808  1.00  0.00    -0.246 N 
HETATM    3  O   UNL     1     -43.313  54.226 -56.134  1.00  0.00    -0.269 OA
HETATM    4  H   UNL     1     -40.818  56.251 -56.041  1.00  0.00     0.192 HD
ENDROOT
BRANCH   2   5
HETATM    5  N   UNL     1     -40.858  54.479 -54.953  1.00  0.00    -0.184 NA
HETATM    6  C   UNL     1     -41.110  54.606 -53.693  1.00  0.00     0.153 C 
BRANCH   6   7
HETATM    7  C   UNL     1     -40.627  53.576 -52.786  1.00  0.00     0.018 A 
HETATM    8  C   UNL     1     -40.279  52.213 -53.093  1.00  0.00     0.004 A 
HETATM    9  C   UNL     1     -39.892  51.599 -51.904  1.00  0.00     0.043 A 
HETATM   10  C   UNL     1     -40.264  51.438 -54.275  1.00  0.00     0.014 A 
HETATM   11  C   UNL     1     -39.496  50.257 -51.833  1.00  0.00     0.030 A 
HETATM   12  N   UNL     1     -39.988  52.545 -50.914  1.00  0.00    -0.358 N 
HETATM   13  C   UNL     1     -39.492  49.515 -53.018  1.00  0.00     0.002 A 
HETATM   14  C   UNL     1     -39.870  50.096 -54.225  1.00  0.00     0.001 A 
HETATM   15  H   UNL     1     -39.765  52.369 -49.944  1.00  0.00     0.166 HD
HETATM   16  C   UNL     1     -40.434  53.743 -51.421  1.00  0.00     0.018 A 
HETATM   17  C   UNL     1     -40.629  54.921 -50.537  1.00  0.00     0.069 C 
ENDBRANCH   6   7
ENDBRANCH   2   5
BRANCH   1  18
HETATM   18  C   UNL     1     -43.177  56.419 -57.087  1.00  0.00     0.280 C 
BRANCH  18  19
HETATM   19  O   UNL     1     -42.977  56.364 -58.502  1.00  0.00    -0.340 OA
BRANCH  19  20
HETATM   20  C   UNL     1     -44.187  56.508 -59.146  1.00  0.00     0.092 A 
HETATM   21  C   UNL     1     -44.726  57.792 -59.301  1.00  0.00     0.045 A 
HETATM   22  C   UNL     1     -45.910  57.977 -60.021  1.00  0.00     0.028 A 
HETATM   23 BR   UNL     1     -43.860  59.321 -58.584  1.00  0.00    -0.048 Br
HETATM   24  C   UNL     1     -46.578  56.879 -60.574  1.00  0.00    -0.060 A 
HETATM   25  C   UNL     1     -47.801  57.076 -61.419  1.00  0.00     0.048 C 
HETATM   26  C   UNL     1     -46.052  55.594 -60.383  1.00  0.00     0.016 A 
HETATM   27  C   UNL     1     -44.875  55.389 -59.643  1.00  0.00    -0.027 A 
HETATM   28  C   UNL     1     -44.368  53.986 -59.465  1.00  0.00     0.051 C 
ENDBRANCH  19  20
ENDBRANCH  18  19
ENDBRANCH   1  18
TORSDOF 5
ENDMDL
MODEL 2
REMARK VINA RESULT:      -8.8      3.092      8.646
REMARK  5 active torsions:
REMARK  status: ('A' for Active; 'I' for Inactive)
REMARK    1  A    between atoms: C_6  and  O_7 
REMARK    2  A    between atoms: O_7  and  C_8 
REMARK    3  A    between atoms: C_8  and  C_9 
REMARK       I    between atoms: C_9  and  N_10 
REMARK    4  A    between atoms: N_10  and  N_11 
REMARK    5  A    between atoms: C_12  and  C_13 
ROOT
HETATM    1  C   UNL     1     -42.955  55.425 -53.400  1.00  0.00     0.261 C 
HETATM    2  N   UNL     1     -42.515  56.618 -53.950  1.00  0.00    -0.246 N 
HETATM    3  O   UNL     1     -43.820  54.699 -53.891  1.00  0.00    -0.269 OA
HETATM    4  H   UNL     1     -41.824  57.184 -53.467  1.00  0.00     0.192 HD
ENDROOT
BRANCH   2   5
HETATM    5  N   UNL     1     -43.000  56.975 -55.170  1.00  0.00    -0.184 NA
HETATM    6  C   UNL     1     -42.273  56.745 -56.211  1.00  0.00     0.153 C 
BRANCH   6   7
HETATM    7  C   UNL     1     -42.815  57.083 -57.518  1.00  0.00     0.018 A 
HETATM    8  C   UNL     1     -43.460  56.211 -58.465  1.00  0.00     0.004 A 
HETATM    9  C   UNL     1     -43.789  56.975 -59.584  1.00  0.00     0.043 A 
HETATM   10  C   UNL     1     -43.790  54.837 -58.481  1.00  0.00     0.014 A 
HETATM   11  C   UNL     1     -44.425  56.439 -60.712  1.00  0.00     0.030 A 
HETATM   12  N   UNL     1     -43.375  58.258 -59.330  1.00  0.00    -0.358 N 
HETATM   13  C   UNL     1     -44.738  55.076 -60.698  1.00  0.00     0.002 A 
HETATM   14  C   UNL     1     -44.426  54.283 -59.598  1.00  0.00     0.001 A 
HETATM   15  H   UNL     1     -43.490  59.025 -59.978  1.00  0.00     0.166 HD
HETATM   16  C   UNL     1     -42.781  58.347 -58.094  1.00  0.00     0.018 A 
HETATM   17  C   UNL     1     -42.239  59.638 -57.597  1.00  0.00     0.069 C 
ENDBRANCH   6   7
ENDBRANCH   2   5
BRANCH   1  18
HETATM   18  C   UNL     1     -42.202  54.991 -52.149  1.00  0.00     0.280 C 
BRANCH  18  19
HETATM   19  O   UNL     1     -40.782  54.924 -52.304  1.00  0.00    -0.340 OA
BRANCH  19  20
HETATM   20  C   UNL     1     -40.393  53.609 -52.434  1.00  0.00     0.092 A 
HETATM   21  C   UNL     1     -40.175  52.845 -51.280  1.00  0.00     0.045 A 
HETATM   22  C   UNL     1     -39.859  51.487 -51.382  1.00  0.00     0.028 A 
HETATM   23 BR   UNL     1     -40.338  53.603 -49.548  1.00  0.00    -0.048 Br
HETATM   24  C   UNL     1     -39.737  50.884 -52.639  1.00  0.00    -0.060 A 
HETATM   25  C   UNL     1     -39.483  49.410 -52.756  1.00  0.00     0.048 C 
HETATM   26  C   UNL     1     -39.920  51.663 -53.790  1.00  0.00     0.016 A 
HETATM   27  C   UNL     1     -40.216  53.034 -53.705  1.00  0.00    -0.027 A 
HETATM   28  C   UNL     1     -40.389  53.816 -54.975  1.00  0.00     0.051 C 
ENDBRANCH  19  20
ENDBRANCH  18  19
ENDBRANCH   1  18
TORSDOF 5
ENDMDL
MODEL 3
REMARK VINA RESULT:      -8.6      1.241      1.903
REMARK  5 active torsions:
REMARK  status: ('A' for Active; 'I' for Inactive)
REMARK    1  A    between atoms: C_6  and  O_7 
REMARK    2  A    between atoms: O_7  and  C_8 
REMARK    3  A    between atoms: C_8  and  C_9 
REMARK       I    between atoms: C_9  and  N_10 
REMARK    4  A    between atoms: N_10  and  N_11 
REMARK    5  A    between atoms: C_12  and  C_13 
ROOT
HETATM    1  C   UNL     1     -42.514  55.473 -56.190  1.00  0.00     0.261 C 
HETATM    2  N   UNL     1     -41.289  55.751 -55.604  1.00  0.00    -0.246 N 
HETATM    3  O   UNL     1     -43.112  54.400 -56.098  1.00  0.00    -0.269 OA
HETATM    4  H   UNL     1     -40.837  56.647 -55.757  1.00  0.00     0.192 HD
ENDROOT
BRANCH   2   5
HETATM    5  N   UNL     1     -40.745  54.810 -54.787  1.00  0.00    -0.184 NA
HETATM    6  C   UNL     1     -41.239  54.664 -53.604  1.00  0.00     0.153 C 
BRANCH   6   7
HETATM    7  C   UNL     1     -40.687  53.623 -52.750  1.00  0.00     0.018 A 
HETATM    8  C   UNL     1     -40.338  52.273 -53.106  1.00  0.00     0.004 A 
HETATM    9  C   UNL     1     -39.870  51.641 -51.956  1.00  0.00     0.043 A 
HETATM   10  C   UNL     1     -40.382  51.523 -54.303  1.00  0.00     0.014 A 
HETATM   11  C   UNL     1     -39.450  50.305 -51.938  1.00  0.00     0.030 A 
HETATM   12  N   UNL     1     -39.920  52.565 -50.942  1.00  0.00    -0.358 N 
HETATM   13  C   UNL     1     -39.506  49.588 -53.137  1.00  0.00     0.002 A 
HETATM   14  C   UNL     1     -39.966  50.187 -54.306  1.00  0.00     0.001 A 
HETATM   15  H   UNL     1     -39.637  52.372 -49.990  1.00  0.00     0.166 HD
HETATM   16  C   UNL     1     -40.414  53.765 -51.395  1.00  0.00     0.018 A 
HETATM   17  C   UNL     1     -40.573  54.922 -50.475  1.00  0.00     0.069 C 
ENDBRANCH   6   7
ENDBRANCH   2   5
BRANCH   1  18
HETATM   18  C   UNL     1     -43.156  56.655 -56.903  1.00  0.00     0.280 C 
BRANCH  18  19
HETATM   19  O   UNL     1     -42.830  56.760 -58.292  1.00  0.00    -0.340 OA
BRANCH  19  20
HETATM   20  C   UNL     1     -43.911  57.260 -58.984  1.00  0.00     0.092 A 
HETATM   21  C   UNL     1     -44.780  56.369 -59.628  1.00  0.00     0.045 A 
HETATM   22  C   UNL     1     -45.929  56.842 -60.268  1.00  0.00     0.028 A 
HETATM   23 BR   UNL     1     -44.458  54.499 -59.624  1.00  0.00    -0.048 Br
HETATM   24  C   UNL     1     -46.210  58.213 -60.289  1.00  0.00    -0.060 A 
HETATM   25  C   UNL     1     -47.483  58.722 -60.898  1.00  0.00     0.048 C 
HETATM   26  C   UNL     1     -45.318  59.102 -59.674  1.00  0.00     0.016 A 
HETATM   27  C   UNL     1     -44.147  58.644 -59.046  1.00  0.00    -0.027 A 
HETATM   28  C   UNL     1     -43.225  59.648 -58.415  1.00  0.00     0.051 C 
ENDBRANCH  19  20
ENDBRANCH  18  19
ENDBRANCH   1  18
TORSDOF 5
ENDMDL
MODEL 4
REMARK VINA RESULT:      -8.5      3.033      9.360
REMARK  5 active torsions:
REMARK  status: ('A' for Active; 'I' for Inactive)
REMARK    1  A    between atoms: C_6  and  O_7 
REMARK    2  A    between atoms: O_7  and  C_8 
REMARK    3  A    between atoms: C_8  and  C_9 
REMARK       I    between atoms: C_9  and  N_10 
REMARK    4  A    between atoms: N_10  and  N_11 
REMARK    5  A    between atoms: C_12  and  C_13 
ROOT
HETATM    1  C   UNL     1     -43.131  55.802 -54.225  1.00  0.00     0.261 C 
HETATM    2  N   UNL     1     -42.154  56.092 -55.163  1.00  0.00    -0.246 N 
HETATM    3  O   UNL     1     -44.315  56.132 -54.314  1.00  0.00    -0.269 OA
HETATM    4  H   UNL     1     -41.189  55.822 -55.002  1.00  0.00     0.192 HD
ENDROOT
BRANCH   2   5
HETATM    5  N   UNL     1     -42.540  56.701 -56.316  1.00  0.00    -0.184 NA
HETATM    6  C   UNL     1     -42.586  55.997 -57.397  1.00  0.00     0.153 C 
BRANCH   6   7
HETATM    7  C   UNL     1     -43.045  56.640 -58.619  1.00  0.00     0.018 A 
HETATM    8  C   UNL     1     -42.797  57.987 -59.062  1.00  0.00     0.004 A 
HETATM    9  C   UNL     1     -43.457  58.158 -60.278  1.00  0.00     0.043 A 
HETATM   10  C   UNL     1     -42.076  59.084 -58.539  1.00  0.00     0.014 A 
HETATM   11  C   UNL     1     -43.437  59.364 -60.992  1.00  0.00     0.030 A 
HETATM   12  N   UNL     1     -44.073  56.968 -60.572  1.00  0.00    -0.358 N 
HETATM   13  C   UNL     1     -42.716  60.432 -60.449  1.00  0.00     0.002 A 
HETATM   14  C   UNL     1     -42.043  60.296 -59.238  1.00  0.00     0.001 A 
HETATM   15  H   UNL     1     -44.626  56.811 -61.404  1.00  0.00     0.166 HD
HETATM   16  C   UNL     1     -43.844  56.039 -59.585  1.00  0.00     0.018 A 
HETATM   17  C   UNL     1     -44.419  54.672 -59.673  1.00  0.00     0.069 C 
ENDBRANCH   6   7
ENDBRANCH   2   5
BRANCH   1  18
HETATM   18  C   UNL     1     -42.659  54.926 -53.071  1.00  0.00     0.280 C 
BRANCH  18  19
HETATM   19  O   UNL     1     -41.276  55.075 -52.740  1.00  0.00    -0.340 OA
BRANCH  19  20
HETATM   20  C   UNL     1     -40.770  53.866 -52.317  1.00  0.00     0.092 A 
HETATM   21  C   UNL     1     -40.772  53.567 -50.949  1.00  0.00     0.045 A 
HETATM   22  C   UNL     1     -40.340  52.316 -50.499  1.00  0.00     0.028 A 
HETATM   23 BR   UNL     1     -41.394  54.818 -49.665  1.00  0.00    -0.048 Br
HETATM   24  C   UNL     1     -39.881  51.359 -51.412  1.00  0.00    -0.060 A 
HETATM   25  C   UNL     1     -39.497  49.985 -50.947  1.00  0.00     0.048 C 
HETATM   26  C   UNL     1     -39.846  51.678 -52.776  1.00  0.00     0.016 A 
HETATM   27  C   UNL     1     -40.256  52.939 -53.241  1.00  0.00    -0.027 A 
HETATM   28  C   UNL     1     -40.185  53.224 -54.714  1.00  0.00     0.051 C 
ENDBRANCH  19  20
ENDBRANCH  18  19
ENDBRANCH   1  18
TORSDOF 5
ENDMDL
MODEL 5
REMARK VINA RESULT:      -8.5      2.112      2.516
REMARK  5 active torsions:
REMARK  status: ('A' for Active; 'I' for Inactive)
REMARK    1  A    between atoms: C_6  and  O_7 
REMARK    2  A    between atoms: O_7  and  C_8 
REMARK    3  A    between atoms: C_8  and  C_9 
REMARK       I    between atoms: C_9  and  N_10 
REMARK    4  A    between atoms: N_10  and  N_11 
REMARK    5  A    between atoms: C_12  and  C_13 
ROOT
HETATM    1  C   UNL     1     -44.604  57.467 -54.453  1.00  0.00     0.261 C 
HETATM    2  N   UNL     1     -44.613  56.082 -54.481  1.00  0.00    -0.246 N 
HETATM    3  O   UNL     1     -43.944  58.153 -53.671  1.00  0.00    -0.269 OA
HETATM    4  H   UNL     1     -45.215  55.584 -55.130  1.00  0.00     0.192 HD
ENDROOT
BRANCH   2   5
HETATM    5  N   UNL     1     -43.760  55.423 -53.652  1.00  0.00    -0.184 NA
HETATM    6  C   UNL     1     -42.622  55.037 -54.122  1.00  0.00     0.153 C 
BRANCH   6   7
HETATM    7  C   UNL     1     -41.692  54.374 -53.220  1.00  0.00     0.018 A 
HETATM    8  C   UNL     1     -41.037  53.105 -53.394  1.00  0.00     0.004 A 
HETATM    9  C   UNL     1     -40.260  52.873 -52.260  1.00  0.00     0.043 A 
HETATM   10  C   UNL     1     -41.037  52.122 -54.409  1.00  0.00     0.014 A 
HETATM   11  C   UNL     1     -39.489  51.716 -52.088  1.00  0.00     0.030 A 
HETATM   12  N   UNL     1     -40.422  53.957 -51.434  1.00  0.00    -0.358 N 
HETATM   13  C   UNL     1     -39.510  50.761 -53.110  1.00  0.00     0.002 A 
HETATM   14  C   UNL     1     -40.274  50.959 -54.256  1.00  0.00     0.001 A 
HETATM   15  H   UNL     1     -39.968  54.052 -50.536  1.00  0.00     0.166 HD
HETATM   16  C   UNL     1     -41.285  54.872 -51.988  1.00  0.00     0.018 A 
HETATM   17  C   UNL     1     -41.628  56.129 -51.273  1.00  0.00     0.069 C 
ENDBRANCH   6   7
ENDBRANCH   2   5
BRANCH   1  18
HETATM   18  C   UNL     1     -45.417  58.127 -55.560  1.00  0.00     0.280 C 
BRANCH  18  19
HETATM   19  O   UNL     1     -44.642  58.588 -56.670  1.00  0.00    -0.340 OA
BRANCH  19  20
HETATM   20  C   UNL     1     -44.764  57.701 -57.718  1.00  0.00     0.092 A 
HETATM   21  C   UNL     1     -45.942  57.702 -58.477  1.00  0.00     0.045 A 
HETATM   22  C   UNL     1     -46.061  56.871 -59.595  1.00  0.00     0.028 A 
HETATM   23 BR   UNL     1     -47.393  58.847 -58.049  1.00  0.00    -0.048 Br
HETATM   24  C   UNL     1     -45.012  56.016 -59.952  1.00  0.00    -0.060 A 
HETATM   25  C   UNL     1     -45.097  55.184 -61.198  1.00  0.00     0.048 C 
HETATM   26  C   UNL     1     -43.852  55.993 -59.167  1.00  0.00     0.016 A 
HETATM   27  C   UNL     1     -43.726  56.806 -58.027  1.00  0.00    -0.027 A 
HETATM   28  C   UNL     1     -42.461  56.729 -57.220  1.00  0.00     0.051 C 
ENDBRANCH  19  20
ENDBRANCH  18  19
ENDBRANCH   1  18
TORSDOF 5
ENDMDL
MODEL 6
REMARK VINA RESULT:      -8.3      1.978      2.340
REMARK  5 active torsions:
REMARK  status: ('A' for Active; 'I' for Inactive)
REMARK    1  A    between atoms: C_6  and  O_7 
REMARK    2  A    between atoms: O_7  and  C_8 
REMARK    3  A    between atoms: C_8  and  C_9 
REMARK       I    between atoms: C_9  and  N_10 
REMARK    4  A    between atoms: N_10  and  N_11 
REMARK    5  A    between atoms: C_12  and  C_13 
ROOT
HETATM    1  C   UNL     1     -42.712  56.124 -55.357  1.00  0.00     0.261 C 
HETATM    2  N   UNL     1     -42.098  56.316 -54.130  1.00  0.00    -0.246 N 
HETATM    3  O   UNL     1     -42.961  55.026 -55.857  1.00  0.00    -0.269 OA
HETATM    4  H   UNL     1     -41.890  57.254 -53.800  1.00  0.00     0.192 HD
ENDROOT
BRANCH   2   5
HETATM    5  N   UNL     1     -41.833  55.219 -53.372  1.00  0.00    -0.184 NA
HETATM    6  C   UNL     1     -40.633  54.744 -53.377  1.00  0.00     0.153 C 
BRANCH   6   7
HETATM    7  C   UNL     1     -40.340  53.600 -52.527  1.00  0.00     0.018 A 
HETATM    8  C   UNL     1     -40.096  52.238 -52.923  1.00  0.00     0.004 A 
HETATM    9  C   UNL     1     -39.886  51.493 -51.764  1.00  0.00     0.043 A 
HETATM   10  C   UNL     1     -40.041  51.563 -54.163  1.00  0.00     0.014 A 
HETATM   11  C   UNL     1     -39.628  50.116 -51.779  1.00  0.00     0.030 A 
HETATM   12  N   UNL     1     -39.986  52.361 -50.706  1.00  0.00    -0.358 N 
HETATM   13  C   UNL     1     -39.581  49.476 -53.022  1.00  0.00     0.002 A 
HETATM   14  C   UNL     1     -39.784  50.188 -54.200  1.00  0.00     0.001 A 
HETATM   15  H   UNL     1     -39.876  52.085 -49.739  1.00  0.00     0.166 HD
HETATM   16  C   UNL     1     -40.264  53.636 -51.140  1.00  0.00     0.018 A 
HETATM   17  C   UNL     1     -40.431  54.753 -50.174  1.00  0.00     0.069 C 
ENDBRANCH   6   7
ENDBRANCH   2   5
BRANCH   1  18
HETATM   18  C   UNL     1     -43.176  57.404 -56.039  1.00  0.00     0.280 C 
BRANCH  18  19
HETATM   19  O   UNL     1     -44.047  57.201 -57.155  1.00  0.00    -0.340 OA
BRANCH  19  20
HETATM   20  C   UNL     1     -43.592  57.925 -58.235  1.00  0.00     0.092 A 
HETATM   21  C   UNL     1     -43.795  59.311 -58.260  1.00  0.00     0.045 A 
HETATM   22  C   UNL     1     -43.273  60.081 -59.303  1.00  0.00     0.028 A 
HETATM   23 BR   UNL     1     -44.742  60.196 -56.874  1.00  0.00    -0.048 Br
HETATM   24  C   UNL     1     -42.561  59.471 -60.342  1.00  0.00    -0.060 A 
HETATM   25  C   UNL     1     -41.924  60.299 -61.419  1.00  0.00     0.048 C 
HETATM   26  C   UNL     1     -42.393  58.080 -60.329  1.00  0.00     0.016 A 
HETATM   27  C   UNL     1     -42.931  57.289 -59.300  1.00  0.00    -0.027 A 
HETATM   28  C   UNL     1     -42.727  55.801 -59.349  1.00  0.00     0.051 C 
ENDBRANCH  19  20
ENDBRANCH  18  19
ENDBRANCH   1  18
TORSDOF 5
ENDMDL
MODEL 7
REMARK VINA RESULT:      -8.2      3.047      9.479
REMARK  5 active torsions:
REMARK  status: ('A' for Active; 'I' for Inactive)
REMARK    1  A    between atoms: C_6  and  O_7 
REMARK    2  A    between atoms: O_7  and  C_8 
REMARK    3  A    between atoms: C_8  and  C_9 
REMARK       I    between atoms: C_9  and  N_10 
REMARK    4  A    between atoms: N_10  and  N_11 
REMARK    5  A    between atoms: C_12  and  C_13 
ROOT
HETATM    1  C   UNL     1     -43.107  56.244 -54.194  1.00  0.00     0.261 C 
HETATM    2  N   UNL     1     -42.323  56.380 -55.328  1.00  0.00    -0.246 N 
HETATM    3  O   UNL     1     -44.200  56.787 -54.023  1.00  0.00    -0.269 OA
HETATM    4  H   UNL     1     -41.413  55.932 -55.380  1.00  0.00     0.192 HD
ENDROOT
BRANCH   2   5
HETATM    5  N   UNL     1     -42.830  57.086 -56.373  1.00  0.00    -0.184 NA
HETATM    6  C   UNL     1     -43.299  56.436 -57.384  1.00  0.00     0.153 C 
BRANCH   6   7
HETATM    7  C   UNL     1     -43.885  57.193 -58.480  1.00  0.00     0.018 A 
HETATM    8  C   UNL     1     -45.158  57.863 -58.515  1.00  0.00     0.004 A 
HETATM    9  C   UNL     1     -45.299  58.432 -59.779  1.00  0.00     0.043 A 
HETATM   10  C   UNL     1     -46.213  58.033 -57.591  1.00  0.00     0.014 A 
HETATM   11  C   UNL     1     -46.435  59.157 -60.167  1.00  0.00     0.030 A 
HETATM   12  N   UNL     1     -44.159  58.135 -60.483  1.00  0.00    -0.358 N 
HETATM   13  C   UNL     1     -47.462  59.307 -59.230  1.00  0.00     0.002 A 
HETATM   14  C   UNL     1     -47.355  58.754 -57.958  1.00  0.00     0.001 A 
HETATM   15  H   UNL     1     -43.994  58.427 -61.437  1.00  0.00     0.166 HD
HETATM   16  C   UNL     1     -43.294  57.384 -59.723  1.00  0.00     0.018 A 
HETATM   17  C   UNL     1     -41.991  56.928 -60.273  1.00  0.00     0.069 C 
ENDBRANCH   6   7
ENDBRANCH   2   5
BRANCH   1  18
HETATM   18  C   UNL     1     -42.567  55.259 -53.165  1.00  0.00     0.280 C 
BRANCH  18  19
HETATM   19  O   UNL     1     -41.157  55.348 -52.942  1.00  0.00    -0.340 OA
BRANCH  19  20
HETATM   20  C   UNL     1     -40.674  54.120 -52.547  1.00  0.00     0.092 A 
HETATM   21  C   UNL     1     -40.594  53.827 -51.179  1.00  0.00     0.045 A 
HETATM   22  C   UNL     1     -40.185  52.561 -50.751  1.00  0.00     0.028 A 
HETATM   23 BR   UNL     1     -41.073  55.110 -49.865  1.00  0.00    -0.048 Br
HETATM   24  C   UNL     1     -39.831  51.582 -51.686  1.00  0.00    -0.060 A 
HETATM   25  C   UNL     1     -39.474  50.195 -51.239  1.00  0.00     0.048 C 
HETATM   26  C   UNL     1     -39.878  51.893 -53.051  1.00  0.00     0.016 A 
HETATM   27  C   UNL     1     -40.265  53.168 -53.497  1.00  0.00    -0.027 A 
HETATM   28  C   UNL     1     -40.284  53.443 -54.974  1.00  0.00     0.051 C 
ENDBRANCH  19  20
ENDBRANCH  18  19
ENDBRANCH   1  18
TORSDOF 5
ENDMDL
MODEL 8
REMARK VINA RESULT:      -8.1      3.171      3.669
REMARK  5 active torsions:
REMARK  status: ('A' for Active; 'I' for Inactive)
REMARK    1  A    between atoms: C_6  and  O_7 
REMARK    2  A    between atoms: O_7  and  C_8 
REMARK    3  A    between atoms: C_8  and  C_9 
REMARK       I    between atoms: C_9  and  N_10 
REMARK    4  A    between atoms: N_10  and  N_11 
REMARK    5  A    between atoms: C_12  and  C_13 
ROOT
HETATM    1  C   UNL     1     -41.300  58.955 -53.650  1.00  0.00     0.261 C 
HETATM    2  N   UNL     1     -42.039  57.853 -53.249  1.00  0.00    -0.246 N 
HETATM    3  O   UNL     1     -40.098  59.115 -53.434  1.00  0.00    -0.269 OA
HETATM    4  H   UNL     1     -43.037  57.810 -53.429  1.00  0.00     0.192 HD
ENDROOT
BRANCH   2   5
HETATM    5  N   UNL     1     -41.376  56.824 -52.658  1.00  0.00    -0.184 NA
HETATM    6  C   UNL     1     -41.990  55.696 -52.522  1.00  0.00     0.153 C 
BRANCH   6   7
HETATM    7  C   UNL     1     -41.262  54.582 -51.932  1.00  0.00     0.018 A 
HETATM    8  C   UNL     1     -40.747  53.410 -52.590  1.00  0.00     0.004 A 
HETATM    9  C   UNL     1     -40.146  52.612 -51.619  1.00  0.00     0.043 A 
HETATM   10  C   UNL     1     -40.742  52.946 -53.925  1.00  0.00     0.014 A 
HETATM   11  C   UNL     1     -39.546  51.379 -51.909  1.00  0.00     0.030 A 
HETATM   12  N   UNL     1     -40.277  53.270 -50.421  1.00  0.00    -0.358 N 
HETATM   13  C   UNL     1     -39.557  50.946 -53.239  1.00  0.00     0.002 A 
HETATM   14  C   UNL     1     -40.147  51.718 -54.236  1.00  0.00     0.001 A 
HETATM   15  H   UNL     1     -39.927  52.913 -49.542  1.00  0.00     0.166 HD
HETATM   16  C   UNL     1     -40.951  54.457 -50.584  1.00  0.00     0.018 A 
HETATM   17  C   UNL     1     -41.226  55.345 -49.425  1.00  0.00     0.069 C 
ENDBRANCH   6   7
ENDBRANCH   2   5
BRANCH   1  18
HETATM   18  C   UNL     1     -42.071  59.958 -54.499  1.00  0.00     0.280 C 
BRANCH  18  19
HETATM   19  O   UNL     1     -43.192  59.408 -55.196  1.00  0.00    -0.340 OA
BRANCH  19  20
HETATM   20  C   UNL     1     -42.951  59.438 -56.553  1.00  0.00     0.092 A 
HETATM   21  C   UNL     1     -43.118  60.643 -57.247  1.00  0.00     0.045 A 
HETATM   22  C   UNL     1     -42.803  60.723 -58.607  1.00  0.00     0.028 A 
HETATM   23 BR   UNL     1     -43.731  62.212 -56.373  1.00  0.00    -0.048 Br
HETATM   24  C   UNL     1     -42.339  59.592 -59.290  1.00  0.00    -0.060 A 
HETATM   25  C   UNL     1     -41.918  59.690 -60.727  1.00  0.00     0.048 C 
HETATM   26  C   UNL     1     -42.210  58.381 -58.598  1.00  0.00     0.016 A 
HETATM   27  C   UNL     1     -42.544  58.279 -57.236  1.00  0.00    -0.027 A 
HETATM   28  C   UNL     1     -42.395  56.950 -56.553  1.00  0.00     0.051 C 
ENDBRANCH  19  20
ENDBRANCH  18  19
ENDBRANCH   1  18
TORSDOF 5
ENDMDL
MODEL 9
REMARK VINA RESULT:      -8.1      5.700      6.747
REMARK  5 active torsions:
REMARK  status: ('A' for Active; 'I' for Inactive)
REMARK    1  A    between atoms: C_6  and  O_7 
REMARK    2  A    between atoms: O_7  and  C_8 
REMARK    3  A    between atoms: C_8  and  C_9 
REMARK       I    between atoms: C_9  and  N_10 
REMARK    4  A    between atoms: N_10  and  N_11 
REMARK    5  A    between atoms: C_12  and  C_13 
ROOT
HETATM    1  C   UNL     1     -41.265  59.058 -51.264  1.00  0.00     0.261 C 
HETATM    2  N   UNL     1     -41.737  58.012 -50.488  1.00  0.00    -0.246 N 
HETATM    3  O   UNL     1     -40.243  59.021 -51.951  1.00  0.00    -0.269 OA
HETATM    4  H   UNL     1     -42.567  58.130 -49.915  1.00  0.00     0.192 HD
ENDROOT
BRANCH   2   5
HETATM    5  N   UNL     1     -41.084  56.822 -50.558  1.00  0.00    -0.184 NA
HETATM    6  C   UNL     1     -41.781  55.747 -50.717  1.00  0.00     0.153 C 
BRANCH   6   7
HETATM    7  C   UNL     1     -41.076  54.480 -50.840  1.00  0.00     0.018 A 
HETATM    8  C   UNL     1     -40.782  53.740 -52.039  1.00  0.00     0.004 A 
HETATM    9  C   UNL     1     -40.112  52.577 -51.662  1.00  0.00     0.043 A 
HETATM   10  C   UNL     1     -41.029  53.945 -53.415  1.00  0.00     0.014 A 
HETATM   11  C   UNL     1     -39.681  51.613 -52.583  1.00  0.00     0.030 A 
HETATM   12  N   UNL     1     -39.991  52.608 -50.295  1.00  0.00    -0.358 N 
HETATM   13  C   UNL     1     -39.942  51.844 -53.937  1.00  0.00     0.002 A 
HETATM   14  C   UNL     1     -40.606  52.995 -54.350  1.00  0.00     0.001 A 
HETATM   15  H   UNL     1     -39.543  51.882 -49.753  1.00  0.00     0.166 HD
HETATM   16  C   UNL     1     -40.569  53.743 -49.777  1.00  0.00     0.018 A 
HETATM   17  C   UNL     1     -40.576  53.997 -48.313  1.00  0.00     0.069 C 
ENDBRANCH   6   7
ENDBRANCH   2   5
BRANCH   1  18
HETATM   18  C   UNL     1     -42.175  60.279 -51.302  1.00  0.00     0.280 C 
BRANCH  18  19
HETATM   19  O   UNL     1     -43.141  60.332 -50.249  1.00  0.00    -0.340 OA
BRANCH  19  20
HETATM   20  C   UNL     1     -44.348  60.767 -50.750  1.00  0.00     0.092 A 
HETATM   21  C   UNL     1     -44.584  62.144 -50.857  1.00  0.00     0.045 A 
HETATM   22  C   UNL     1     -45.766  62.614 -51.437  1.00  0.00     0.028 A 
HETATM   23 BR   UNL     1     -43.306  63.415 -50.262  1.00  0.00    -0.048 Br
HETATM   24  C   UNL     1     -46.732  61.713 -51.897  1.00  0.00    -0.060 A 
HETATM   25  C   UNL     1     -47.963  62.207 -52.598  1.00  0.00     0.048 C 
HETATM   26  C   UNL     1     -46.506  60.337 -51.754  1.00  0.00     0.016 A 
HETATM   27  C   UNL     1     -45.333  59.849 -51.152  1.00  0.00    -0.027 A 
HETATM   28  C   UNL     1     -45.154  58.364 -51.017  1.00  0.00     0.051 C 
ENDBRANCH  19  20
ENDBRANCH  18  19
ENDBRANCH   1  18
TORSDOF 5
ENDMDL
MODEL 10
REMARK VINA RESULT:      -8.0      6.071      9.783
REMARK  5 active torsions:
REMARK  status: ('A' for Active; 'I' for Inactive)
REMARK    1  A    between atoms: C_6  and  O_7 
REMARK    2  A    between atoms: O_7  and  C_8 
REMARK    3  A    between atoms: C_8  and  C_9 
REMARK       I    between atoms: C_9  and  N_10 
REMARK    4  A    between atoms: N_10  and  N_11 
REMARK    5  A    between atoms: C_12  and  C_13 
ROOT
HETATM    1  C   UNL     1     -43.299  56.518 -52.176  1.00  0.00     0.261 C 
HETATM    2  N   UNL     1     -43.257  57.288 -51.025  1.00  0.00    -0.246 N 
HETATM    3  O   UNL     1     -43.800  56.874 -53.243  1.00  0.00    -0.269 OA
HETATM    4  H   UNL     1     -42.861  56.911 -50.169  1.00  0.00     0.192 HD
ENDROOT
BRANCH   2   5
HETATM    5  N   UNL     1     -43.713  58.567 -51.096  1.00  0.00    -0.184 NA
HETATM    6  C   UNL     1     -42.853  59.529 -51.073  1.00  0.00     0.153 C 
BRANCH   6   7
HETATM    7  C   UNL     1     -43.342  60.893 -51.198  1.00  0.00     0.018 A 
HETATM    8  C   UNL     1     -43.967  61.709 -50.190  1.00  0.00     0.004 A 
HETATM    9  C   UNL     1     -44.285  62.933 -50.777  1.00  0.00     0.043 A 
HETATM   10  C   UNL     1     -44.300  61.520 -48.830  1.00  0.00     0.014 A 
HETATM   11  C   UNL     1     -44.919  63.970 -50.080  1.00  0.00     0.030 A 
HETATM   12  N   UNL     1     -43.865  62.874 -52.082  1.00  0.00    -0.358 N 
HETATM   13  C   UNL     1     -45.238  63.752 -48.736  1.00  0.00     0.002 A 
HETATM   14  C   UNL     1     -44.933  62.544 -48.116  1.00  0.00     0.001 A 
HETATM   15  H   UNL     1     -43.972  63.631 -52.742  1.00  0.00     0.166 HD
HETATM   16  C   UNL     1     -43.298  61.653 -52.360  1.00  0.00     0.018 A 
HETATM   17  C   UNL     1     -42.775  61.345 -53.717  1.00  0.00     0.069 C 
ENDBRANCH   6   7
ENDBRANCH   2   5
BRANCH   1  18
HETATM   18  C   UNL     1     -42.569  55.186 -52.073  1.00  0.00     0.280 C 
BRANCH  18  19
HETATM   19  O   UNL     1     -41.159  55.262 -52.300  1.00  0.00    -0.340 OA
BRANCH  19  20
HETATM   20  C   UNL     1     -40.697  54.047 -52.755  1.00  0.00     0.092 A 
HETATM   21  C   UNL     1     -40.216  53.111 -51.830  1.00  0.00     0.045 A 
HETATM   22  C   UNL     1     -39.818  51.840 -52.255  1.00  0.00     0.028 A 
HETATM   23 BR   UNL     1     -40.125  53.510 -49.977  1.00  0.00    -0.048 Br
HETATM   24  C   UNL     1     -39.877  51.500 -53.611  1.00  0.00    -0.060 A 
HETATM   25  C   UNL     1     -39.533  50.111 -54.064  1.00  0.00     0.048 C 
HETATM   26  C   UNL     1     -40.324  52.453 -54.535  1.00  0.00     0.016 A 
HETATM   27  C   UNL     1     -40.707  53.742 -54.127  1.00  0.00    -0.027 A 
HETATM   28  C   UNL     1     -41.167  54.723 -55.168  1.00  0.00     0.051 C 
ENDBRANCH  19  20
ENDBRANCH  18  19
ENDBRANCH   1  18
TORSDOF 5
ENDMDL
