MODEL 1
REMARK VINA RESULT:      -8.3      0.000      0.000
REMARK  6 active torsions:
REMARK  status: ('A' for Active; 'I' for Inactive)
REMARK    1  A    between atoms: C_7  and  S_8 
REMARK    2  A    between atoms: S_8  and  C_9 
REMARK    3  A    between atoms: C_9  and  C_10 
REMARK    4  A    between atoms: C_18  and  C_19 
REMARK    5  A    between atoms: C_27  and  C_28 
REMARK    6  A    between atoms: C_28  and  O_29 
ROOT
HETATM    1  C   UNL     1     -44.416  57.663 -56.799  1.00  0.00     0.070 C 
HETATM    2  C   UNL     1     -43.623  57.397 -55.544  1.00  0.00     0.037 A 
HETATM    3  N   UNL     1     -43.743  56.115 -55.019  1.00  0.00    -0.192 N 
HETATM    4  C   UNL     1     -43.111  55.707 -53.904  1.00  0.00     0.726 A 
HETATM    5  N   UNL     1     -42.345  56.598 -53.205  1.00  0.00    -0.082 N 
HETATM    6  N   UNL     1     -41.749  56.009 -52.149  1.00  0.00    -0.128 NA
HETATM    7  C   UNL     1     -42.236  54.766 -52.247  1.00  0.00     0.226 A 
HETATM    8  N   UNL     1     -43.074  54.541 -53.312  1.00  0.00    -0.035 NA
HETATM    9  C   UNL     1     -42.135  57.997 -53.603  1.00  0.00     0.208 A 
HETATM   10  C   UNL     1     -42.849  58.316 -54.912  1.00  0.00     0.070 A 
HETATM   11  H   UNL     1     -44.319  55.449 -55.527  1.00  0.00     0.184 HD
ENDROOT
BRANCH   7  12
HETATM   12  S   UNL     1     -41.813  53.543 -51.082  1.00  0.00    -0.083 SA
BRANCH  12  13
HETATM   13  C   UNL     1     -40.083  53.259 -51.548  1.00  0.00     0.123 C 
BRANCH  13  14
HETATM   14  C   UNL     1     -39.899  51.929 -52.242  1.00  0.00    -0.027 A 
HETATM   15  C   UNL     1     -39.931  51.788 -53.639  1.00  0.00     0.041 A 
HETATM   16 CL   UNL     1     -40.198  53.133 -54.690  1.00  0.00    -0.084 Cl
HETATM   17  C   UNL     1     -39.748  50.534 -54.232  1.00  0.00     0.024 A 
HETATM   18  C   UNL     1     -39.528  49.408 -53.441  1.00  0.00     0.002 A 
HETATM   19  C   UNL     1     -39.484  49.532 -52.056  1.00  0.00     0.001 A 
HETATM   20  C   UNL     1     -39.664  50.782 -51.460  1.00  0.00     0.009 A 
ENDBRANCH  13  14
ENDBRANCH  12  13
ENDBRANCH   7  12
BRANCH   9  21
HETATM   21  C   UNL     1     -42.438  58.922 -52.435  1.00  0.00     0.032 A 
HETATM   22  C   UNL     1     -43.722  59.212 -51.947  1.00  0.00     0.045 A 
HETATM   23 CL   UNL     1     -45.157  58.546 -52.640  1.00  0.00    -0.084 Cl
HETATM   24  C   UNL     1     -43.897  60.073 -50.854  1.00  0.00     0.024 A 
HETATM   25  C   UNL     1     -42.798  60.655 -50.225  1.00  0.00     0.005 A 
HETATM   26  C   UNL     1     -41.520  60.377 -50.692  1.00  0.00     0.043 A 
HETATM   27  C   UNL     1     -41.353  59.524 -51.779  1.00  0.00     0.126 A 
HETATM   28  F   UNL     1     -40.103  59.287 -52.206  1.00  0.00    -0.205 F 
ENDBRANCH   9  21
BRANCH  10  29
HETATM   29  C   UNL     1     -42.586  59.662 -55.463  1.00  0.00     0.293 C 
HETATM   30  O   UNL     1     -41.592  59.952 -56.110  1.00  0.00    -0.259 OA
BRANCH  29  31
HETATM   31  O   UNL     1     -43.638  60.481 -55.215  1.00  0.00    -0.323 OA
HETATM   32  C   UNL     1     -43.274  61.736 -54.637  1.00  0.00     0.213 C 
ENDBRANCH  29  31
ENDBRANCH  10  29
TORSDOF 6
ENDMDL
MODEL 2
REMARK VINA RESULT:      -8.2      1.721      2.217
REMARK  6 active torsions:
REMARK  status: ('A' for Active; 'I' for Inactive)
REMARK    1  A    between atoms: C_7  and  S_8 
REMARK    2  A    between atoms: S_8  and  C_9 
REMARK    3  A    between atoms: C_9  and  C_10 
REMARK    4  A    between atoms: C_18  and  C_19 
REMARK    5  A    between atoms: C_27  and  C_28 
REMARK    6  A    between atoms: C_28  and  O_29 
ROOT
HETATM    1  C   UNL     1     -43.664  55.585 -58.641  1.00  0.00     0.070 C 
HETATM    2  C   UNL     1     -43.177  55.880 -57.244  1.00  0.00     0.037 A 
HETATM    3  N   UNL     1     -43.250  54.819 -56.348  1.00  0.00    -0.192 N 
HETATM    4  C   UNL     1     -42.863  54.907 -55.063  1.00  0.00     0.726 A 
HETATM    5  N   UNL     1     -42.421  56.107 -54.577  1.00  0.00    -0.082 N 
HETATM    6  N   UNL     1     -42.031  56.000 -53.291  1.00  0.00    -0.128 NA
HETATM    7  C   UNL     1     -42.307  54.712 -53.050  1.00  0.00     0.226 A 
HETATM    8  N   UNL     1     -42.816  54.008 -54.114  1.00  0.00    -0.035 NA
HETATM    9  C   UNL     1     -42.310  57.332 -55.379  1.00  0.00     0.208 A 
HETATM   10  C   UNL     1     -42.715  57.087 -56.829  1.00  0.00     0.070 A 
HETATM   11  H   UNL     1     -43.587  53.927 -56.699  1.00  0.00     0.184 HD
ENDROOT
BRANCH   7  12
HETATM   12  S   UNL     1     -42.022  54.012 -51.481  1.00  0.00    -0.083 SA
BRANCH  12  13
HETATM   13  C   UNL     1     -40.256  53.626 -51.631  1.00  0.00     0.123 C 
BRANCH  13  14
HETATM   14  C   UNL     1     -40.025  52.160 -51.919  1.00  0.00    -0.027 A 
HETATM   15  C   UNL     1     -39.853  51.657 -53.219  1.00  0.00     0.041 A 
HETATM   16 CL   UNL     1     -39.907  52.679 -54.611  1.00  0.00    -0.084 Cl
HETATM   17  C   UNL     1     -39.635  50.292 -53.430  1.00  0.00     0.024 A 
HETATM   18  C   UNL     1     -39.580  49.412 -52.350  1.00  0.00     0.002 A 
HETATM   19  C   UNL     1     -39.739  49.896 -51.054  1.00  0.00     0.001 A 
HETATM   20  C   UNL     1     -39.955  51.259 -50.839  1.00  0.00     0.009 A 
ENDBRANCH  13  14
ENDBRANCH  12  13
ENDBRANCH   7  12
BRANCH   9  21
HETATM   21  C   UNL     1     -43.014  58.481 -54.675  1.00  0.00     0.032 A 
HETATM   22  C   UNL     1     -44.404  58.598 -54.513  1.00  0.00     0.045 A 
HETATM   23 CL   UNL     1     -45.517  57.426 -55.120  1.00  0.00    -0.084 Cl
HETATM   24  C   UNL     1     -44.958  59.696 -53.837  1.00  0.00     0.024 A 
HETATM   25  C   UNL     1     -44.139  60.690 -53.307  1.00  0.00     0.005 A 
HETATM   26  C   UNL     1     -42.761  60.590 -53.454  1.00  0.00     0.043 A 
HETATM   27  C   UNL     1     -42.218  59.500 -54.129  1.00  0.00     0.126 A 
HETATM   28  F   UNL     1     -40.883  59.443 -54.260  1.00  0.00    -0.205 F 
ENDBRANCH   9  21
BRANCH  10  29
HETATM   29  C   UNL     1     -42.508  58.229 -57.744  1.00  0.00     0.293 C 
HETATM   30  O   UNL     1     -41.475  58.429 -58.361  1.00  0.00    -0.259 OA
BRANCH  29  31
HETATM   31  O   UNL     1     -43.650  58.952 -57.852  1.00  0.00    -0.323 OA
HETATM   32  C   UNL     1     -44.027  59.246 -59.198  1.00  0.00     0.213 C 
ENDBRANCH  29  31
ENDBRANCH  10  29
TORSDOF 6
ENDMDL
MODEL 3
REMARK VINA RESULT:      -8.1      3.464      4.345
REMARK  6 active torsions:
REMARK  status: ('A' for Active; 'I' for Inactive)
REMARK    1  A    between atoms: C_7  and  S_8 
REMARK    2  A    between atoms: S_8  and  C_9 
REMARK    3  A    between atoms: C_9  and  C_10 
REMARK    4  A    between atoms: C_18  and  C_19 
REMARK    5  A    between atoms: C_27  and  C_28 
REMARK    6  A    between atoms: C_28  and  O_29 
ROOT
HETATM    1  C   UNL     1     -44.400  55.299 -60.096  1.00  0.00     0.070 C 
HETATM    2  C   UNL     1     -43.677  55.986 -58.964  1.00  0.00     0.037 A 
HETATM    3  N   UNL     1     -43.520  55.231 -57.807  1.00  0.00    -0.192 N 
HETATM    4  C   UNL     1     -42.904  55.687 -56.701  1.00  0.00     0.726 A 
HETATM    5  N   UNL     1     -42.446  56.975 -56.673  1.00  0.00    -0.082 N 
HETATM    6  N   UNL     1     -41.816  57.245 -55.512  1.00  0.00    -0.128 NA
HETATM    7  C   UNL     1     -41.969  56.082 -54.867  1.00  0.00     0.226 A 
HETATM    8  N   UNL     1     -42.630  55.100 -55.565  1.00  0.00    -0.035 NA
HETATM    9  C   UNL     1     -42.557  57.916 -57.796  1.00  0.00     0.208 A 
HETATM   10  C   UNL     1     -43.213  57.261 -59.008  1.00  0.00     0.070 A 
HETATM   11  H   UNL     1     -43.867  54.275 -57.816  1.00  0.00     0.184 HD
ENDROOT
BRANCH   7  12
HETATM   12  S   UNL     1     -41.356  55.866 -53.251  1.00  0.00    -0.083 SA
BRANCH  12  13
HETATM   13  C   UNL     1     -42.130  54.279 -52.837  1.00  0.00     0.123 C 
BRANCH  13  14
HETATM   14  C   UNL     1     -41.158  53.129 -52.965  1.00  0.00    -0.027 A 
HETATM   15  C   UNL     1     -40.302  52.736 -51.923  1.00  0.00     0.041 A 
HETATM   16 CL   UNL     1     -40.281  53.549 -50.398  1.00  0.00    -0.084 Cl
HETATM   17  C   UNL     1     -39.424  51.660 -52.091  1.00  0.00     0.024 A 
HETATM   18  C   UNL     1     -39.391  50.961 -53.296  1.00  0.00     0.002 A 
HETATM   19  C   UNL     1     -40.239  51.332 -54.336  1.00  0.00     0.001 A 
HETATM   20  C   UNL     1     -41.118  52.404 -54.171  1.00  0.00     0.009 A 
ENDBRANCH  13  14
ENDBRANCH  12  13
ENDBRANCH   7  12
BRANCH   9  21
HETATM   21  C   UNL     1     -43.179  59.219 -57.323  1.00  0.00     0.032 A 
HETATM   22  C   UNL     1     -44.491  59.360 -56.842  1.00  0.00     0.045 A 
HETATM   23 CL   UNL     1     -45.593  58.035 -56.734  1.00  0.00    -0.084 Cl
HETATM   24  C   UNL     1     -44.970  60.609 -56.419  1.00  0.00     0.024 A 
HETATM   25  C   UNL     1     -44.151  61.736 -56.463  1.00  0.00     0.005 A 
HETATM   26  C   UNL     1     -42.850  61.616 -56.934  1.00  0.00     0.043 A 
HETATM   27  C   UNL     1     -42.381  60.374 -57.355  1.00  0.00     0.126 A 
HETATM   28  F   UNL     1     -41.122  60.299 -57.813  1.00  0.00    -0.205 F 
ENDBRANCH   9  21
BRANCH  10  29
HETATM   29  C   UNL     1     -43.246  58.089 -60.232  1.00  0.00     0.293 C 
HETATM   30  O   UNL     1     -44.264  58.562 -60.708  1.00  0.00    -0.259 OA
BRANCH  29  31
HETATM   31  O   UNL     1     -41.984  58.306 -60.681  1.00  0.00    -0.323 OA
HETATM   32  C   UNL     1     -41.735  59.652 -61.085  1.00  0.00     0.213 C 
ENDBRANCH  29  31
ENDBRANCH  10  29
TORSDOF 6
ENDMDL
MODEL 4
REMARK VINA RESULT:      -8.0      2.337      3.056
REMARK  6 active torsions:
REMARK  status: ('A' for Active; 'I' for Inactive)
REMARK    1  A    between atoms: C_7  and  S_8 
REMARK    2  A    between atoms: S_8  and  C_9 
REMARK    3  A    between atoms: C_9  and  C_10 
REMARK    4  A    between atoms: C_18  and  C_19 
REMARK    5  A    between atoms: C_27  and  C_28 
REMARK    6  A    between atoms: C_28  and  O_29 
ROOT
HETATM    1  C   UNL     1     -42.540  58.644 -59.908  1.00  0.00     0.070 C 
HETATM    2  C   UNL     1     -42.447  58.308 -58.440  1.00  0.00     0.037 A 
HETATM    3  N   UNL     1     -42.558  56.958 -58.126  1.00  0.00    -0.192 N 
HETATM    4  C   UNL     1     -42.503  56.482 -56.869  1.00  0.00     0.726 A 
HETATM    5  N   UNL     1     -42.382  57.358 -55.826  1.00  0.00    -0.082 N 
HETATM    6  N   UNL     1     -42.292  56.708 -54.649  1.00  0.00    -0.128 NA
HETATM    7  C   UNL     1     -42.409  55.438 -55.054  1.00  0.00     0.226 A 
HETATM    8  N   UNL     1     -42.537  55.258 -56.410  1.00  0.00    -0.035 NA
HETATM    9  C   UNL     1     -42.282  58.817 -55.979  1.00  0.00     0.208 A 
HETATM   10  C   UNL     1     -42.293  59.223 -57.449  1.00  0.00     0.070 A 
HETATM   11  H   UNL     1     -42.659  56.301 -58.895  1.00  0.00     0.184 HD
ENDROOT
BRANCH   7  12
HETATM   12  S   UNL     1     -42.393  54.126 -53.908  1.00  0.00    -0.083 SA
BRANCH  12  13
HETATM   13  C   UNL     1     -40.602  53.910 -53.712  1.00  0.00     0.123 C 
BRANCH  13  14
HETATM   14  C   UNL     1     -40.243  52.479 -53.382  1.00  0.00    -0.027 A 
HETATM   15  C   UNL     1     -39.828  52.073 -52.103  1.00  0.00     0.041 A 
HETATM   16 CL   UNL     1     -39.682  53.187 -50.791  1.00  0.00    -0.084 Cl
HETATM   17  C   UNL     1     -39.513  50.734 -51.850  1.00  0.00     0.024 A 
HETATM   18  C   UNL     1     -39.610  49.784 -52.865  1.00  0.00     0.002 A 
HETATM   19  C   UNL     1     -40.028  50.168 -54.135  1.00  0.00     0.001 A 
HETATM   20  C   UNL     1     -40.346  51.504 -54.392  1.00  0.00     0.009 A 
ENDBRANCH  13  14
ENDBRANCH  12  13
ENDBRANCH   7  12
BRANCH   9  21
HETATM   21  C   UNL     1     -43.305  59.505 -55.090  1.00  0.00     0.032 A 
HETATM   22  C   UNL     1     -44.695  59.473 -55.283  1.00  0.00     0.045 A 
HETATM   23 CL   UNL     1     -45.436  58.635 -56.599  1.00  0.00    -0.084 Cl
HETATM   24  C   UNL     1     -45.558  60.135 -54.397  1.00  0.00     0.024 A 
HETATM   25  C   UNL     1     -45.053  60.833 -53.302  1.00  0.00     0.005 A 
HETATM   26  C   UNL     1     -43.680  60.873 -53.093  1.00  0.00     0.043 A 
HETATM   27  C   UNL     1     -42.829  60.217 -53.977  1.00  0.00     0.126 A 
HETATM   28  F   UNL     1     -41.509  60.286 -53.747  1.00  0.00    -0.205 F 
ENDBRANCH   9  21
BRANCH  10  29
HETATM   29  C   UNL     1     -42.060  60.660 -57.708  1.00  0.00     0.293 C 
HETATM   30  O   UNL     1     -42.949  61.493 -57.771  1.00  0.00    -0.259 OA
BRANCH  29  31
HETATM   31  O   UNL     1     -40.729  60.911 -57.778  1.00  0.00    -0.323 OA
HETATM   32  C   UNL     1     -40.396  62.070 -58.542  1.00  0.00     0.213 C 
ENDBRANCH  29  31
ENDBRANCH  10  29
TORSDOF 6
ENDMDL
MODEL 5
REMARK VINA RESULT:      -7.9      2.003      2.866
REMARK  6 active torsions:
REMARK  status: ('A' for Active; 'I' for Inactive)
REMARK    1  A    between atoms: C_7  and  S_8 
REMARK    2  A    between atoms: S_8  and  C_9 
REMARK    3  A    between atoms: C_9  and  C_10 
REMARK    4  A    between atoms: C_18  and  C_19 
REMARK    5  A    between atoms: C_27  and  C_28 
REMARK    6  A    between atoms: C_28  and  O_29 
ROOT
HETATM    1  C   UNL     1     -44.759  58.267 -56.528  1.00  0.00     0.070 C 
HETATM    2  C   UNL     1     -43.560  57.706 -55.804  1.00  0.00     0.037 A 
HETATM    3  N   UNL     1     -43.439  56.321 -55.829  1.00  0.00    -0.192 N 
HETATM    4  C   UNL     1     -42.436  55.654 -55.231  1.00  0.00     0.726 A 
HETATM    5  N   UNL     1     -41.502  56.349 -54.514  1.00  0.00    -0.082 N 
HETATM    6  N   UNL     1     -40.548  55.530 -54.028  1.00  0.00    -0.128 NA
HETATM    7  C   UNL     1     -40.993  54.343 -54.458  1.00  0.00     0.226 A 
HETATM    8  N   UNL     1     -42.148  54.378 -55.202  1.00  0.00    -0.035 NA
HETATM    9  C   UNL     1     -41.499  57.811 -54.361  1.00  0.00     0.208 A 
HETATM   10  C   UNL     1     -42.645  58.454 -55.135  1.00  0.00     0.070 A 
HETATM   11  H   UNL     1     -44.135  55.796 -56.351  1.00  0.00     0.184 HD
ENDROOT
BRANCH   7  12
HETATM   12  S   UNL     1     -40.138  52.874 -54.079  1.00  0.00    -0.083 SA
BRANCH  12  13
HETATM   13  C   UNL     1     -41.101  52.316 -52.648  1.00  0.00     0.123 C 
BRANCH  13  14
HETATM   14  C   UNL     1     -40.997  53.281 -51.490  1.00  0.00    -0.027 A 
HETATM   15  C   UNL     1     -42.094  54.015 -51.009  1.00  0.00     0.041 A 
HETATM   16 CL   UNL     1     -43.665  53.885 -51.717  1.00  0.00    -0.084 Cl
HETATM   17  C   UNL     1     -41.945  54.892 -49.929  1.00  0.00     0.024 A 
HETATM   18  C   UNL     1     -40.704  55.044 -49.312  1.00  0.00     0.002 A 
HETATM   19  C   UNL     1     -39.610  54.316 -49.770  1.00  0.00     0.001 A 
HETATM   20  C   UNL     1     -39.755  53.439 -50.847  1.00  0.00     0.009 A 
ENDBRANCH  13  14
ENDBRANCH  12  13
ENDBRANCH   7  12
BRANCH   9  21
HETATM   21  C   UNL     1     -41.397  58.180 -52.890  1.00  0.00     0.032 A 
HETATM   22  C   UNL     1     -42.422  58.020 -51.945  1.00  0.00     0.045 A 
HETATM   23 CL   UNL     1     -43.973  57.375 -52.348  1.00  0.00    -0.084 Cl
HETATM   24  C   UNL     1     -42.225  58.384 -50.604  1.00  0.00     0.024 A 
HETATM   25  C   UNL     1     -41.005  58.908 -50.182  1.00  0.00     0.005 A 
HETATM   26  C   UNL     1     -39.978  59.071 -51.103  1.00  0.00     0.043 A 
HETATM   27  C   UNL     1     -40.181  58.711 -52.432  1.00  0.00     0.126 A 
HETATM   28  F   UNL     1     -39.168  58.892 -53.294  1.00  0.00    -0.205 F 
ENDBRANCH   9  21
BRANCH  10  29
HETATM   29  C   UNL     1     -42.644  59.932 -55.152  1.00  0.00     0.293 C 
HETATM   30  O   UNL     1     -43.275  60.623 -54.369  1.00  0.00    -0.259 OA
BRANCH  29  31
HETATM   31  O   UNL     1     -41.784  60.386 -56.098  1.00  0.00    -0.323 OA
HETATM   32  C   UNL     1     -42.362  61.325 -57.005  1.00  0.00     0.213 C 
ENDBRANCH  29  31
ENDBRANCH  10  29
TORSDOF 6
ENDMDL
MODEL 6
REMARK VINA RESULT:      -7.7      3.624      6.950
REMARK  6 active torsions:
REMARK  status: ('A' for Active; 'I' for Inactive)
REMARK    1  A    between atoms: C_7  and  S_8 
REMARK    2  A    between atoms: S_8  and  C_9 
REMARK    3  A    between atoms: C_9  and  C_10 
REMARK    4  A    between atoms: C_18  and  C_19 
REMARK    5  A    between atoms: C_27  and  C_28 
REMARK    6  A    between atoms: C_28  and  O_29 
ROOT
HETATM    1  C   UNL     1     -40.273  53.555 -54.695  1.00  0.00     0.070 C 
HETATM    2  C   UNL     1     -41.218  54.731 -54.705  1.00  0.00     0.037 A 
HETATM    3  N   UNL     1     -41.405  55.338 -55.942  1.00  0.00    -0.192 N 
HETATM    4  C   UNL     1     -42.208  56.401 -56.133  1.00  0.00     0.726 A 
HETATM    5  N   UNL     1     -42.844  56.961 -55.059  1.00  0.00    -0.082 N 
HETATM    6  N   UNL     1     -43.641  57.979 -55.440  1.00  0.00    -0.128 NA
HETATM    7  C   UNL     1     -43.405  58.006 -56.757  1.00  0.00     0.226 A 
HETATM    8  N   UNL     1     -42.533  57.051 -57.220  1.00  0.00    -0.035 NA
HETATM    9  C   UNL     1     -42.732  56.463 -53.681  1.00  0.00     0.208 A 
HETATM   10  C   UNL     1     -41.848  55.222 -53.608  1.00  0.00     0.070 A 
HETATM   11  H   UNL     1     -40.928  54.935 -56.743  1.00  0.00     0.184 HD
ENDROOT
BRANCH   7  12
HETATM   12  S   UNL     1     -44.172  59.186 -57.782  1.00  0.00    -0.083 SA
BRANCH  12  13
HETATM   13  C   UNL     1     -43.820  58.459 -59.406  1.00  0.00     0.123 C 
BRANCH  13  14
HETATM   14  C   UNL     1     -45.028  57.755 -59.980  1.00  0.00    -0.027 A 
HETATM   15  C   UNL     1     -45.055  56.374 -60.233  1.00  0.00     0.041 A 
HETATM   16 CL   UNL     1     -43.694  55.357 -59.919  1.00  0.00    -0.084 Cl
HETATM   17  C   UNL     1     -46.203  55.770 -60.759  1.00  0.00     0.024 A 
HETATM   18  C   UNL     1     -47.336  56.533 -61.035  1.00  0.00     0.002 A 
HETATM   19  C   UNL     1     -47.328  57.902 -60.781  1.00  0.00     0.001 A 
HETATM   20  C   UNL     1     -46.186  58.508 -60.254  1.00  0.00     0.009 A 
ENDBRANCH  13  14
ENDBRANCH  12  13
ENDBRANCH   7  12
BRANCH   9  21
HETATM   21  C   UNL     1     -42.362  57.602 -52.745  1.00  0.00     0.032 A 
HETATM   22  C   UNL     1     -43.223  58.182 -51.800  1.00  0.00     0.045 A 
HETATM   23 CL   UNL     1     -44.857  57.667 -51.584  1.00  0.00    -0.084 Cl
HETATM   24  C   UNL     1     -42.781  59.226 -50.973  1.00  0.00     0.024 A 
HETATM   25  C   UNL     1     -41.477  59.706 -51.069  1.00  0.00     0.005 A 
HETATM   26  C   UNL     1     -40.610  59.142 -51.997  1.00  0.00     0.043 A 
HETATM   27  C   UNL     1     -41.055  58.108 -52.817  1.00  0.00     0.126 A 
HETATM   28  F   UNL     1     -40.191  57.596 -53.707  1.00  0.00    -0.205 F 
ENDBRANCH   9  21
BRANCH  10  29
HETATM   29  C   UNL     1     -41.785  54.570 -52.283  1.00  0.00     0.293 C 
HETATM   30  O   UNL     1     -40.851  54.690 -51.508  1.00  0.00    -0.259 OA
BRANCH  29  31
HETATM   31  O   UNL     1     -42.941  53.903 -52.037  1.00  0.00    -0.323 OA
HETATM   32  C   UNL     1     -43.617  54.330 -50.854  1.00  0.00     0.213 C 
ENDBRANCH  29  31
ENDBRANCH  10  29
TORSDOF 6
ENDMDL
MODEL 7
REMARK VINA RESULT:      -7.7      3.811      5.953
REMARK  6 active torsions:
REMARK  status: ('A' for Active; 'I' for Inactive)
REMARK    1  A    between atoms: C_7  and  S_8 
REMARK    2  A    between atoms: S_8  and  C_9 
REMARK    3  A    between atoms: C_9  and  C_10 
REMARK    4  A    between atoms: C_18  and  C_19 
REMARK    5  A    between atoms: C_27  and  C_28 
REMARK    6  A    between atoms: C_28  and  O_29 
ROOT
HETATM    1  C   UNL     1     -41.348  60.795 -58.439  1.00  0.00     0.070 C 
HETATM    2  C   UNL     1     -42.273  59.710 -57.945  1.00  0.00     0.037 A 
HETATM    3  N   UNL     1     -41.746  58.872 -56.969  1.00  0.00    -0.192 N 
HETATM    4  C   UNL     1     -42.429  57.851 -56.421  1.00  0.00     0.726 A 
HETATM    5  N   UNL     1     -43.691  57.573 -56.868  1.00  0.00    -0.082 N 
HETATM    6  N   UNL     1     -44.241  56.554 -56.177  1.00  0.00    -0.128 NA
HETATM    7  C   UNL     1     -43.235  56.237 -55.353  1.00  0.00     0.226 A 
HETATM    8  N   UNL     1     -42.107  57.012 -55.471  1.00  0.00    -0.035 NA
HETATM    9  C   UNL     1     -44.384  58.339 -57.913  1.00  0.00     0.208 A 
HETATM   10  C   UNL     1     -43.533  59.504 -58.406  1.00  0.00     0.070 A 
HETATM   11  H   UNL     1     -40.804  59.066 -56.639  1.00  0.00     0.184 HD
ENDROOT
BRANCH   7  12
HETATM   12  S   UNL     1     -43.386  54.923 -54.220  1.00  0.00    -0.083 SA
BRANCH  12  13
HETATM   13  C   UNL     1     -41.838  55.133 -53.297  1.00  0.00     0.123 C 
BRANCH  13  14
HETATM   14  C   UNL     1     -41.068  53.837 -53.189  1.00  0.00    -0.027 A 
HETATM   15  C   UNL     1     -40.425  53.429 -52.010  1.00  0.00     0.041 A 
HETATM   16 CL   UNL     1     -40.449  54.389 -50.573  1.00  0.00    -0.084 Cl
HETATM   17  C   UNL     1     -39.731  52.216 -51.961  1.00  0.00     0.024 A 
HETATM   18  C   UNL     1     -39.672  51.393 -53.085  1.00  0.00     0.002 A 
HETATM   19  C   UNL     1     -40.312  51.779 -54.260  1.00  0.00     0.001 A 
HETATM   20  C   UNL     1     -41.008  52.989 -54.311  1.00  0.00     0.009 A 
ENDBRANCH  13  14
ENDBRANCH  12  13
ENDBRANCH   7  12
BRANCH   9  21
HETATM   21  C   UNL     1     -44.913  57.398 -58.984  1.00  0.00     0.032 A 
HETATM   22  C   UNL     1     -44.117  56.601 -59.822  1.00  0.00     0.045 A 
HETATM   23 CL   UNL     1     -42.392  56.598 -59.747  1.00  0.00    -0.084 Cl
HETATM   24  C   UNL     1     -44.703  55.756 -60.777  1.00  0.00     0.024 A 
HETATM   25  C   UNL     1     -46.089  55.686 -60.908  1.00  0.00     0.005 A 
HETATM   26  C   UNL     1     -46.892  56.465 -60.085  1.00  0.00     0.043 A 
HETATM   27  C   UNL     1     -46.304  57.304 -59.142  1.00  0.00     0.126 A 
HETATM   28  F   UNL     1     -47.113  58.048 -58.372  1.00  0.00    -0.205 F 
ENDBRANCH   9  21
BRANCH  10  29
HETATM   29  C   UNL     1     -44.200  60.413 -59.361  1.00  0.00     0.293 C 
HETATM   30  O   UNL     1     -44.066  60.348 -60.572  1.00  0.00    -0.259 OA
BRANCH  29  31
HETATM   31  O   UNL     1     -45.033  61.255 -58.699  1.00  0.00    -0.323 OA
HETATM   32  C   UNL     1     -46.366  61.276 -59.211  1.00  0.00     0.213 C 
ENDBRANCH  29  31
ENDBRANCH  10  29
TORSDOF 6
ENDMDL
MODEL 8
REMARK VINA RESULT:      -7.6      2.552      3.478
REMARK  6 active torsions:
REMARK  status: ('A' for Active; 'I' for Inactive)
REMARK    1  A    between atoms: C_7  and  S_8 
REMARK    2  A    between atoms: S_8  and  C_9 
REMARK    3  A    between atoms: C_9  and  C_10 
REMARK    4  A    between atoms: C_18  and  C_19 
REMARK    5  A    between atoms: C_27  and  C_28 
REMARK    6  A    between atoms: C_28  and  O_29 
ROOT
HETATM    1  C   UNL     1     -43.581  58.580 -59.525  1.00  0.00     0.070 C 
HETATM    2  C   UNL     1     -43.115  58.118 -58.166  1.00  0.00     0.037 A 
HETATM    3  N   UNL     1     -43.144  56.743 -57.959  1.00  0.00    -0.192 N 
HETATM    4  C   UNL     1     -42.769  56.159 -56.807  1.00  0.00     0.726 A 
HETATM    5  N   UNL     1     -42.384  56.942 -55.754  1.00  0.00    -0.082 N 
HETATM    6  N   UNL     1     -41.996  56.191 -54.703  1.00  0.00    -0.128 NA
HETATM    7  C   UNL     1     -42.214  54.960 -55.179  1.00  0.00     0.226 A 
HETATM    8  N   UNL     1     -42.686  54.899 -56.468  1.00  0.00    -0.035 NA
HETATM    9  C   UNL     1     -42.324  58.409 -55.794  1.00  0.00     0.208 A 
HETATM   10  C   UNL     1     -42.710  58.945 -57.169  1.00  0.00     0.070 A 
HETATM   11  H   UNL     1     -43.439  56.155 -58.734  1.00  0.00     0.184 HD
ENDROOT
BRANCH   7  12
HETATM   12  S   UNL     1     -41.907  53.552 -54.200  1.00  0.00    -0.083 SA
BRANCH  12  13
HETATM   13  C   UNL     1     -42.829  54.008 -52.706  1.00  0.00     0.123 C 
BRANCH  13  14
HETATM   14  C   UNL     1     -41.910  54.250 -51.531  1.00  0.00    -0.027 A 
HETATM   15  C   UNL     1     -41.950  55.423 -50.761  1.00  0.00     0.041 A 
HETATM   16 CL   UNL     1     -43.054  56.707 -51.104  1.00  0.00    -0.084 Cl
HETATM   17  C   UNL     1     -41.081  55.594 -49.678  1.00  0.00     0.024 A 
HETATM   18  C   UNL     1     -40.165  54.597 -49.347  1.00  0.00     0.002 A 
HETATM   19  C   UNL     1     -40.119  53.423 -50.094  1.00  0.00     0.001 A 
HETATM   20  C   UNL     1     -40.986  53.248 -51.174  1.00  0.00     0.009 A 
ENDBRANCH  13  14
ENDBRANCH  12  13
ENDBRANCH   7  12
BRANCH   9  21
HETATM   21  C   UNL     1     -43.083  58.993 -54.613  1.00  0.00     0.032 A 
HETATM   22  C   UNL     1     -44.471  58.903 -54.421  1.00  0.00     0.045 A 
HETATM   23 CL   UNL     1     -45.519  58.106 -55.539  1.00  0.00    -0.084 Cl
HETATM   24  C   UNL     1     -45.078  59.469 -53.289  1.00  0.00     0.024 A 
HETATM   25  C   UNL     1     -44.313  60.127 -52.329  1.00  0.00     0.005 A 
HETATM   26  C   UNL     1     -42.938  60.224 -52.500  1.00  0.00     0.043 A 
HETATM   27  C   UNL     1     -42.343  59.663 -53.626  1.00  0.00     0.126 A 
HETATM   28  F   UNL     1     -41.013  59.785 -53.761  1.00  0.00    -0.205 F 
ENDBRANCH   9  21
BRANCH  10  29
HETATM   29  C   UNL     1     -42.550  60.403 -57.346  1.00  0.00     0.293 C 
HETATM   30  O   UNL     1     -43.479  61.195 -57.356  1.00  0.00    -0.259 OA
BRANCH  29  31
HETATM   31  O   UNL     1     -41.233  60.723 -57.406  1.00  0.00    -0.323 OA
HETATM   32  C   UNL     1     -40.920  61.711 -58.388  1.00  0.00     0.213 C 
ENDBRANCH  29  31
ENDBRANCH  10  29
TORSDOF 6
ENDMDL
MODEL 9
REMARK VINA RESULT:      -7.5      3.692      5.974
REMARK  6 active torsions:
REMARK  status: ('A' for Active; 'I' for Inactive)
REMARK    1  A    between atoms: C_7  and  S_8 
REMARK    2  A    between atoms: S_8  and  C_9 
REMARK    3  A    between atoms: C_9  and  C_10 
REMARK    4  A    between atoms: C_18  and  C_19 
REMARK    5  A    between atoms: C_27  and  C_28 
REMARK    6  A    between atoms: C_28  and  O_29 
ROOT
HETATM    1  C   UNL     1     -47.775  60.354 -57.753  1.00  0.00     0.070 C 
HETATM    2  C   UNL     1     -46.720  59.345 -57.375  1.00  0.00     0.037 A 
HETATM    3  N   UNL     1     -46.233  59.445 -56.077  1.00  0.00    -0.192 N 
HETATM    4  C   UNL     1     -45.288  58.630 -55.574  1.00  0.00     0.726 A 
HETATM    5  N   UNL     1     -44.726  57.679 -56.380  1.00  0.00    -0.082 N 
HETATM    6  N   UNL     1     -43.839  56.924 -55.702  1.00  0.00    -0.128 NA
HETATM    7  C   UNL     1     -43.883  57.506 -54.497  1.00  0.00     0.226 A 
HETATM    8  N   UNL     1     -44.763  58.555 -54.379  1.00  0.00    -0.035 NA
HETATM    9  C   UNL     1     -45.104  57.457 -57.783  1.00  0.00     0.208 A 
HETATM   10  C   UNL     1     -46.225  58.398 -58.213  1.00  0.00     0.070 A 
HETATM   11  H   UNL     1     -46.638  60.156 -55.474  1.00  0.00     0.184 HD
ENDROOT
BRANCH   7  12
HETATM   12  S   UNL     1     -42.880  56.941 -53.191  1.00  0.00    -0.083 SA
BRANCH  12  13
HETATM   13  C   UNL     1     -43.436  55.217 -53.097  1.00  0.00     0.123 C 
BRANCH  13  14
HETATM   14  C   UNL     1     -42.274  54.251 -53.093  1.00  0.00    -0.027 A 
HETATM   15  C   UNL     1     -41.600  53.875 -51.920  1.00  0.00     0.041 A 
HETATM   16 CL   UNL     1     -42.038  54.501 -50.370  1.00  0.00    -0.084 Cl
HETATM   17  C   UNL     1     -40.533  52.971 -51.971  1.00  0.00     0.024 A 
HETATM   18  C   UNL     1     -40.129  52.428 -53.189  1.00  0.00     0.002 A 
HETATM   19  C   UNL     1     -40.793  52.784 -54.360  1.00  0.00     0.001 A 
HETATM   20  C   UNL     1     -41.859  53.684 -54.313  1.00  0.00     0.009 A 
ENDBRANCH  13  14
ENDBRANCH  12  13
ENDBRANCH   7  12
BRANCH   9  21
HETATM   21  C   UNL     1     -43.863  57.454 -58.661  1.00  0.00     0.032 A 
HETATM   22  C   UNL     1     -43.390  56.349 -59.386  1.00  0.00     0.045 A 
HETATM   23 CL   UNL     1     -44.174  54.811 -59.362  1.00  0.00    -0.084 Cl
HETATM   24  C   UNL     1     -42.236  56.451 -60.178  1.00  0.00     0.024 A 
HETATM   25  C   UNL     1     -41.538  57.654 -60.265  1.00  0.00     0.005 A 
HETATM   26  C   UNL     1     -41.993  58.759 -59.557  1.00  0.00     0.043 A 
HETATM   27  C   UNL     1     -43.137  58.650 -58.771  1.00  0.00     0.126 A 
HETATM   28  F   UNL     1     -43.539  59.737 -58.094  1.00  0.00    -0.205 F 
ENDBRANCH   9  21
BRANCH  10  29
HETATM   29  C   UNL     1     -46.765  58.159 -59.567  1.00  0.00     0.293 C 
HETATM   30  O   UNL     1     -46.746  58.985 -60.464  1.00  0.00    -0.259 OA
BRANCH  29  31
HETATM   31  O   UNL     1     -47.196  56.877 -59.678  1.00  0.00    -0.323 OA
HETATM   32  C   UNL     1     -47.349  56.430 -61.025  1.00  0.00     0.213 C 
ENDBRANCH  29  31
ENDBRANCH  10  29
TORSDOF 6
ENDMDL
MODEL 10
REMARK VINA RESULT:      -7.4      3.699      7.230
REMARK  6 active torsions:
REMARK  status: ('A' for Active; 'I' for Inactive)
REMARK    1  A    between atoms: C_7  and  S_8 
REMARK    2  A    between atoms: S_8  and  C_9 
REMARK    3  A    between atoms: C_9  and  C_10 
REMARK    4  A    between atoms: C_18  and  C_19 
REMARK    5  A    between atoms: C_27  and  C_28 
REMARK    6  A    between atoms: C_28  and  O_29 
ROOT
HETATM    1  C   UNL     1     -40.857  52.596 -53.692  1.00  0.00     0.070 C 
HETATM    2  C   UNL     1     -41.644  53.835 -54.038  1.00  0.00     0.037 A 
HETATM    3  N   UNL     1     -41.728  54.132 -55.394  1.00  0.00    -0.192 N 
HETATM    4  C   UNL     1     -42.386  55.200 -55.880  1.00  0.00     0.726 A 
HETATM    5  N   UNL     1     -42.966  56.082 -55.011  1.00  0.00    -0.082 N 
HETATM    6  N   UNL     1     -43.620  57.060 -55.670  1.00  0.00    -0.128 NA
HETATM    7  C   UNL     1     -43.356  56.728 -56.939  1.00  0.00     0.226 A 
HETATM    8  N   UNL     1     -42.603  55.591 -57.109  1.00  0.00    -0.035 NA
HETATM    9  C   UNL     1     -42.946  55.935 -53.549  1.00  0.00     0.208 A 
HETATM   10  C   UNL     1     -42.228  54.656 -53.128  1.00  0.00     0.070 A 
HETATM   11  H   UNL     1     -41.291  53.487 -56.047  1.00  0.00     0.184 HD
ENDROOT
BRANCH   7  12
HETATM   12  S   UNL     1     -43.946  57.697 -58.260  1.00  0.00    -0.083 SA
BRANCH  12  13
HETATM   13  C   UNL     1     -42.422  57.855 -59.232  1.00  0.00     0.123 C 
BRANCH  13  14
HETATM   14  C   UNL     1     -42.156  59.288 -59.630  1.00  0.00    -0.027 A 
HETATM   15  C   UNL     1     -41.873  60.298 -58.697  1.00  0.00     0.041 A 
HETATM   16 CL   UNL     1     -41.817  59.987 -56.998  1.00  0.00    -0.084 Cl
HETATM   17  C   UNL     1     -41.627  61.609 -59.120  1.00  0.00     0.024 A 
HETATM   18  C   UNL     1     -41.657  61.928 -60.476  1.00  0.00     0.002 A 
HETATM   19  C   UNL     1     -41.927  60.936 -61.415  1.00  0.00     0.001 A 
HETATM   20  C   UNL     1     -42.170  59.626 -60.997  1.00  0.00     0.009 A 
ENDBRANCH  13  14
ENDBRANCH  12  13
ENDBRANCH   7  12
BRANCH   9  21
HETATM   21  C   UNL     1     -42.452  57.220 -52.904  1.00  0.00     0.032 A 
HETATM   22  C   UNL     1     -43.220  58.055 -52.077  1.00  0.00     0.045 A 
HETATM   23 CL   UNL     1     -44.869  57.723 -51.688  1.00  0.00    -0.084 Cl
HETATM   24  C   UNL     1     -42.667  59.218 -51.520  1.00  0.00     0.024 A 
HETATM   25  C   UNL     1     -41.342  59.566 -51.772  1.00  0.00     0.005 A 
HETATM   26  C   UNL     1     -40.566  58.750 -52.586  1.00  0.00     0.043 A 
HETATM   27  C   UNL     1     -41.121  57.598 -53.138  1.00  0.00     0.126 A 
HETATM   28  F   UNL     1     -40.342  56.841 -53.926  1.00  0.00    -0.205 F 
ENDBRANCH   9  21
BRANCH  10  29
HETATM   29  C   UNL     1     -42.275  54.353 -51.683  1.00  0.00     0.293 C 
HETATM   30  O   UNL     1     -41.377  54.619 -50.901  1.00  0.00    -0.259 OA
BRANCH  29  31
HETATM   31  O   UNL     1     -43.481  53.824 -51.356  1.00  0.00    -0.323 OA
HETATM   32  C   UNL     1     -44.146  54.506 -50.293  1.00  0.00     0.213 C 
ENDBRANCH  29  31
ENDBRANCH  10  29
TORSDOF 6
ENDMDL
