MODEL 1
REMARK VINA RESULT:      -8.4      0.000      0.000
REMARK  11 active torsions:
REMARK  status: ('A' for Active; 'I' for Inactive)
REMARK    1  A    between atoms: C_2  and  C_3 
REMARK    2  A    between atoms: C_3  and  C_4 
REMARK    3  A    between atoms: C_4  and  O_5 
REMARK    4  A    between atoms: O_5  and  C_6 
REMARK    5  A    between atoms: C_8  and  C_9 
REMARK       I    between atoms: C_9  and  N_10 
REMARK    6  A    between atoms: N_10  and  C_11 
REMARK    7  A    between atoms: C_11  and  N_12 
REMARK    8  A    between atoms: N_12  and  C_13 
REMARK    9  A    between atoms: C_15  and  C_16 
REMARK   10  A    between atoms: C_23  and  C_24 
REMARK   11  A    between atoms: C_27  and  O_28 
ROOT
HETATM    1  C   UNL     1     -44.213  59.511 -53.295  1.00  0.00     0.035 A 
HETATM    2  C   UNL     1     -43.534  58.313 -53.529  1.00  0.00     0.048 A 
HETATM    3  C   UNL     1     -43.690  57.201 -52.688  1.00  0.00     0.052 A 
HETATM    4  C   UNL     1     -44.555  57.310 -51.596  1.00  0.00     0.080 A 
HETATM    5  C   UNL     1     -45.304  58.472 -51.400  1.00  0.00     0.040 A 
HETATM    6  C   UNL     1     -45.148  59.566 -52.261  1.00  0.00     0.032 A 
ENDROOT
BRANCH   1   7
HETATM    7  N   UNL     1     -44.012  60.649 -54.104  1.00  0.00    -0.333 N 
HETATM    8  H   UNL     1     -43.319  61.326 -53.782  1.00  0.00     0.168 HD
BRANCH   7   9
HETATM    9  C   UNL     1     -44.461  60.862 -55.387  1.00  0.00     0.179 C 
HETATM   10  S   UNL     1     -45.616  61.952 -55.925  1.00  0.00    -0.040 SA
BRANCH   9  11
HETATM   11  N   UNL     1     -43.891  60.075 -56.362  1.00  0.00    -0.299 N 
HETATM   12  C   UNL     1     -42.556  59.921 -56.703  1.00  0.00     0.257 C 
HETATM   13  O   UNL     1     -41.619  60.099 -55.935  1.00  0.00    -0.267 OA
HETATM   14  H   UNL     1     -44.581  59.664 -56.978  1.00  0.00     0.171 HD
BRANCH  12  15
HETATM   15  C   UNL     1     -42.352  59.385 -58.074  1.00  0.00     0.035 A 
HETATM   16  C   UNL     1     -42.440  58.005 -58.295  1.00  0.00     0.053 A 
HETATM   17  C   UNL     1     -42.330  57.512 -59.596  1.00  0.00     0.069 A 
HETATM   18  C   UNL     1     -42.104  58.397 -60.656  1.00  0.00     0.037 A 
HETATM   19  C   UNL     1     -41.980  59.768 -60.432  1.00  0.00     0.004 A 
HETATM   20  C   UNL     1     -42.104  60.265 -59.139  1.00  0.00     0.017 A 
BRANCH  17  21
HETATM   21  O   UNL     1     -42.446  56.208 -59.980  1.00  0.00    -0.351 OA
BRANCH  21  22
HETATM   22  C   UNL     1     -43.593  55.482 -59.538  1.00  0.00     0.175 C 
BRANCH  22  23
HETATM   23  C   UNL     1     -44.570  55.371 -60.708  1.00  0.00     0.026 C 
BRANCH  23  24
HETATM   24  C   UNL     1     -45.984  55.826 -60.335  1.00  0.00    -0.002 C 
HETATM   25  C   UNL     1     -45.952  56.981 -59.347  1.00  0.00     0.005 C 
ENDBRANCH  23  24
ENDBRANCH  22  23
ENDBRANCH  21  22
ENDBRANCH  17  21
ENDBRANCH  12  15
ENDBRANCH   9  11
ENDBRANCH   7   9
ENDBRANCH   1   7
BRANCH   3  26
HETATM   26  C   UNL     1     -42.931  55.989 -52.961  1.00  0.00     0.183 A 
HETATM   27  O   UNL     1     -42.316  55.932 -54.184  1.00  0.00    -0.289 OA
HETATM   28  C   UNL     1     -41.618  54.766 -54.146  1.00  0.00     0.106 A 
HETATM   29  C   UNL     1     -41.848  54.173 -52.917  1.00  0.00     0.094 A 
HETATM   30  C   UNL     1     -40.796  54.254 -55.136  1.00  0.00     0.040 A 
HETATM   31  N   UNL     1     -42.742  54.931 -52.191  1.00  0.00    -0.221 NA
HETATM   32  C   UNL     1     -41.168  52.985 -52.610  1.00  0.00     0.041 A 
HETATM   33  C   UNL     1     -40.267  52.445 -53.558  1.00  0.00    -0.056 A 
HETATM   34  C   UNL     1     -40.122  53.069 -54.813  1.00  0.00     0.010 A 
BRANCH  33  35
HETATM   35  C   UNL     1     -39.506  51.191 -53.179  1.00  0.00     0.034 C 
HETATM   36  C   UNL     1     -39.527  50.055 -54.196  1.00  0.00     0.010 C 
ENDBRANCH  33  35
ENDBRANCH   3  26
BRANCH   4  37
HETATM   37  O   UNL     1     -44.724  56.306 -50.681  1.00  0.00    -0.360 OA
HETATM   38  H   UNL     1     -45.684  56.170 -50.546  1.00  0.00     0.217 HD
ENDBRANCH   4  37
TORSDOF 11
ENDMDL
MODEL 2
REMARK VINA RESULT:      -8.2      1.628      1.633
REMARK  11 active torsions:
REMARK  status: ('A' for Active; 'I' for Inactive)
REMARK    1  A    between atoms: C_2  and  C_3 
REMARK    2  A    between atoms: C_3  and  C_4 
REMARK    3  A    between atoms: C_4  and  O_5 
REMARK    4  A    between atoms: O_5  and  C_6 
REMARK    5  A    between atoms: C_8  and  C_9 
REMARK       I    between atoms: C_9  and  N_10 
REMARK    6  A    between atoms: N_10  and  C_11 
REMARK    7  A    between atoms: C_11  and  N_12 
REMARK    8  A    between atoms: N_12  and  C_13 
REMARK    9  A    between atoms: C_15  and  C_16 
REMARK   10  A    between atoms: C_23  and  C_24 
REMARK   11  A    between atoms: C_27  and  O_28 
ROOT
HETATM    1  C   UNL     1     -42.158  60.151 -53.161  1.00  0.00     0.035 A 
HETATM    2  C   UNL     1     -41.911  58.800 -53.418  1.00  0.00     0.048 A 
HETATM    3  C   UNL     1     -41.694  57.880 -52.381  1.00  0.00     0.052 A 
HETATM    4  C   UNL     1     -41.736  58.343 -51.064  1.00  0.00     0.080 A 
HETATM    5  C   UNL     1     -42.067  59.671 -50.790  1.00  0.00     0.040 A 
HETATM    6  C   UNL     1     -42.298  60.571 -51.838  1.00  0.00     0.032 A 
ENDROOT
BRANCH   1   7
HETATM    7  N   UNL     1     -42.317  61.088 -54.203  1.00  0.00    -0.333 N 
HETATM    8  H   UNL     1     -41.471  61.546 -54.543  1.00  0.00     0.168 HD
BRANCH   7   9
HETATM    9  C   UNL     1     -43.432  61.306 -54.980  1.00  0.00     0.179 C 
HETATM   10  S   UNL     1     -44.801  62.202 -54.618  1.00  0.00    -0.040 SA
BRANCH   9  11
HETATM   11  N   UNL     1     -43.427  60.707 -56.219  1.00  0.00    -0.299 N 
HETATM   12  C   UNL     1     -43.792  59.418 -56.577  1.00  0.00     0.257 C 
HETATM   13  O   UNL     1     -44.592  58.727 -55.962  1.00  0.00    -0.267 OA
HETATM   14  H   UNL     1     -42.967  61.275 -56.920  1.00  0.00     0.171 HD
BRANCH  12  15
HETATM   15  C   UNL     1     -43.216  58.978 -57.876  1.00  0.00     0.035 A 
HETATM   16  C   UNL     1     -43.410  57.660 -58.305  1.00  0.00     0.053 A 
HETATM   17  C   UNL     1     -42.941  57.274 -59.561  1.00  0.00     0.069 A 
HETATM   18  C   UNL     1     -42.257  58.196 -60.360  1.00  0.00     0.037 A 
HETATM   19  C   UNL     1     -42.031  59.499 -59.918  1.00  0.00     0.004 A 
HETATM   20  C   UNL     1     -42.511  59.893 -58.673  1.00  0.00     0.017 A 
BRANCH  17  21
HETATM   21  O   UNL     1     -43.097  56.048 -60.142  1.00  0.00    -0.351 OA
BRANCH  21  22
HETATM   22  C   UNL     1     -43.702  55.015 -59.366  1.00  0.00     0.175 C 
BRANCH  22  23
HETATM   23  C   UNL     1     -44.987  54.578 -60.069  1.00  0.00     0.026 C 
BRANCH  23  24
HETATM   24  C   UNL     1     -45.583  55.686 -60.942  1.00  0.00    -0.002 C 
HETATM   25  C   UNL     1     -46.923  56.159 -60.399  1.00  0.00     0.005 C 
ENDBRANCH  23  24
ENDBRANCH  22  23
ENDBRANCH  21  22
ENDBRANCH  17  21
ENDBRANCH  12  15
ENDBRANCH   9  11
ENDBRANCH   7   9
ENDBRANCH   1   7
BRANCH   3  26
HETATM   26  C   UNL     1     -41.407  56.491 -52.709  1.00  0.00     0.183 A 
HETATM   27  O   UNL     1     -41.060  56.245 -54.012  1.00  0.00    -0.289 OA
HETATM   28  C   UNL     1     -40.762  54.918 -54.026  1.00  0.00     0.106 A 
HETATM   29  C   UNL     1     -40.950  54.427 -52.746  1.00  0.00     0.094 A 
HETATM   30  C   UNL     1     -40.323  54.174 -55.108  1.00  0.00     0.040 A 
HETATM   31  N   UNL     1     -41.426  55.427 -51.925  1.00  0.00    -0.221 NA
HETATM   32  C   UNL     1     -40.630  53.085 -52.492  1.00  0.00     0.041 A 
HETATM   33  C   UNL     1     -40.117  52.290 -53.544  1.00  0.00    -0.056 A 
HETATM   34  C   UNL     1     -40.004  52.837 -54.837  1.00  0.00     0.010 A 
BRANCH  33  35
HETATM   35  C   UNL     1     -39.730  50.860 -53.228  1.00  0.00     0.034 C 
HETATM   36  C   UNL     1     -39.661  49.901 -54.412  1.00  0.00     0.010 C 
ENDBRANCH  33  35
ENDBRANCH   3  26
BRANCH   4  37
HETATM   37  O   UNL     1     -41.472  57.538 -49.987  1.00  0.00    -0.360 OA
HETATM   38  H   UNL     1     -41.036  58.080 -49.297  1.00  0.00     0.217 HD
ENDBRANCH   4  37
TORSDOF 11
ENDMDL
MODEL 3
REMARK VINA RESULT:      -8.2      1.702      1.907
REMARK  11 active torsions:
REMARK  status: ('A' for Active; 'I' for Inactive)
REMARK    1  A    between atoms: C_2  and  C_3 
REMARK    2  A    between atoms: C_3  and  C_4 
REMARK    3  A    between atoms: C_4  and  O_5 
REMARK    4  A    between atoms: O_5  and  C_6 
REMARK    5  A    between atoms: C_8  and  C_9 
REMARK       I    between atoms: C_9  and  N_10 
REMARK    6  A    between atoms: N_10  and  C_11 
REMARK    7  A    between atoms: C_11  and  N_12 
REMARK    8  A    between atoms: N_12  and  C_13 
REMARK    9  A    between atoms: C_15  and  C_16 
REMARK   10  A    between atoms: C_23  and  C_24 
REMARK   11  A    between atoms: C_27  and  O_28 
ROOT
HETATM    1  C   UNL     1     -42.256  60.244 -53.041  1.00  0.00     0.035 A 
HETATM    2  C   UNL     1     -42.001  58.897 -53.308  1.00  0.00     0.048 A 
HETATM    3  C   UNL     1     -41.723  57.982 -52.281  1.00  0.00     0.052 A 
HETATM    4  C   UNL     1     -41.711  58.446 -50.964  1.00  0.00     0.080 A 
HETATM    5  C   UNL     1     -42.049  59.770 -50.676  1.00  0.00     0.040 A 
HETATM    6  C   UNL     1     -42.341  60.665 -51.713  1.00  0.00     0.032 A 
ENDROOT
BRANCH   1   7
HETATM    7  N   UNL     1     -42.476  61.178 -54.075  1.00  0.00    -0.333 N 
HETATM    8  H   UNL     1     -41.673  61.729 -54.376  1.00  0.00     0.168 HD
BRANCH   7   9
HETATM    9  C   UNL     1     -43.579  61.288 -54.892  1.00  0.00     0.179 C 
HETATM   10  S   UNL     1     -44.936  62.251 -54.692  1.00  0.00    -0.040 SA
BRANCH   9  11
HETATM   11  N   UNL     1     -43.571  60.502 -56.022  1.00  0.00    -0.299 N 
HETATM   12  C   UNL     1     -42.531  60.222 -56.894  1.00  0.00     0.257 C 
HETATM   13  O   UNL     1     -41.346  60.248 -56.592  1.00  0.00    -0.267 OA
HETATM   14  H   UNL     1     -44.501  60.208 -56.292  1.00  0.00     0.171 HD
BRANCH  12  15
HETATM   15  C   UNL     1     -42.987  59.749 -58.228  1.00  0.00     0.035 A 
HETATM   16  C   UNL     1     -44.254  59.168 -58.358  1.00  0.00     0.053 A 
HETATM   17  C   UNL     1     -44.712  58.801 -59.623  1.00  0.00     0.069 A 
HETATM   18  C   UNL     1     -43.890  58.989 -60.740  1.00  0.00     0.037 A 
HETATM   19  C   UNL     1     -42.613  59.533 -60.607  1.00  0.00     0.004 A 
HETATM   20  C   UNL     1     -42.159  59.915 -59.348  1.00  0.00     0.017 A 
BRANCH  17  21
HETATM   21  O   UNL     1     -45.937  58.276 -59.921  1.00  0.00    -0.351 OA
BRANCH  21  22
HETATM   22  C   UNL     1     -46.213  56.944 -59.491  1.00  0.00     0.175 C 
BRANCH  22  23
HETATM   23  C   UNL     1     -46.210  56.034 -60.719  1.00  0.00     0.026 C 
BRANCH  23  24
HETATM   24  C   UNL     1     -44.897  55.261 -60.872  1.00  0.00    -0.002 C 
HETATM   25  C   UNL     1     -44.164  55.146 -59.545  1.00  0.00     0.005 C 
ENDBRANCH  23  24
ENDBRANCH  22  23
ENDBRANCH  21  22
ENDBRANCH  17  21
ENDBRANCH  12  15
ENDBRANCH   9  11
ENDBRANCH   7   9
ENDBRANCH   1   7
BRANCH   3  26
HETATM   26  C   UNL     1     -41.431  56.597 -52.621  1.00  0.00     0.183 A 
HETATM   27  O   UNL     1     -41.120  56.357 -53.934  1.00  0.00    -0.289 OA
HETATM   28  C   UNL     1     -40.808  55.034 -53.960  1.00  0.00     0.106 A 
HETATM   29  C   UNL     1     -40.952  54.538 -52.676  1.00  0.00     0.094 A 
HETATM   30  C   UNL     1     -40.392  54.297 -55.056  1.00  0.00     0.040 A 
HETATM   31  N   UNL     1     -41.414  55.531 -51.839  1.00  0.00    -0.221 NA
HETATM   32  C   UNL     1     -40.609  53.200 -52.435  1.00  0.00     0.041 A 
HETATM   33  C   UNL     1     -40.120  52.412 -53.503  1.00  0.00    -0.056 A 
HETATM   34  C   UNL     1     -40.052  52.962 -54.798  1.00  0.00     0.010 A 
BRANCH  33  35
HETATM   35  C   UNL     1     -39.707  50.985 -53.202  1.00  0.00     0.034 C 
HETATM   36  C   UNL     1     -39.788  49.999 -54.363  1.00  0.00     0.010 C 
ENDBRANCH  33  35
ENDBRANCH   3  26
BRANCH   4  37
HETATM   37  O   UNL     1     -41.386  57.647 -49.900  1.00  0.00    -0.360 OA
HETATM   38  H   UNL     1     -40.671  57.039 -50.178  1.00  0.00     0.217 HD
ENDBRANCH   4  37
TORSDOF 11
ENDMDL
MODEL 4
REMARK VINA RESULT:      -8.2      1.519      1.833
REMARK  11 active torsions:
REMARK  status: ('A' for Active; 'I' for Inactive)
REMARK    1  A    between atoms: C_2  and  C_3 
REMARK    2  A    between atoms: C_3  and  C_4 
REMARK    3  A    between atoms: C_4  and  O_5 
REMARK    4  A    between atoms: O_5  and  C_6 
REMARK    5  A    between atoms: C_8  and  C_9 
REMARK       I    between atoms: C_9  and  N_10 
REMARK    6  A    between atoms: N_10  and  C_11 
REMARK    7  A    between atoms: C_11  and  N_12 
REMARK    8  A    between atoms: N_12  and  C_13 
REMARK    9  A    between atoms: C_15  and  C_16 
REMARK   10  A    between atoms: C_23  and  C_24 
REMARK   11  A    between atoms: C_27  and  O_28 
ROOT
HETATM    1  C   UNL     1     -43.728  58.855 -53.006  1.00  0.00     0.035 A 
HETATM    2  C   UNL     1     -43.090  57.617 -53.110  1.00  0.00     0.048 A 
HETATM    3  C   UNL     1     -42.037  57.255 -52.256  1.00  0.00     0.052 A 
HETATM    4  C   UNL     1     -41.634  58.168 -51.278  1.00  0.00     0.080 A 
HETATM    5  C   UNL     1     -42.319  59.372 -51.108  1.00  0.00     0.040 A 
HETATM    6  C   UNL     1     -43.379  59.708 -51.959  1.00  0.00     0.032 A 
ENDROOT
BRANCH   1   7
HETATM    7  N   UNL     1     -44.746  59.244 -53.902  1.00  0.00    -0.333 N 
HETATM    8  H   UNL     1     -45.707  59.158 -53.572  1.00  0.00     0.168 HD
BRANCH   7   9
HETATM    9  C   UNL     1     -44.611  59.937 -55.084  1.00  0.00     0.179 C 
HETATM   10  S   UNL     1     -45.132  61.486 -55.454  1.00  0.00    -0.040 SA
BRANCH   9  11
HETATM   11  N   UNL     1     -43.964  59.271 -56.100  1.00  0.00    -0.299 N 
HETATM   12  C   UNL     1     -42.656  59.392 -56.542  1.00  0.00     0.257 C 
HETATM   13  O   UNL     1     -41.721  59.772 -55.849  1.00  0.00    -0.267 OA
HETATM   14  H   UNL     1     -44.598  58.715 -56.661  1.00  0.00     0.171 HD
BRANCH  12  15
HETATM   15  C   UNL     1     -42.449  58.889 -57.926  1.00  0.00     0.035 A 
HETATM   16  C   UNL     1     -42.635  57.529 -58.200  1.00  0.00     0.053 A 
HETATM   17  C   UNL     1     -42.520  57.074 -59.514  1.00  0.00     0.069 A 
HETATM   18  C   UNL     1     -42.192  57.975 -60.534  1.00  0.00     0.037 A 
HETATM   19  C   UNL     1     -41.971  59.323 -60.256  1.00  0.00     0.004 A 
HETATM   20  C   UNL     1     -42.099  59.783 -58.949  1.00  0.00     0.017 A 
BRANCH  17  21
HETATM   21  O   UNL     1     -42.724  55.797 -59.949  1.00  0.00    -0.351 OA
BRANCH  21  22
HETATM   22  C   UNL     1     -43.979  55.185 -59.658  1.00  0.00     0.175 C 
BRANCH  22  23
HETATM   23  C   UNL     1     -44.892  55.364 -60.871  1.00  0.00     0.026 C 
BRANCH  23  24
HETATM   24  C   UNL     1     -46.272  55.910 -60.490  1.00  0.00    -0.002 C 
HETATM   25  C   UNL     1     -46.169  56.963 -59.397  1.00  0.00     0.005 C 
ENDBRANCH  23  24
ENDBRANCH  22  23
ENDBRANCH  21  22
ENDBRANCH  17  21
ENDBRANCH  12  15
ENDBRANCH   9  11
ENDBRANCH   7   9
ENDBRANCH   1   7
BRANCH   3  26
HETATM   26  C   UNL     1     -41.387  55.965 -52.433  1.00  0.00     0.183 A 
HETATM   27  O   UNL     1     -41.112  55.273 -51.283  1.00  0.00    -0.289 OA
HETATM   28  C   UNL     1     -40.602  54.093 -51.725  1.00  0.00     0.106 A 
HETATM   29  C   UNL     1     -40.585  54.129 -53.108  1.00  0.00     0.094 A 
HETATM   30  C   UNL     1     -40.191  53.020 -50.951  1.00  0.00     0.040 A 
HETATM   31  N   UNL     1     -41.028  55.357 -53.550  1.00  0.00    -0.221 NA
HETATM   32  C   UNL     1     -40.169  52.983 -53.801  1.00  0.00     0.041 A 
HETATM   33  C   UNL     1     -39.795  51.833 -53.066  1.00  0.00    -0.056 A 
HETATM   34  C   UNL     1     -39.781  51.882 -51.658  1.00  0.00     0.010 A 
BRANCH  33  35
HETATM   35  C   UNL     1     -39.400  50.593 -53.842  1.00  0.00     0.034 C 
HETATM   36  C   UNL     1     -40.527  49.865 -54.569  1.00  0.00     0.010 C 
ENDBRANCH  33  35
ENDBRANCH   3  26
BRANCH   4  37
HETATM   37  O   UNL     1     -40.574  57.937 -50.442  1.00  0.00    -0.360 OA
HETATM   38  H   UNL     1     -40.503  58.689 -49.819  1.00  0.00     0.217 HD
ENDBRANCH   4  37
TORSDOF 11
ENDMDL
MODEL 5
REMARK VINA RESULT:      -8.1      1.935      2.845
REMARK  11 active torsions:
REMARK  status: ('A' for Active; 'I' for Inactive)
REMARK    1  A    between atoms: C_2  and  C_3 
REMARK    2  A    between atoms: C_3  and  C_4 
REMARK    3  A    between atoms: C_4  and  O_5 
REMARK    4  A    between atoms: O_5  and  C_6 
REMARK    5  A    between atoms: C_8  and  C_9 
REMARK       I    between atoms: C_9  and  N_10 
REMARK    6  A    between atoms: N_10  and  C_11 
REMARK    7  A    between atoms: C_11  and  N_12 
REMARK    8  A    between atoms: N_12  and  C_13 
REMARK    9  A    between atoms: C_15  and  C_16 
REMARK   10  A    between atoms: C_23  and  C_24 
REMARK   11  A    between atoms: C_27  and  O_28 
ROOT
HETATM    1  C   UNL     1     -45.210  59.209 -54.026  1.00  0.00     0.035 A 
HETATM    2  C   UNL     1     -44.461  58.040 -54.178  1.00  0.00     0.048 A 
HETATM    3  C   UNL     1     -43.970  57.330 -53.072  1.00  0.00     0.052 A 
HETATM    4  C   UNL     1     -44.254  57.816 -51.793  1.00  0.00     0.080 A 
HETATM    5  C   UNL     1     -45.074  58.933 -51.625  1.00  0.00     0.040 A 
HETATM    6  C   UNL     1     -45.569  59.619 -52.742  1.00  0.00     0.032 A 
ENDROOT
BRANCH   1   7
HETATM    7  N   UNL     1     -45.653  59.957 -55.137  1.00  0.00    -0.333 N 
HETATM    8  H   UNL     1     -46.560  60.415 -55.052  1.00  0.00     0.168 HD
BRANCH   7   9
HETATM    9  C   UNL     1     -44.925  60.340 -56.241  1.00  0.00     0.179 C 
HETATM   10  S   UNL     1     -43.486  61.196 -56.300  1.00  0.00    -0.040 SA
BRANCH   9  11
HETATM   11  N   UNL     1     -45.447  59.974 -57.461  1.00  0.00    -0.299 N 
HETATM   12  C   UNL     1     -46.769  59.918 -57.874  1.00  0.00     0.257 C 
HETATM   13  O   UNL     1     -47.674  60.592 -57.400  1.00  0.00    -0.267 OA
HETATM   14  H   UNL     1     -44.748  59.577 -58.076  1.00  0.00     0.171 HD
BRANCH  12  15
HETATM   15  C   UNL     1     -46.984  59.044 -59.057  1.00  0.00     0.035 A 
HETATM   16  C   UNL     1     -46.530  57.720 -59.029  1.00  0.00     0.053 A 
HETATM   17  C   UNL     1     -46.806  56.878 -60.107  1.00  0.00     0.069 A 
HETATM   18  C   UNL     1     -47.505  57.375 -61.213  1.00  0.00     0.037 A 
HETATM   19  C   UNL     1     -47.926  58.703 -61.258  1.00  0.00     0.004 A 
HETATM   20  C   UNL     1     -47.666  59.541 -60.178  1.00  0.00     0.017 A 
BRANCH  17  21
HETATM   21  O   UNL     1     -46.481  55.556 -60.206  1.00  0.00    -0.351 OA
BRANCH  21  22
HETATM   22  C   UNL     1     -45.244  55.219 -60.833  1.00  0.00     0.175 C 
BRANCH  22  23
HETATM   23  C   UNL     1     -44.288  54.701 -59.759  1.00  0.00     0.026 C 
BRANCH  23  24
HETATM   24  C   UNL     1     -43.183  55.707 -59.423  1.00  0.00    -0.002 C 
HETATM   25  C   UNL     1     -43.086  55.943 -57.924  1.00  0.00     0.005 C 
ENDBRANCH  23  24
ENDBRANCH  22  23
ENDBRANCH  21  22
ENDBRANCH  17  21
ENDBRANCH  12  15
ENDBRANCH   9  11
ENDBRANCH   7   9
ENDBRANCH   1   7
BRANCH   3  26
HETATM   26  C   UNL     1     -43.165  56.137 -53.290  1.00  0.00     0.183 A 
HETATM   27  O   UNL     1     -42.433  56.115 -54.449  1.00  0.00    -0.289 OA
HETATM   28  C   UNL     1     -41.720  54.961 -54.363  1.00  0.00     0.106 A 
HETATM   29  C   UNL     1     -42.056  54.340 -53.173  1.00  0.00     0.094 A 
HETATM   30  C   UNL     1     -40.795  54.482 -55.277  1.00  0.00     0.040 A 
HETATM   31  N   UNL     1     -43.031  55.068 -52.524  1.00  0.00    -0.221 NA
HETATM   32  C   UNL     1     -41.387  53.159 -52.822  1.00  0.00     0.041 A 
HETATM   33  C   UNL     1     -40.387  52.653 -53.687  1.00  0.00    -0.056 A 
HETATM   34  C   UNL     1     -40.133  53.303 -54.910  1.00  0.00     0.010 A 
BRANCH  33  35
HETATM   35  C   UNL     1     -39.643  51.405 -53.257  1.00  0.00     0.034 C 
HETATM   36  C   UNL     1     -39.712  50.216 -54.209  1.00  0.00     0.010 C 
ENDBRANCH  33  35
ENDBRANCH   3  26
BRANCH   4  37
HETATM   37  O   UNL     1     -43.765  57.233 -50.654  1.00  0.00    -0.360 OA
HETATM   38  H   UNL     1     -42.787  57.214 -50.712  1.00  0.00     0.217 HD
ENDBRANCH   4  37
TORSDOF 11
ENDMDL
MODEL 6
REMARK VINA RESULT:      -7.8      1.256      1.585
REMARK  11 active torsions:
REMARK  status: ('A' for Active; 'I' for Inactive)
REMARK    1  A    between atoms: C_2  and  C_3 
REMARK    2  A    between atoms: C_3  and  C_4 
REMARK    3  A    between atoms: C_4  and  O_5 
REMARK    4  A    between atoms: O_5  and  C_6 
REMARK    5  A    between atoms: C_8  and  C_9 
REMARK       I    between atoms: C_9  and  N_10 
REMARK    6  A    between atoms: N_10  and  C_11 
REMARK    7  A    between atoms: C_11  and  N_12 
REMARK    8  A    between atoms: N_12  and  C_13 
REMARK    9  A    between atoms: C_15  and  C_16 
REMARK   10  A    between atoms: C_23  and  C_24 
REMARK   11  A    between atoms: C_27  and  O_28 
ROOT
HETATM    1  C   UNL     1     -43.415  59.642 -52.366  1.00  0.00     0.035 A 
HETATM    2  C   UNL     1     -42.838  58.412 -52.688  1.00  0.00     0.048 A 
HETATM    3  C   UNL     1     -43.315  57.208 -52.146  1.00  0.00     0.052 A 
HETATM    4  C   UNL     1     -44.399  57.261 -51.266  1.00  0.00     0.080 A 
HETATM    5  C   UNL     1     -45.039  58.474 -51.003  1.00  0.00     0.040 A 
HETATM    6  C   UNL     1     -44.560  59.662 -51.568  1.00  0.00     0.032 A 
ENDROOT
BRANCH   1   7
HETATM    7  N   UNL     1     -42.900  60.857 -52.863  1.00  0.00    -0.333 N 
HETATM    8  H   UNL     1     -41.959  61.114 -52.565  1.00  0.00     0.168 HD
BRANCH   7   9
HETATM    9  C   UNL     1     -43.407  61.637 -53.878  1.00  0.00     0.179 C 
HETATM   10  S   UNL     1     -44.231  63.092 -53.768  1.00  0.00    -0.040 SA
BRANCH   9  11
HETATM   11  N   UNL     1     -43.216  61.159 -55.155  1.00  0.00    -0.299 N 
HETATM   12  C   UNL     1     -42.125  60.497 -55.695  1.00  0.00     0.257 C 
HETATM   13  O   UNL     1     -41.331  59.826 -55.050  1.00  0.00    -0.267 OA
HETATM   14  H   UNL     1     -43.942  61.464 -55.792  1.00  0.00     0.171 HD
BRANCH  12  15
HETATM   15  C   UNL     1     -42.068  60.561 -57.180  1.00  0.00     0.035 A 
HETATM   16  C   UNL     1     -42.282  59.398 -57.929  1.00  0.00     0.053 A 
HETATM   17  C   UNL     1     -42.310  59.478 -59.322  1.00  0.00     0.069 A 
HETATM   18  C   UNL     1     -42.095  60.709 -59.951  1.00  0.00     0.037 A 
HETATM   19  C   UNL     1     -41.846  61.861 -59.207  1.00  0.00     0.004 A 
HETATM   20  C   UNL     1     -41.832  61.789 -57.817  1.00  0.00     0.017 A 
BRANCH  17  21
HETATM   21  O   UNL     1     -42.559  58.451 -60.186  1.00  0.00    -0.351 OA
BRANCH  21  22
HETATM   22  C   UNL     1     -41.836  57.235 -60.004  1.00  0.00     0.175 C 
BRANCH  22  23
HETATM   23  C   UNL     1     -42.841  56.086 -59.925  1.00  0.00     0.026 C 
BRANCH  23  24
HETATM   24  C   UNL     1     -43.730  56.169 -58.681  1.00  0.00    -0.002 C 
HETATM   25  C   UNL     1     -43.035  55.579 -57.463  1.00  0.00     0.005 C 
ENDBRANCH  23  24
ENDBRANCH  22  23
ENDBRANCH  21  22
ENDBRANCH  17  21
ENDBRANCH  12  15
ENDBRANCH   9  11
ENDBRANCH   7   9
ENDBRANCH   1   7
BRANCH   3  26
HETATM   26  C   UNL     1     -42.653  55.959 -52.491  1.00  0.00     0.183 A 
HETATM   27  O   UNL     1     -42.195  55.862 -53.779  1.00  0.00    -0.289 OA
HETATM   28  C   UNL     1     -41.553  54.664 -53.808  1.00  0.00     0.106 A 
HETATM   29  C   UNL     1     -41.659  54.094 -52.552  1.00  0.00     0.094 A 
HETATM   30  C   UNL     1     -40.883  54.103 -54.883  1.00  0.00     0.040 A 
HETATM   31  N   UNL     1     -42.421  54.900 -51.734  1.00  0.00    -0.221 NA
HETATM   32  C   UNL     1     -41.003  52.877 -52.313  1.00  0.00     0.041 A 
HETATM   33  C   UNL     1     -40.251  52.286 -53.355  1.00  0.00    -0.056 A 
HETATM   34  C   UNL     1     -40.231  52.890 -54.627  1.00  0.00     0.010 A 
BRANCH  33  35
HETATM   35  C   UNL     1     -39.509  50.999 -53.053  1.00  0.00     0.034 C 
HETATM   36  C   UNL     1     -39.532  49.934 -54.144  1.00  0.00     0.010 C 
ENDBRANCH  33  35
ENDBRANCH   3  26
BRANCH   4  37
HETATM   37  O   UNL     1     -44.894  56.152 -50.633  1.00  0.00    -0.360 OA
HETATM   38  H   UNL     1     -45.298  56.435 -49.786  1.00  0.00     0.217 HD
ENDBRANCH   4  37
TORSDOF 11
ENDMDL
MODEL 7
REMARK VINA RESULT:      -7.8      2.160      3.682
REMARK  11 active torsions:
REMARK  status: ('A' for Active; 'I' for Inactive)
REMARK    1  A    between atoms: C_2  and  C_3 
REMARK    2  A    between atoms: C_3  and  C_4 
REMARK    3  A    between atoms: C_4  and  O_5 
REMARK    4  A    between atoms: O_5  and  C_6 
REMARK    5  A    between atoms: C_8  and  C_9 
REMARK       I    between atoms: C_9  and  N_10 
REMARK    6  A    between atoms: N_10  and  C_11 
REMARK    7  A    between atoms: C_11  and  N_12 
REMARK    8  A    between atoms: N_12  and  C_13 
REMARK    9  A    between atoms: C_15  and  C_16 
REMARK   10  A    between atoms: C_23  and  C_24 
REMARK   11  A    between atoms: C_27  and  O_28 
ROOT
HETATM    1  C   UNL     1     -45.648  60.235 -53.644  1.00  0.00     0.035 A 
HETATM    2  C   UNL     1     -44.797  59.164 -53.363  1.00  0.00     0.048 A 
HETATM    3  C   UNL     1     -44.678  58.636 -52.068  1.00  0.00     0.052 A 
HETATM    4  C   UNL     1     -45.444  59.205 -51.047  1.00  0.00     0.080 A 
HETATM    5  C   UNL     1     -46.362  60.218 -51.331  1.00  0.00     0.040 A 
HETATM    6  C   UNL     1     -46.478  60.720 -52.633  1.00  0.00     0.032 A 
ENDROOT
BRANCH   1   7
HETATM    7  N   UNL     1     -45.722  60.806 -54.932  1.00  0.00    -0.333 N 
HETATM    8  H   UNL     1     -46.607  61.243 -55.191  1.00  0.00     0.168 HD
BRANCH   7   9
HETATM    9  C   UNL     1     -44.689  61.054 -55.806  1.00  0.00     0.179 C 
HETATM   10  S   UNL     1     -43.714  62.413 -55.916  1.00  0.00    -0.040 SA
BRANCH   9  11
HETATM   11  N   UNL     1     -44.419  60.057 -56.715  1.00  0.00    -0.299 N 
HETATM   12  C   UNL     1     -45.274  59.126 -57.283  1.00  0.00     0.257 C 
HETATM   13  O   UNL     1     -46.478  59.289 -57.432  1.00  0.00    -0.267 OA
HETATM   14  H   UNL     1     -43.426  59.936 -56.871  1.00  0.00     0.171 HD
BRANCH  12  15
HETATM   15  C   UNL     1     -44.574  57.933 -57.830  1.00  0.00     0.035 A 
HETATM   16  C   UNL     1     -43.731  57.187 -56.999  1.00  0.00     0.053 A 
HETATM   17  C   UNL     1     -43.141  56.022 -57.491  1.00  0.00     0.069 A 
HETATM   18  C   UNL     1     -43.374  55.632 -58.814  1.00  0.00     0.037 A 
HETATM   19  C   UNL     1     -44.185  56.395 -59.654  1.00  0.00     0.004 A 
HETATM   20  C   UNL     1     -44.787  57.549 -59.163  1.00  0.00     0.017 A 
BRANCH  17  21
HETATM   21  O   UNL     1     -42.343  55.162 -56.793  1.00  0.00    -0.351 OA
BRANCH  21  22
HETATM   22  C   UNL     1     -42.408  55.199 -55.369  1.00  0.00     0.175 C 
BRANCH  22  23
HETATM   23  C   UNL     1     -41.004  55.477 -54.832  1.00  0.00     0.026 C 
BRANCH  23  24
HETATM   24  C   UNL     1     -40.079  54.262 -54.954  1.00  0.00    -0.002 C 
HETATM   25  C   UNL     1     -40.807  52.973 -54.606  1.00  0.00     0.005 C 
ENDBRANCH  23  24
ENDBRANCH  22  23
ENDBRANCH  21  22
ENDBRANCH  17  21
ENDBRANCH  12  15
ENDBRANCH   9  11
ENDBRANCH   7   9
ENDBRANCH   1   7
BRANCH   3  26
HETATM   26  C   UNL     1     -43.751  57.541 -51.827  1.00  0.00     0.183 A 
HETATM   27  O   UNL     1     -42.651  57.846 -51.068  1.00  0.00    -0.289 OA
HETATM   28  C   UNL     1     -42.013  56.654 -50.921  1.00  0.00     0.106 A 
HETATM   29  C   UNL     1     -42.744  55.695 -51.599  1.00  0.00     0.094 A 
HETATM   30  C   UNL     1     -40.853  56.413 -50.205  1.00  0.00     0.040 A 
HETATM   31  N   UNL     1     -43.819  56.283 -52.230  1.00  0.00    -0.221 NA
HETATM   32  C   UNL     1     -42.322  54.359 -51.527  1.00  0.00     0.041 A 
HETATM   33  C   UNL     1     -41.177  54.041 -50.759  1.00  0.00    -0.056 A 
HETATM   34  C   UNL     1     -40.446  55.073 -50.141  1.00  0.00     0.010 A 
BRANCH  33  35
HETATM   35  C   UNL     1     -40.775  52.583 -50.657  1.00  0.00     0.034 C 
HETATM   36  C   UNL     1     -39.535  52.168 -51.442  1.00  0.00     0.010 C 
ENDBRANCH  33  35
ENDBRANCH   3  26
BRANCH   4  37
HETATM   37  O   UNL     1     -45.351  58.805 -49.741  1.00  0.00    -0.360 OA
HETATM   38  H   UNL     1     -46.074  59.230 -49.236  1.00  0.00     0.217 HD
ENDBRANCH   4  37
TORSDOF 11
ENDMDL
MODEL 8
REMARK VINA RESULT:      -7.6      1.671      2.205
REMARK  11 active torsions:
REMARK  status: ('A' for Active; 'I' for Inactive)
REMARK    1  A    between atoms: C_2  and  C_3 
REMARK    2  A    between atoms: C_3  and  C_4 
REMARK    3  A    between atoms: C_4  and  O_5 
REMARK    4  A    between atoms: O_5  and  C_6 
REMARK    5  A    between atoms: C_8  and  C_9 
REMARK       I    between atoms: C_9  and  N_10 
REMARK    6  A    between atoms: N_10  and  C_11 
REMARK    7  A    between atoms: C_11  and  N_12 
REMARK    8  A    between atoms: N_12  and  C_13 
REMARK    9  A    between atoms: C_15  and  C_16 
REMARK   10  A    between atoms: C_23  and  C_24 
REMARK   11  A    between atoms: C_27  and  O_28 
ROOT
HETATM    1  C   UNL     1     -43.543  59.325 -52.144  1.00  0.00     0.035 A 
HETATM    2  C   UNL     1     -42.753  58.199 -52.386  1.00  0.00     0.048 A 
HETATM    3  C   UNL     1     -43.105  56.932 -51.897  1.00  0.00     0.052 A 
HETATM    4  C   UNL     1     -44.284  56.811 -51.156  1.00  0.00     0.080 A 
HETATM    5  C   UNL     1     -45.126  57.911 -50.980  1.00  0.00     0.040 A 
HETATM    6  C   UNL     1     -44.766  59.164 -51.492  1.00  0.00     0.032 A 
ENDROOT
BRANCH   1   7
HETATM    7  N   UNL     1     -43.160  60.609 -52.584  1.00  0.00    -0.333 N 
HETATM    8  H   UNL     1     -42.402  61.063 -52.074  1.00  0.00     0.168 HD
BRANCH   7   9
HETATM    9  C   UNL     1     -43.519  61.243 -53.752  1.00  0.00     0.179 C 
HETATM   10  S   UNL     1     -43.904  62.857 -53.991  1.00  0.00    -0.040 SA
BRANCH   9  11
HETATM   11  N   UNL     1     -43.572  60.449 -54.875  1.00  0.00    -0.299 N 
HETATM   12  C   UNL     1     -42.538  59.955 -55.656  1.00  0.00     0.257 C 
HETATM   13  O   UNL     1     -41.399  59.756 -55.255  1.00  0.00    -0.267 OA
HETATM   14  H   UNL     1     -44.516  60.335 -55.222  1.00  0.00     0.171 HD
BRANCH  12  15
HETATM   15  C   UNL     1     -42.967  59.553 -57.021  1.00  0.00     0.035 A 
HETATM   16  C   UNL     1     -44.316  59.657 -57.380  1.00  0.00     0.053 A 
HETATM   17  C   UNL     1     -44.702  59.358 -58.686  1.00  0.00     0.069 A 
HETATM   18  C   UNL     1     -43.744  58.931 -59.612  1.00  0.00     0.037 A 
HETATM   19  C   UNL     1     -42.406  58.792 -59.247  1.00  0.00     0.004 A 
HETATM   20  C   UNL     1     -42.014  59.104 -57.948  1.00  0.00     0.017 A 
BRANCH  17  21
HETATM   21  O   UNL     1     -45.962  59.462 -59.202  1.00  0.00    -0.351 OA
BRANCH  21  22
HETATM   22  C   UNL     1     -46.793  58.303 -59.169  1.00  0.00     0.175 C 
BRANCH  22  23
HETATM   23  C   UNL     1     -47.213  57.972 -60.601  1.00  0.00     0.026 C 
BRANCH  23  24
HETATM   24  C   UNL     1     -47.124  56.474 -60.906  1.00  0.00    -0.002 C 
HETATM   25  C   UNL     1     -45.932  55.837 -60.209  1.00  0.00     0.005 C 
ENDBRANCH  23  24
ENDBRANCH  22  23
ENDBRANCH  21  22
ENDBRANCH  17  21
ENDBRANCH  12  15
ENDBRANCH   9  11
ENDBRANCH   7   9
ENDBRANCH   1   7
BRANCH   3  26
HETATM   26  C   UNL     1     -42.227  55.800 -52.151  1.00  0.00     0.183 A 
HETATM   27  O   UNL     1     -41.775  55.134 -51.041  1.00  0.00    -0.289 OA
HETATM   28  C   UNL     1     -41.067  54.091 -51.551  1.00  0.00     0.106 A 
HETATM   29  C   UNL     1     -41.115  54.179 -52.931  1.00  0.00     0.094 A 
HETATM   30  C   UNL     1     -40.425  53.092 -50.838  1.00  0.00     0.040 A 
HETATM   31  N   UNL     1     -41.804  55.312 -53.305  1.00  0.00    -0.221 NA
HETATM   32  C   UNL     1     -40.515  53.161 -53.686  1.00  0.00     0.041 A 
HETATM   33  C   UNL     1     -39.896  52.080 -53.014  1.00  0.00    -0.056 A 
HETATM   34  C   UNL     1     -39.833  52.082 -51.607  1.00  0.00     0.010 A 
BRANCH  33  35
HETATM   35  C   UNL     1     -39.303  50.968 -53.855  1.00  0.00     0.034 C 
HETATM   36  C   UNL     1     -40.272  49.890 -54.329  1.00  0.00     0.010 C 
ENDBRANCH  33  35
ENDBRANCH   3  26
BRANCH   4  37
HETATM   37  O   UNL     1     -44.679  55.633 -50.580  1.00  0.00    -0.360 OA
HETATM   38  H   UNL     1     -45.402  55.252 -51.121  1.00  0.00     0.217 HD
ENDBRANCH   4  37
TORSDOF 11
ENDMDL
MODEL 9
REMARK VINA RESULT:      -7.5      2.270      5.981
REMARK  11 active torsions:
REMARK  status: ('A' for Active; 'I' for Inactive)
REMARK    1  A    between atoms: C_2  and  C_3 
REMARK    2  A    between atoms: C_3  and  C_4 
REMARK    3  A    between atoms: C_4  and  O_5 
REMARK    4  A    between atoms: O_5  and  C_6 
REMARK    5  A    between atoms: C_8  and  C_9 
REMARK       I    between atoms: C_9  and  N_10 
REMARK    6  A    between atoms: N_10  and  C_11 
REMARK    7  A    between atoms: C_11  and  N_12 
REMARK    8  A    between atoms: N_12  and  C_13 
REMARK    9  A    between atoms: C_15  and  C_16 
REMARK   10  A    between atoms: C_23  and  C_24 
REMARK   11  A    between atoms: C_27  and  O_28 
ROOT
HETATM    1  C   UNL     1     -42.971  57.738 -59.245  1.00  0.00     0.035 A 
HETATM    2  C   UNL     1     -42.682  57.127 -58.022  1.00  0.00     0.048 A 
HETATM    3  C   UNL     1     -43.083  55.812 -57.742  1.00  0.00     0.052 A 
HETATM    4  C   UNL     1     -43.783  55.108 -58.725  1.00  0.00     0.080 A 
HETATM    5  C   UNL     1     -44.003  55.676 -59.982  1.00  0.00     0.040 A 
HETATM    6  C   UNL     1     -43.580  56.984 -60.249  1.00  0.00     0.032 A 
ENDROOT
BRANCH   1   7
HETATM    7  N   UNL     1     -42.623  59.080 -59.506  1.00  0.00    -0.333 N 
HETATM    8  H   UNL     1     -41.861  59.237 -60.166  1.00  0.00     0.168 HD
BRANCH   7   9
HETATM    9  C   UNL     1     -43.320  60.215 -59.161  1.00  0.00     0.179 C 
HETATM   10  S   UNL     1     -43.983  61.381 -60.166  1.00  0.00    -0.040 SA
BRANCH   9  11
HETATM   11  N   UNL     1     -43.497  60.426 -57.813  1.00  0.00    -0.299 N 
HETATM   12  C   UNL     1     -42.564  60.412 -56.788  1.00  0.00     0.257 C 
HETATM   13  O   UNL     1     -41.372  60.652 -56.931  1.00  0.00    -0.267 OA
HETATM   14  H   UNL     1     -44.475  60.469 -57.554  1.00  0.00     0.171 HD
BRANCH  12  15
HETATM   15  C   UNL     1     -43.163  60.203 -55.443  1.00  0.00     0.035 A 
HETATM   16  C   UNL     1     -42.494  60.678 -54.309  1.00  0.00     0.053 A 
HETATM   17  C   UNL     1     -43.098  60.555 -53.057  1.00  0.00     0.069 A 
HETATM   18  C   UNL     1     -44.346  59.933 -52.948  1.00  0.00     0.037 A 
HETATM   19  C   UNL     1     -44.997  59.427 -54.072  1.00  0.00     0.004 A 
HETATM   20  C   UNL     1     -44.405  59.562 -55.324  1.00  0.00     0.017 A 
BRANCH  17  21
HETATM   21  O   UNL     1     -42.602  61.012 -51.870  1.00  0.00    -0.351 OA
BRANCH  21  22
HETATM   22  C   UNL     1     -42.198  60.048 -50.900  1.00  0.00     0.175 C 
BRANCH  22  23
HETATM   23  C   UNL     1     -40.901  59.398 -51.381  1.00  0.00     0.026 C 
BRANCH  23  24
HETATM   24  C   UNL     1     -41.076  57.912 -51.706  1.00  0.00    -0.002 C 
HETATM   25  C   UNL     1     -40.856  57.638 -53.186  1.00  0.00     0.005 C 
ENDBRANCH  23  24
ENDBRANCH  22  23
ENDBRANCH  21  22
ENDBRANCH  17  21
ENDBRANCH  12  15
ENDBRANCH   9  11
ENDBRANCH   7   9
ENDBRANCH   1   7
BRANCH   3  26
HETATM   26  C   UNL     1     -42.784  55.238 -56.438  1.00  0.00     0.183 A 
HETATM   27  O   UNL     1     -41.489  54.832 -56.248  1.00  0.00    -0.289 OA
HETATM   28  C   UNL     1     -41.459  54.430 -54.949  1.00  0.00     0.106 A 
HETATM   29  C   UNL     1     -42.727  54.602 -54.422  1.00  0.00     0.094 A 
HETATM   30  C   UNL     1     -40.363  53.955 -54.248  1.00  0.00     0.040 A 
HETATM   31  N   UNL     1     -43.584  55.058 -55.401  1.00  0.00    -0.221 NA
HETATM   32  C   UNL     1     -42.929  54.326 -53.062  1.00  0.00     0.041 A 
HETATM   33  C   UNL     1     -41.832  53.896 -52.279  1.00  0.00    -0.056 A 
HETATM   34  C   UNL     1     -40.581  53.686 -52.890  1.00  0.00     0.010 A 
BRANCH  33  35
HETATM   35  C   UNL     1     -42.067  53.656 -50.801  1.00  0.00     0.034 C 
HETATM   36  C   UNL     1     -41.907  54.867 -49.887  1.00  0.00     0.010 C 
ENDBRANCH  33  35
ENDBRANCH   3  26
BRANCH   4  37
HETATM   37  O   UNL     1     -44.274  53.845 -58.524  1.00  0.00    -0.360 OA
HETATM   38  H   UNL     1     -44.103  53.592 -57.594  1.00  0.00     0.217 HD
ENDBRANCH   4  37
TORSDOF 11
ENDMDL
MODEL 10
REMARK VINA RESULT:      -7.5      3.884      8.561
REMARK  11 active torsions:
REMARK  status: ('A' for Active; 'I' for Inactive)
REMARK    1  A    between atoms: C_2  and  C_3 
REMARK    2  A    between atoms: C_3  and  C_4 
REMARK    3  A    between atoms: C_4  and  O_5 
REMARK    4  A    between atoms: O_5  and  C_6 
REMARK    5  A    between atoms: C_8  and  C_9 
REMARK       I    between atoms: C_9  and  N_10 
REMARK    6  A    between atoms: N_10  and  C_11 
REMARK    7  A    between atoms: C_11  and  N_12 
REMARK    8  A    between atoms: N_12  and  C_13 
REMARK    9  A    between atoms: C_15  and  C_16 
REMARK   10  A    between atoms: C_23  and  C_24 
REMARK   11  A    between atoms: C_27  and  O_28 
ROOT
HETATM    1  C   UNL     1     -41.155  56.331 -50.744  1.00  0.00     0.035 A 
HETATM    2  C   UNL     1     -41.643  56.457 -52.047  1.00  0.00     0.048 A 
HETATM    3  C   UNL     1     -41.583  55.395 -52.963  1.00  0.00     0.052 A 
HETATM    4  C   UNL     1     -41.023  54.187 -52.542  1.00  0.00     0.080 A 
HETATM    5  C   UNL     1     -40.611  54.020 -51.218  1.00  0.00     0.040 A 
HETATM    6  C   UNL     1     -40.695  55.086 -50.314  1.00  0.00     0.032 A 
ENDROOT
BRANCH   1   7
HETATM    7  N   UNL     1     -41.160  57.415 -49.841  1.00  0.00    -0.333 N 
HETATM    8  H   UNL     1     -41.127  57.186 -48.848  1.00  0.00     0.168 HD
BRANCH   7   9
HETATM    9  C   UNL     1     -40.975  58.749 -50.124  1.00  0.00     0.179 C 
HETATM   10  S   UNL     1     -39.595  59.519 -50.681  1.00  0.00    -0.040 SA
BRANCH   9  11
HETATM   11  N   UNL     1     -42.066  59.563 -49.920  1.00  0.00    -0.299 N 
HETATM   12  C   UNL     1     -42.898  60.171 -50.847  1.00  0.00     0.257 C 
HETATM   13  O   UNL     1     -43.098  59.753 -51.980  1.00  0.00    -0.267 OA
HETATM   14  H   UNL     1     -42.168  59.835 -48.950  1.00  0.00     0.171 HD
BRANCH  12  15
HETATM   15  C   UNL     1     -43.649  61.331 -50.298  1.00  0.00     0.035 A 
HETATM   16  C   UNL     1     -44.952  61.146 -49.821  1.00  0.00     0.053 A 
HETATM   17  C   UNL     1     -45.623  62.217 -49.232  1.00  0.00     0.069 A 
HETATM   18  C   UNL     1     -45.000  63.467 -49.152  1.00  0.00     0.037 A 
HETATM   19  C   UNL     1     -43.716  63.662 -49.660  1.00  0.00     0.004 A 
HETATM   20  C   UNL     1     -43.037  62.592 -50.235  1.00  0.00     0.017 A 
BRANCH  17  21
HETATM   21  O   UNL     1     -46.869  62.184 -48.674  1.00  0.00    -0.351 OA
BRANCH  21  22
HETATM   22  C   UNL     1     -46.977  62.412 -47.269  1.00  0.00     0.175 C 
BRANCH  22  23
HETATM   23  C   UNL     1     -46.406  61.195 -46.542  1.00  0.00     0.026 C 
BRANCH  23  24
HETATM   24  C   UNL     1     -45.224  61.556 -45.636  1.00  0.00    -0.002 C 
HETATM   25  C   UNL     1     -45.129  63.058 -45.421  1.00  0.00     0.005 C 
ENDBRANCH  23  24
ENDBRANCH  22  23
ENDBRANCH  21  22
ENDBRANCH  17  21
ENDBRANCH  12  15
ENDBRANCH   9  11
ENDBRANCH   7   9
ENDBRANCH   1   7
BRANCH   3  26
HETATM   26  C   UNL     1     -42.076  55.594 -54.318  1.00  0.00     0.183 A 
HETATM   27  O   UNL     1     -41.944  56.862 -54.821  1.00  0.00    -0.289 OA
HETATM   28  C   UNL     1     -42.386  56.754 -56.102  1.00  0.00     0.106 A 
HETATM   29  C   UNL     1     -42.770  55.440 -56.310  1.00  0.00     0.094 A 
HETATM   30  C   UNL     1     -42.431  57.756 -57.057  1.00  0.00     0.040 A 
HETATM   31  N   UNL     1     -42.629  54.721 -55.142  1.00  0.00    -0.221 NA
HETATM   32  C   UNL     1     -43.193  55.063 -57.592  1.00  0.00     0.041 A 
HETATM   33  C   UNL     1     -43.202  56.029 -58.625  1.00  0.00    -0.056 A 
HETATM   34  C   UNL     1     -42.854  57.362 -58.333  1.00  0.00     0.010 A 
BRANCH  33  35
HETATM   35  C   UNL     1     -43.614  55.580 -60.013  1.00  0.00     0.034 C 
HETATM   36  C   UNL     1     -44.852  54.694 -60.096  1.00  0.00     0.010 C 
ENDBRANCH  33  35
ENDBRANCH   3  26
BRANCH   4  37
HETATM   37  O   UNL     1     -40.858  53.115 -53.378  1.00  0.00    -0.360 OA
HETATM   38  H   UNL     1     -40.198  52.511 -52.980  1.00  0.00     0.217 HD
ENDBRANCH   4  37
TORSDOF 11
ENDMDL
