MODEL 1
REMARK VINA RESULT:      -8.7      0.000      0.000
REMARK  8 active torsions:
REMARK  status: ('A' for Active; 'I' for Inactive)
REMARK    1  A    between atoms: C_2  and  N_3 
REMARK    2  A    between atoms: C_9  and  C_10 
REMARK    3  A    between atoms: C_16  and  C_17 
REMARK       I    between atoms: C_17  and  N_18 
REMARK    4  A    between atoms: N_18  and  C_19 
REMARK    5  A    between atoms: C_19  and  C_20 
REMARK    6  A    between atoms: C_20  and  C_21 
REMARK    7  A    between atoms: C_23  and  O_24 
REMARK    8  A    between atoms: C_25  and  O_26 
ROOT
HETATM    1  N   UNL     1     -43.304  56.262 -56.167  1.00  0.00    -0.248 N 
HETATM    2  N   UNL     1     -42.677  55.061 -56.204  1.00  0.00    -0.182 NA
HETATM    3  C   UNL     1     -42.620  54.698 -54.918  1.00  0.00     0.155 A 
HETATM    4  C   UNL     1     -43.236  55.628 -54.054  1.00  0.00     0.046 A 
HETATM    5  C   UNL     1     -43.660  56.645 -54.898  1.00  0.00     0.159 A 
HETATM    6  N   UNL     1     -44.281  57.787 -54.544  1.00  0.00    -0.228 NA
HETATM    7  C   UNL     1     -44.492  57.923 -53.211  1.00  0.00     0.077 A 
HETATM    8  C   UNL     1     -44.104  56.980 -52.266  1.00  0.00     0.051 A 
HETATM    9  C   UNL     1     -43.476  55.800 -52.686  1.00  0.00     0.049 A 
ENDROOT
BRANCH   9  10
HETATM   10  C   UNL     1     -43.054  54.828 -51.661  1.00  0.00     0.252 C 
HETATM   11  N   UNL     1     -41.717  54.817 -51.313  1.00  0.00    -0.357 N 
HETATM   12  H   UNL     1     -41.063  55.285 -51.930  1.00  0.00     0.162 HD
HETATM   13  O   UNL     1     -43.882  54.048 -51.206  1.00  0.00    -0.268 OA
BRANCH  11  14
HETATM   14  C   UNL     1     -41.202  53.727 -50.500  1.00  0.00     0.127 C 
BRANCH  14  15
HETATM   15  C   UNL     1     -39.781  53.323 -50.888  1.00  0.00     0.058 C 
BRANCH  15  16
HETATM   16  C   UNL     1     -39.800  52.281 -51.981  1.00  0.00    -0.054 A 
HETATM   17  C   UNL     1     -39.485  50.943 -51.689  1.00  0.00     0.046 A 
HETATM   18  C   UNL     1     -39.571  49.982 -52.691  1.00  0.00     0.099 A 
HETATM   19  C   UNL     1     -39.967  50.339 -53.976  1.00  0.00     0.098 A 
HETATM   20  C   UNL     1     -40.279  51.654 -54.284  1.00  0.00     0.040 A 
HETATM   21  C   UNL     1     -40.199  52.627 -53.284  1.00  0.00     0.010 A 
BRANCH  18  22
HETATM   22  O   UNL     1     -39.288  48.665 -52.456  1.00  0.00    -0.358 OA
HETATM   23  H   UNL     1     -40.113  48.158 -52.546  1.00  0.00     0.218 HD
ENDBRANCH  18  22
BRANCH  19  24
HETATM   24  O   UNL     1     -40.061  49.386 -54.950  1.00  0.00    -0.358 OA
HETATM   25  H   UNL     1     -41.022  49.232 -55.046  1.00  0.00     0.218 HD
ENDBRANCH  19  24
ENDBRANCH  15  16
ENDBRANCH  14  15
ENDBRANCH  11  14
ENDBRANCH   9  10
BRANCH   7  26
HETATM   26  C   UNL     1     -45.152  59.189 -52.851  1.00  0.00     0.033 A 
HETATM   27  S   UNL     1     -45.721  59.487 -51.254  1.00  0.00    -0.100 SA
HETATM   28  C   UNL     1     -46.303  61.039 -51.664  1.00  0.00     0.050 A 
HETATM   29  C   UNL     1     -46.091  61.335 -52.990  1.00  0.00     0.008 A 
HETATM   30  C   UNL     1     -45.440  60.267 -53.674  1.00  0.00     0.021 A 
ENDBRANCH   7  26
BRANCH   1  31
HETATM   31  C   UNL     1     -43.496  57.007 -57.408  1.00  0.00     0.104 C 
HETATM   32  C   UNL     1     -43.395  56.105 -58.638  1.00  0.00     0.034 C 
HETATM   33  C   UNL     1     -42.556  58.208 -57.511  1.00  0.00     0.034 C 
ENDBRANCH   1  31
TORSDOF 8
ENDMDL
MODEL 2
REMARK VINA RESULT:      -8.7      1.617      4.136
REMARK  8 active torsions:
REMARK  status: ('A' for Active; 'I' for Inactive)
REMARK    1  A    between atoms: C_2  and  N_3 
REMARK    2  A    between atoms: C_9  and  C_10 
REMARK    3  A    between atoms: C_16  and  C_17 
REMARK       I    between atoms: C_17  and  N_18 
REMARK    4  A    between atoms: N_18  and  C_19 
REMARK    5  A    between atoms: C_19  and  C_20 
REMARK    6  A    between atoms: C_20  and  C_21 
REMARK    7  A    between atoms: C_23  and  O_24 
REMARK    8  A    between atoms: C_25  and  O_26 
ROOT
HETATM    1  N   UNL     1     -44.935  59.075 -52.400  1.00  0.00    -0.248 N 
HETATM    2  N   UNL     1     -45.092  58.729 -51.099  1.00  0.00    -0.182 NA
HETATM    3  C   UNL     1     -44.524  57.521 -51.024  1.00  0.00     0.155 A 
HETATM    4  C   UNL     1     -43.965  57.098 -52.248  1.00  0.00     0.046 A 
HETATM    5  C   UNL     1     -44.262  58.127 -53.130  1.00  0.00     0.159 A 
HETATM    6  N   UNL     1     -43.966  58.180 -54.443  1.00  0.00    -0.228 NA
HETATM    7  C   UNL     1     -43.313  57.091 -54.918  1.00  0.00     0.077 A 
HETATM    8  C   UNL     1     -42.970  55.993 -54.137  1.00  0.00     0.051 A 
HETATM    9  C   UNL     1     -43.284  55.992 -52.771  1.00  0.00     0.049 A 
ENDROOT
BRANCH   9  10
HETATM   10  C   UNL     1     -42.929  54.806 -51.971  1.00  0.00     0.252 C 
HETATM   11  N   UNL     1     -41.829  54.908 -51.143  1.00  0.00    -0.357 N 
HETATM   12  H   UNL     1     -41.189  55.678 -51.298  1.00  0.00     0.162 HD
HETATM   13  O   UNL     1     -43.582  53.779 -52.112  1.00  0.00    -0.268 OA
BRANCH  11  14
HETATM   14  C   UNL     1     -41.290  53.707 -50.524  1.00  0.00     0.127 C 
BRANCH  14  15
HETATM   15  C   UNL     1     -39.864  53.401 -50.979  1.00  0.00     0.058 C 
BRANCH  15  16
HETATM   16  C   UNL     1     -39.860  52.329 -52.043  1.00  0.00    -0.054 A 
HETATM   17  C   UNL     1     -39.519  51.006 -51.713  1.00  0.00     0.046 A 
HETATM   18  C   UNL     1     -39.584  50.016 -52.688  1.00  0.00     0.099 A 
HETATM   19  C   UNL     1     -39.983  50.330 -53.985  1.00  0.00     0.098 A 
HETATM   20  C   UNL     1     -40.319  51.630 -54.329  1.00  0.00     0.040 A 
HETATM   21  C   UNL     1     -40.261  52.631 -53.356  1.00  0.00     0.010 A 
BRANCH  18  22
HETATM   22  O   UNL     1     -39.277  48.712 -52.416  1.00  0.00    -0.358 OA
HETATM   23  H   UNL     1     -38.328  48.662 -52.209  1.00  0.00     0.218 HD
ENDBRANCH  18  22
BRANCH  19  24
HETATM   24  O   UNL     1     -40.056  49.349 -54.932  1.00  0.00    -0.358 OA
HETATM   25  H   UNL     1     -40.868  49.557 -55.434  1.00  0.00     0.218 HD
ENDBRANCH  19  24
ENDBRANCH  15  16
ENDBRANCH  14  15
ENDBRANCH  11  14
ENDBRANCH   9  10
BRANCH   7  26
HETATM   26  C   UNL     1     -43.022  57.167 -56.360  1.00  0.00     0.033 A 
HETATM   27  S   UNL     1     -42.470  58.624 -57.092  1.00  0.00    -0.100 SA
HETATM   28  C   UNL     1     -42.390  57.909 -58.640  1.00  0.00     0.050 A 
HETATM   29  C   UNL     1     -42.787  56.593 -58.623  1.00  0.00     0.008 A 
HETATM   30  C   UNL     1     -43.160  56.170 -57.313  1.00  0.00     0.021 A 
ENDBRANCH   7  26
BRANCH   1  31
HETATM   31  C   UNL     1     -45.497  60.333 -52.879  1.00  0.00     0.104 C 
HETATM   32  C   UNL     1     -44.470  61.466 -52.848  1.00  0.00     0.034 C 
HETATM   33  C   UNL     1     -46.778  60.714 -52.138  1.00  0.00     0.034 C 
ENDBRANCH   1  31
TORSDOF 8
ENDMDL
MODEL 3
REMARK VINA RESULT:      -8.6      4.045      8.172
REMARK  8 active torsions:
REMARK  status: ('A' for Active; 'I' for Inactive)
REMARK    1  A    between atoms: C_2  and  N_3 
REMARK    2  A    between atoms: C_9  and  C_10 
REMARK    3  A    between atoms: C_16  and  C_17 
REMARK       I    between atoms: C_17  and  N_18 
REMARK    4  A    between atoms: N_18  and  C_19 
REMARK    5  A    between atoms: C_19  and  C_20 
REMARK    6  A    between atoms: C_20  and  C_21 
REMARK    7  A    between atoms: C_23  and  O_24 
REMARK    8  A    between atoms: C_25  and  O_26 
ROOT
HETATM    1  N   UNL     1     -41.281  59.050 -52.427  1.00  0.00    -0.248 N 
HETATM    2  N   UNL     1     -41.694  60.218 -52.979  1.00  0.00    -0.182 NA
HETATM    3  C   UNL     1     -42.024  59.875 -54.228  1.00  0.00     0.155 A 
HETATM    4  C   UNL     1     -41.871  58.496 -54.480  1.00  0.00     0.046 A 
HETATM    5  C   UNL     1     -41.370  57.987 -53.290  1.00  0.00     0.159 A 
HETATM    6  N   UNL     1     -41.025  56.710 -53.036  1.00  0.00    -0.228 NA
HETATM    7  C   UNL     1     -41.193  55.862 -54.081  1.00  0.00     0.077 A 
HETATM    8  C   UNL     1     -41.675  56.254 -55.325  1.00  0.00     0.051 A 
HETATM    9  C   UNL     1     -42.038  57.591 -55.535  1.00  0.00     0.049 A 
ENDROOT
BRANCH   9  10
HETATM   10  C   UNL     1     -42.524  57.983 -56.870  1.00  0.00     0.252 C 
HETATM   11  N   UNL     1     -41.590  58.060 -57.886  1.00  0.00    -0.357 N 
HETATM   12  H   UNL     1     -40.611  58.084 -57.627  1.00  0.00     0.162 HD
HETATM   13  O   UNL     1     -43.706  58.272 -57.011  1.00  0.00    -0.268 OA
BRANCH  11  14
HETATM   14  C   UNL     1     -41.963  58.674 -59.150  1.00  0.00     0.127 C 
BRANCH  14  15
HETATM   15  C   UNL     1     -42.161  57.649 -60.266  1.00  0.00     0.058 C 
BRANCH  15  16
HETATM   16  C   UNL     1     -43.569  57.104 -60.248  1.00  0.00    -0.054 A 
HETATM   17  C   UNL     1     -43.794  55.733 -60.034  1.00  0.00     0.046 A 
HETATM   18  C   UNL     1     -45.098  55.256 -59.954  1.00  0.00     0.099 A 
HETATM   19  C   UNL     1     -46.176  56.126 -60.085  1.00  0.00     0.098 A 
HETATM   20  C   UNL     1     -45.973  57.480 -60.299  1.00  0.00     0.040 A 
HETATM   21  C   UNL     1     -44.667  57.971 -60.378  1.00  0.00     0.010 A 
BRANCH  18  22
HETATM   22  O   UNL     1     -45.372  53.934 -59.734  1.00  0.00    -0.358 OA
HETATM   23  H   UNL     1     -45.921  53.612 -60.469  1.00  0.00     0.218 HD
ENDBRANCH  18  22
BRANCH  19  24
HETATM   24  O   UNL     1     -47.453  55.649 -59.991  1.00  0.00    -0.358 OA
HETATM   25  H   UNL     1     -47.929  56.332 -59.479  1.00  0.00     0.218 HD
ENDBRANCH  19  24
ENDBRANCH  15  16
ENDBRANCH  14  15
ENDBRANCH  11  14
ENDBRANCH   9  10
BRANCH   7  26
HETATM   26  C   UNL     1     -40.787  54.479 -53.782  1.00  0.00     0.033 A 
HETATM   27  S   UNL     1     -40.654  53.909 -52.162  1.00  0.00    -0.100 SA
HETATM   28  C   UNL     1     -40.172  52.351 -52.666  1.00  0.00     0.050 A 
HETATM   29  C   UNL     1     -40.093  52.252 -54.035  1.00  0.00     0.008 A 
HETATM   30  C   UNL     1     -40.436  53.478 -54.674  1.00  0.00     0.021 A 
ENDBRANCH   7  26
BRANCH   1  31
HETATM   31  C   UNL     1     -40.776  59.044 -51.058  1.00  0.00     0.104 C 
HETATM   32  C   UNL     1     -41.516  60.046 -50.171  1.00  0.00     0.034 C 
HETATM   33  C   UNL     1     -39.263  59.251 -50.999  1.00  0.00     0.034 C 
ENDBRANCH   1  31
TORSDOF 8
ENDMDL
MODEL 4
REMARK VINA RESULT:      -8.0      2.918      5.034
REMARK  8 active torsions:
REMARK  status: ('A' for Active; 'I' for Inactive)
REMARK    1  A    between atoms: C_2  and  N_3 
REMARK    2  A    between atoms: C_9  and  C_10 
REMARK    3  A    between atoms: C_16  and  C_17 
REMARK       I    between atoms: C_17  and  N_18 
REMARK    4  A    between atoms: N_18  and  C_19 
REMARK    5  A    between atoms: C_19  and  C_20 
REMARK    6  A    between atoms: C_20  and  C_21 
REMARK    7  A    between atoms: C_23  and  O_24 
REMARK    8  A    between atoms: C_25  and  O_26 
ROOT
HETATM    1  N   UNL     1     -42.666  60.468 -57.206  1.00  0.00    -0.248 N 
HETATM    2  N   UNL     1     -42.029  60.751 -56.043  1.00  0.00    -0.182 NA
HETATM    3  C   UNL     1     -42.058  59.592 -55.379  1.00  0.00     0.155 A 
HETATM    4  C   UNL     1     -42.667  58.551 -56.112  1.00  0.00     0.046 A 
HETATM    5  C   UNL     1     -43.067  59.158 -57.294  1.00  0.00     0.159 A 
HETATM    6  N   UNL     1     -43.730  58.584 -58.317  1.00  0.00    -0.228 NA
HETATM    7  C   UNL     1     -44.025  57.274 -58.131  1.00  0.00     0.077 A 
HETATM    8  C   UNL     1     -43.689  56.559 -56.987  1.00  0.00     0.051 A 
HETATM    9  C   UNL     1     -42.984  57.196 -55.958  1.00  0.00     0.049 A 
ENDROOT
BRANCH   9  10
HETATM   10  C   UNL     1     -42.661  56.421 -54.746  1.00  0.00     0.252 C 
HETATM   11  N   UNL     1     -42.128  55.160 -54.926  1.00  0.00    -0.357 N 
HETATM   12  H   UNL     1     -42.209  54.738 -55.843  1.00  0.00     0.162 HD
HETATM   13  O   UNL     1     -42.924  56.899 -53.648  1.00  0.00    -0.268 OA
BRANCH  11  14
HETATM   14  C   UNL     1     -42.022  54.263 -53.786  1.00  0.00     0.127 C 
BRANCH  14  15
HETATM   15  C   UNL     1     -40.581  54.080 -53.314  1.00  0.00     0.058 C 
BRANCH  15  16
HETATM   16  C   UNL     1     -40.281  52.621 -53.061  1.00  0.00    -0.054 A 
HETATM   17  C   UNL     1     -40.344  51.694 -54.116  1.00  0.00     0.046 A 
HETATM   18  C   UNL     1     -40.001  50.366 -53.885  1.00  0.00     0.099 A 
HETATM   19  C   UNL     1     -39.599  49.953 -52.618  1.00  0.00     0.098 A 
HETATM   20  C   UNL     1     -39.534  50.853 -51.565  1.00  0.00     0.040 A 
HETATM   21  C   UNL     1     -39.873  52.190 -51.788  1.00  0.00     0.010 A 
BRANCH  18  22
HETATM   22  O   UNL     1     -40.032  49.427 -54.879  1.00  0.00    -0.358 OA
HETATM   23  H   UNL     1     -40.878  49.515 -55.351  1.00  0.00     0.218 HD
ENDBRANCH  18  22
BRANCH  19  24
HETATM   24  O   UNL     1     -39.252  48.649 -52.404  1.00  0.00    -0.358 OA
HETATM   25  H   UNL     1     -38.442  48.701 -51.860  1.00  0.00     0.218 HD
ENDBRANCH  19  24
ENDBRANCH  15  16
ENDBRANCH  14  15
ENDBRANCH  11  14
ENDBRANCH   9  10
BRANCH   7  26
HETATM   26  C   UNL     1     -44.769  56.679 -59.255  1.00  0.00     0.033 A 
HETATM   27  S   UNL     1     -46.386  57.146 -59.613  1.00  0.00    -0.100 SA
HETATM   28  C   UNL     1     -46.489  56.071 -60.936  1.00  0.00     0.050 A 
HETATM   29  C   UNL     1     -45.330  55.352 -61.107  1.00  0.00     0.008 A 
HETATM   30  C   UNL     1     -44.346  55.694 -60.134  1.00  0.00     0.021 A 
ENDBRANCH   7  26
BRANCH   1  31
HETATM   31  C   UNL     1     -42.883  61.532 -58.181  1.00  0.00     0.104 C 
HETATM   32  C   UNL     1     -41.725  62.530 -58.204  1.00  0.00     0.034 C 
HETATM   33  C   UNL     1     -44.226  62.233 -57.982  1.00  0.00     0.034 C 
ENDBRANCH   1  31
TORSDOF 8
ENDMDL
MODEL 5
REMARK VINA RESULT:      -8.0      3.987      8.638
REMARK  8 active torsions:
REMARK  status: ('A' for Active; 'I' for Inactive)
REMARK    1  A    between atoms: C_2  and  N_3 
REMARK    2  A    between atoms: C_9  and  C_10 
REMARK    3  A    between atoms: C_16  and  C_17 
REMARK       I    between atoms: C_17  and  N_18 
REMARK    4  A    between atoms: N_18  and  C_19 
REMARK    5  A    between atoms: C_19  and  C_20 
REMARK    6  A    between atoms: C_20  and  C_21 
REMARK    7  A    between atoms: C_23  and  O_24 
REMARK    8  A    between atoms: C_25  and  O_26 
ROOT
HETATM    1  N   UNL     1     -43.435  56.005 -52.140  1.00  0.00    -0.248 N 
HETATM    2  N   UNL     1     -44.098  57.043 -52.705  1.00  0.00    -0.182 NA
HETATM    3  C   UNL     1     -43.858  56.894 -54.012  1.00  0.00     0.155 A 
HETATM    4  C   UNL     1     -43.083  55.752 -54.304  1.00  0.00     0.046 A 
HETATM    5  C   UNL     1     -42.810  55.201 -53.060  1.00  0.00     0.159 A 
HETATM    6  N   UNL     1     -42.067  54.106 -52.803  1.00  0.00    -0.228 NA
HETATM    7  C   UNL     1     -41.544  53.510 -53.903  1.00  0.00     0.077 A 
HETATM    8  C   UNL     1     -41.736  53.974 -55.199  1.00  0.00     0.051 A 
HETATM    9  C   UNL     1     -42.531  55.107 -55.417  1.00  0.00     0.049 A 
ENDROOT
BRANCH   9  10
HETATM   10  C   UNL     1     -42.699  55.589 -56.799  1.00  0.00     0.252 C 
HETATM   11  N   UNL     1     -42.198  56.842 -57.097  1.00  0.00    -0.357 N 
HETATM   12  H   UNL     1     -41.966  57.455 -56.324  1.00  0.00     0.162 HD
HETATM   13  O   UNL     1     -43.313  54.895 -57.600  1.00  0.00    -0.268 OA
BRANCH  11  14
HETATM   14  C   UNL     1     -42.548  57.467 -58.363  1.00  0.00     0.127 C 
BRANCH  14  15
HETATM   15  C   UNL     1     -43.881  58.211 -58.302  1.00  0.00     0.058 C 
BRANCH  15  16
HETATM   16  C   UNL     1     -44.837  57.683 -59.346  1.00  0.00    -0.054 A 
HETATM   17  C   UNL     1     -44.469  56.595 -60.155  1.00  0.00     0.046 A 
HETATM   18  C   UNL     1     -45.383  56.076 -61.066  1.00  0.00     0.099 A 
HETATM   19  C   UNL     1     -46.656  56.628 -61.178  1.00  0.00     0.098 A 
HETATM   20  C   UNL     1     -47.036  57.703 -60.390  1.00  0.00     0.040 A 
HETATM   21  C   UNL     1     -46.126  58.230 -59.469  1.00  0.00     0.010 A 
BRANCH  18  22
HETATM   22  O   UNL     1     -45.080  55.010 -61.868  1.00  0.00    -0.358 OA
HETATM   23  H   UNL     1     -45.211  55.281 -62.793  1.00  0.00     0.218 HD
ENDBRANCH  18  22
BRANCH  19  24
HETATM   24  O   UNL     1     -47.551  56.103 -62.066  1.00  0.00    -0.358 OA
HETATM   25  H   UNL     1     -47.317  55.155 -62.114  1.00  0.00     0.218 HD
ENDBRANCH  19  24
ENDBRANCH  15  16
ENDBRANCH  14  15
ENDBRANCH  11  14
ENDBRANCH   9  10
BRANCH   7  26
HETATM   26  C   UNL     1     -40.719  52.331 -53.590  1.00  0.00     0.033 A 
HETATM   27  S   UNL     1     -39.934  52.158 -52.068  1.00  0.00    -0.100 SA
HETATM   28  C   UNL     1     -39.252  50.654 -52.501  1.00  0.00     0.050 A 
HETATM   29  C   UNL     1     -39.591  50.282 -53.780  1.00  0.00     0.008 A 
HETATM   30  C   UNL     1     -40.425  51.252 -54.409  1.00  0.00     0.021 A 
ENDBRANCH   7  26
BRANCH   1  31
HETATM   31  C   UNL     1     -43.419  55.872 -50.686  1.00  0.00     0.104 C 
HETATM   32  C   UNL     1     -41.997  55.911 -50.125  1.00  0.00     0.034 C 
HETATM   33  C   UNL     1     -44.179  54.635 -50.211  1.00  0.00     0.034 C 
ENDBRANCH   1  31
TORSDOF 8
ENDMDL
MODEL 6
REMARK VINA RESULT:      -7.8      1.772      2.128
REMARK  8 active torsions:
REMARK  status: ('A' for Active; 'I' for Inactive)
REMARK    1  A    between atoms: C_2  and  N_3 
REMARK    2  A    between atoms: C_9  and  C_10 
REMARK    3  A    between atoms: C_16  and  C_17 
REMARK       I    between atoms: C_17  and  N_18 
REMARK    4  A    between atoms: N_18  and  C_19 
REMARK    5  A    between atoms: C_19  and  C_20 
REMARK    6  A    between atoms: C_20  and  C_21 
REMARK    7  A    between atoms: C_23  and  O_24 
REMARK    8  A    between atoms: C_25  and  O_26 
ROOT
HETATM    1  N   UNL     1     -43.427  57.455 -58.183  1.00  0.00    -0.248 N 
HETATM    2  N   UNL     1     -42.855  56.256 -58.455  1.00  0.00    -0.182 NA
HETATM    3  C   UNL     1     -42.840  55.639 -57.269  1.00  0.00     0.155 A 
HETATM    4  C   UNL     1     -43.431  56.405 -56.242  1.00  0.00     0.046 A 
HETATM    5  C   UNL     1     -43.790  57.591 -56.867  1.00  0.00     0.159 A 
HETATM    6  N   UNL     1     -44.365  58.666 -56.294  1.00  0.00    -0.228 NA
HETATM    7  C   UNL     1     -44.597  58.541 -54.964  1.00  0.00     0.077 A 
HETATM    8  C   UNL     1     -44.272  57.409 -54.226  1.00  0.00     0.051 A 
HETATM    9  C   UNL     1     -43.690  56.308 -54.870  1.00  0.00     0.049 A 
ENDROOT
BRANCH   9  10
HETATM   10  C   UNL     1     -43.335  55.130 -54.058  1.00  0.00     0.252 C 
HETATM   11  N   UNL     1     -42.994  55.351 -52.738  1.00  0.00    -0.357 N 
HETATM   12  H   UNL     1     -42.771  56.299 -52.459  1.00  0.00     0.162 HD
HETATM   13  O   UNL     1     -43.304  54.028 -54.593  1.00  0.00    -0.268 OA
BRANCH  11  14
HETATM   14  C   UNL     1     -42.402  54.271 -51.965  1.00  0.00     0.127 C 
BRANCH  14  15
HETATM   15  C   UNL     1     -40.877  54.243 -52.066  1.00  0.00     0.058 C 
BRANCH  15  16
HETATM   16  C   UNL     1     -40.393  52.871 -52.474  1.00  0.00    -0.054 A 
HETATM   17  C   UNL     1     -39.918  51.972 -51.505  1.00  0.00     0.046 A 
HETATM   18  C   UNL     1     -39.538  50.689 -51.885  1.00  0.00     0.099 A 
HETATM   19  C   UNL     1     -39.626  50.294 -53.217  1.00  0.00     0.098 A 
HETATM   20  C   UNL     1     -40.090  51.169 -54.187  1.00  0.00     0.040 A 
HETATM   21  C   UNL     1     -40.477  52.459 -53.815  1.00  0.00     0.010 A 
BRANCH  18  22
HETATM   22  O   UNL     1     -39.083  49.771 -50.979  1.00  0.00    -0.358 OA
HETATM   23  H   UNL     1     -38.352  50.176 -50.481  1.00  0.00     0.218 HD
ENDBRANCH  18  22
BRANCH  19  24
HETATM   24  O   UNL     1     -39.263  49.028 -53.578  1.00  0.00    -0.358 OA
HETATM   25  H   UNL     1     -40.035  48.687 -54.071  1.00  0.00     0.218 HD
ENDBRANCH  19  24
ENDBRANCH  15  16
ENDBRANCH  14  15
ENDBRANCH  11  14
ENDBRANCH   9  10
BRANCH   7  26
HETATM   26  C   UNL     1     -45.205  59.740 -54.362  1.00  0.00     0.033 A 
HETATM   27  S   UNL     1     -45.570  61.134 -55.303  1.00  0.00    -0.100 SA
HETATM   28  C   UNL     1     -46.187  61.981 -53.955  1.00  0.00     0.050 A 
HETATM   29  C   UNL     1     -46.111  61.238 -52.801  1.00  0.00     0.008 A 
HETATM   30  C   UNL     1     -45.536  59.955 -53.034  1.00  0.00     0.021 A 
ENDBRANCH   7  26
BRANCH   1  31
HETATM   31  C   UNL     1     -43.558  58.444 -59.248  1.00  0.00     0.104 C 
HETATM   32  C   UNL     1     -44.941  58.402 -59.899  1.00  0.00     0.034 C 
HETATM   33  C   UNL     1     -42.443  58.326 -60.287  1.00  0.00     0.034 C 
ENDBRANCH   1  31
TORSDOF 8
ENDMDL
MODEL 7
REMARK VINA RESULT:      -7.7      3.804      7.182
REMARK  8 active torsions:
REMARK  status: ('A' for Active; 'I' for Inactive)
REMARK    1  A    between atoms: C_2  and  N_3 
REMARK    2  A    between atoms: C_9  and  C_10 
REMARK    3  A    between atoms: C_16  and  C_17 
REMARK       I    between atoms: C_17  and  N_18 
REMARK    4  A    between atoms: N_18  and  C_19 
REMARK    5  A    between atoms: C_19  and  C_20 
REMARK    6  A    between atoms: C_20  and  C_21 
REMARK    7  A    between atoms: C_23  and  O_24 
REMARK    8  A    between atoms: C_25  and  O_26 
ROOT
HETATM    1  N   UNL     1     -42.110  54.366 -53.862  1.00  0.00    -0.248 N 
HETATM    2  N   UNL     1     -42.375  53.798 -55.064  1.00  0.00    -0.182 NA
HETATM    3  C   UNL     1     -42.537  54.847 -55.877  1.00  0.00     0.155 A 
HETATM    4  C   UNL     1     -42.340  56.084 -55.228  1.00  0.00     0.046 A 
HETATM    5  C   UNL     1     -42.077  55.737 -53.910  1.00  0.00     0.159 A 
HETATM    6  N   UNL     1     -41.851  56.576 -52.881  1.00  0.00    -0.228 NA
HETATM    7  C   UNL     1     -41.900  57.892 -53.205  1.00  0.00     0.077 A 
HETATM    8  C   UNL     1     -42.165  58.364 -54.486  1.00  0.00     0.051 A 
HETATM    9  C   UNL     1     -42.377  57.451 -55.528  1.00  0.00     0.049 A 
ENDROOT
BRANCH   9  10
HETATM   10  C   UNL     1     -42.679  57.979 -56.871  1.00  0.00     0.252 C 
HETATM   11  N   UNL     1     -41.703  57.840 -57.839  1.00  0.00    -0.357 N 
HETATM   12  H   UNL     1     -40.764  57.614 -57.535  1.00  0.00     0.162 HD
HETATM   13  O   UNL     1     -43.744  58.556 -57.056  1.00  0.00    -0.268 OA
BRANCH  11  14
HETATM   14  C   UNL     1     -41.845  58.552 -59.099  1.00  0.00     0.127 C 
BRANCH  14  15
HETATM   15  C   UNL     1     -42.100  57.616 -60.279  1.00  0.00     0.058 C 
BRANCH  15  16
HETATM   16  C   UNL     1     -43.514  57.085 -60.244  1.00  0.00    -0.054 A 
HETATM   17  C   UNL     1     -43.749  55.715 -60.035  1.00  0.00     0.046 A 
HETATM   18  C   UNL     1     -45.056  55.249 -59.939  1.00  0.00     0.099 A 
HETATM   19  C   UNL     1     -46.128  56.131 -60.048  1.00  0.00     0.098 A 
HETATM   20  C   UNL     1     -45.915  57.485 -60.257  1.00  0.00     0.040 A 
HETATM   21  C   UNL     1     -44.605  57.963 -60.352  1.00  0.00     0.010 A 
BRANCH  18  22
HETATM   22  O   UNL     1     -45.339  53.929 -59.722  1.00  0.00    -0.358 OA
HETATM   23  H   UNL     1     -44.824  53.402 -60.357  1.00  0.00     0.218 HD
ENDBRANCH  18  22
BRANCH  19  24
HETATM   24  O   UNL     1     -47.407  55.666 -59.939  1.00  0.00    -0.358 OA
HETATM   25  H   UNL     1     -47.542  55.137 -60.750  1.00  0.00     0.218 HD
ENDBRANCH  19  24
ENDBRANCH  15  16
ENDBRANCH  14  15
ENDBRANCH  11  14
ENDBRANCH   9  10
BRANCH   7  26
HETATM   26  C   UNL     1     -41.671  58.785 -52.057  1.00  0.00     0.033 A 
HETATM   27  S   UNL     1     -40.144  58.863 -51.266  1.00  0.00    -0.100 SA
HETATM   28  C   UNL     1     -40.694  60.029 -50.147  1.00  0.00     0.050 A 
HETATM   29  C   UNL     1     -42.015  60.353 -50.346  1.00  0.00     0.008 A 
HETATM   30  C   UNL     1     -42.579  59.629 -51.437  1.00  0.00     0.021 A 
ENDBRANCH   7  26
BRANCH   1  31
HETATM   31  C   UNL     1     -41.931  53.513 -52.691  1.00  0.00     0.104 C 
HETATM   32  C   UNL     1     -42.849  53.924 -51.540  1.00  0.00     0.034 C 
HETATM   33  C   UNL     1     -40.470  53.438 -52.248  1.00  0.00     0.034 C 
ENDBRANCH   1  31
TORSDOF 8
ENDMDL
MODEL 8
REMARK VINA RESULT:      -7.7      3.719      8.664
REMARK  8 active torsions:
REMARK  status: ('A' for Active; 'I' for Inactive)
REMARK    1  A    between atoms: C_2  and  N_3 
REMARK    2  A    between atoms: C_9  and  C_10 
REMARK    3  A    between atoms: C_16  and  C_17 
REMARK       I    between atoms: C_17  and  N_18 
REMARK    4  A    between atoms: N_18  and  C_19 
REMARK    5  A    between atoms: C_19  and  C_20 
REMARK    6  A    between atoms: C_20  and  C_21 
REMARK    7  A    between atoms: C_23  and  O_24 
REMARK    8  A    between atoms: C_25  and  O_26 
ROOT
HETATM    1  N   UNL     1     -44.006  56.992 -52.990  1.00  0.00    -0.248 N 
HETATM    2  N   UNL     1     -44.690  57.907 -53.721  1.00  0.00    -0.182 NA
HETATM    3  C   UNL     1     -44.413  57.570 -54.984  1.00  0.00     0.155 A 
HETATM    4  C   UNL     1     -43.594  56.425 -55.083  1.00  0.00     0.046 A 
HETATM    5  C   UNL     1     -43.333  56.080 -53.764  1.00  0.00     0.159 A 
HETATM    6  N   UNL     1     -42.562  55.065 -53.329  1.00  0.00    -0.228 NA
HETATM    7  C   UNL     1     -41.992  54.328 -54.314  1.00  0.00     0.077 A 
HETATM    8  C   UNL     1     -42.167  54.582 -55.670  1.00  0.00     0.051 A 
HETATM    9  C   UNL     1     -42.993  55.639 -56.073  1.00  0.00     0.049 A 
ENDROOT
BRANCH   9  10
HETATM   10  C   UNL     1     -43.143  55.900 -57.516  1.00  0.00     0.252 C 
HETATM   11  N   UNL     1     -43.985  55.065 -58.226  1.00  0.00    -0.357 N 
HETATM   12  H   UNL     1     -44.260  54.191 -57.793  1.00  0.00     0.162 HD
HETATM   13  O   UNL     1     -42.485  56.797 -58.029  1.00  0.00    -0.268 OA
BRANCH  11  14
HETATM   14  C   UNL     1     -43.980  55.117 -59.679  1.00  0.00     0.127 C 
BRANCH  14  15
HETATM   15  C   UNL     1     -45.304  55.620 -60.253  1.00  0.00     0.058 C 
BRANCH  15  16
HETATM   16  C   UNL     1     -45.584  57.032 -59.795  1.00  0.00    -0.054 A 
HETATM   17  C   UNL     1     -46.583  57.279 -58.838  1.00  0.00     0.046 A 
HETATM   18  C   UNL     1     -46.786  58.575 -58.376  1.00  0.00     0.099 A 
HETATM   19  C   UNL     1     -46.007  59.624 -58.855  1.00  0.00     0.098 A 
HETATM   20  C   UNL     1     -45.019  59.399 -59.802  1.00  0.00     0.040 A 
HETATM   21  C   UNL     1     -44.805  58.100 -60.271  1.00  0.00     0.010 A 
BRANCH  18  22
HETATM   22  O   UNL     1     -47.735  58.867 -57.435  1.00  0.00    -0.358 OA
HETATM   23  H   UNL     1     -47.785  59.835 -57.348  1.00  0.00     0.218 HD
ENDBRANCH  18  22
BRANCH  19  24
HETATM   24  O   UNL     1     -46.205  60.891 -58.386  1.00  0.00    -0.358 OA
HETATM   25  H   UNL     1     -47.157  60.922 -58.167  1.00  0.00     0.218 HD
ENDBRANCH  19  24
ENDBRANCH  15  16
ENDBRANCH  14  15
ENDBRANCH  11  14
ENDBRANCH   9  10
BRANCH   7  26
HETATM   26  C   UNL     1     -41.137  53.240 -53.809  1.00  0.00     0.033 A 
HETATM   27  S   UNL     1     -40.558  53.229 -52.188  1.00  0.00    -0.100 SA
HETATM   28  C   UNL     1     -39.718  51.759 -52.414  1.00  0.00     0.050 A 
HETATM   29  C   UNL     1     -39.852  51.281 -53.696  1.00  0.00     0.008 A 
HETATM   30  C   UNL     1     -40.659  52.138 -54.500  1.00  0.00     0.021 A 
ENDBRANCH   7  26
BRANCH   1  31
HETATM   31  C   UNL     1     -44.022  57.083 -51.534  1.00  0.00     0.104 C 
HETATM   32  C   UNL     1     -45.110  58.034 -51.032  1.00  0.00     0.034 C 
HETATM   33  C   UNL     1     -42.651  57.444 -50.962  1.00  0.00     0.034 C 
ENDBRANCH   1  31
TORSDOF 8
ENDMDL
MODEL 9
REMARK VINA RESULT:      -7.7      3.824      7.615
REMARK  8 active torsions:
REMARK  status: ('A' for Active; 'I' for Inactive)
REMARK    1  A    between atoms: C_2  and  N_3 
REMARK    2  A    between atoms: C_9  and  C_10 
REMARK    3  A    between atoms: C_16  and  C_17 
REMARK       I    between atoms: C_17  and  N_18 
REMARK    4  A    between atoms: N_18  and  C_19 
REMARK    5  A    between atoms: C_19  and  C_20 
REMARK    6  A    between atoms: C_20  and  C_21 
REMARK    7  A    between atoms: C_23  and  O_24 
REMARK    8  A    between atoms: C_25  and  O_26 
ROOT
HETATM    1  N   UNL     1     -40.555  53.352 -52.076  1.00  0.00    -0.248 N 
HETATM    2  N   UNL     1     -40.632  52.399 -53.037  1.00  0.00    -0.182 NA
HETATM    3  C   UNL     1     -41.152  53.050 -54.083  1.00  0.00     0.155 A 
HETATM    4  C   UNL     1     -41.374  54.419 -53.827  1.00  0.00     0.046 A 
HETATM    5  C   UNL     1     -40.988  54.582 -52.503  1.00  0.00     0.159 A 
HETATM    6  N   UNL     1     -41.043  55.716 -51.777  1.00  0.00    -0.228 NA
HETATM    7  C   UNL     1     -41.539  56.788 -52.443  1.00  0.00     0.077 A 
HETATM    8  C   UNL     1     -41.968  56.748 -53.764  1.00  0.00     0.051 A 
HETATM    9  C   UNL     1     -41.874  55.549 -54.484  1.00  0.00     0.049 A 
ENDROOT
BRANCH   9  10
HETATM   10  C   UNL     1     -42.358  55.529 -55.876  1.00  0.00     0.252 C 
HETATM   11  N   UNL     1     -42.038  56.612 -56.672  1.00  0.00    -0.357 N 
HETATM   12  H   UNL     1     -41.711  57.454 -56.216  1.00  0.00     0.162 HD
HETATM   13  O   UNL     1     -43.057  54.594 -56.248  1.00  0.00    -0.268 OA
BRANCH  11  14
HETATM   14  C   UNL     1     -42.689  56.762 -57.964  1.00  0.00     0.127 C 
BRANCH  14  15
HETATM   15  C   UNL     1     -44.007  57.529 -57.874  1.00  0.00     0.058 C 
BRANCH  15  16
HETATM   16  C   UNL     1     -44.908  57.184 -59.036  1.00  0.00    -0.054 A 
HETATM   17  C   UNL     1     -44.507  56.225 -59.981  1.00  0.00     0.046 A 
HETATM   18  C   UNL     1     -45.374  55.868 -61.008  1.00  0.00     0.099 A 
HETATM   19  C   UNL     1     -46.632  56.454 -61.103  1.00  0.00     0.098 A 
HETATM   20  C   UNL     1     -47.044  57.404 -60.181  1.00  0.00     0.040 A 
HETATM   21  C   UNL     1     -46.182  57.767 -59.143  1.00  0.00     0.010 A 
BRANCH  18  22
HETATM   22  O   UNL     1     -45.037  54.931 -61.946  1.00  0.00    -0.358 OA
HETATM   23  H   UNL     1     -45.332  55.253 -62.815  1.00  0.00     0.218 HD
ENDBRANCH  18  22
BRANCH  19  24
HETATM   24  O   UNL     1     -47.481  56.087 -62.108  1.00  0.00    -0.358 OA
HETATM   25  H   UNL     1     -47.783  55.192 -61.856  1.00  0.00     0.218 HD
ENDBRANCH  19  24
ENDBRANCH  15  16
ENDBRANCH  14  15
ENDBRANCH  11  14
ENDBRANCH   9  10
BRANCH   7  26
HETATM   26  C   UNL     1     -41.607  58.006 -51.617  1.00  0.00     0.033 A 
HETATM   27  S   UNL     1     -42.982  59.042 -51.653  1.00  0.00    -0.100 SA
HETATM   28  C   UNL     1     -42.300  60.117 -50.515  1.00  0.00     0.050 A 
HETATM   29  C   UNL     1     -41.046  59.720 -50.117  1.00  0.00     0.008 A 
HETATM   30  C   UNL     1     -40.644  58.513 -50.759  1.00  0.00     0.021 A 
ENDBRANCH   7  26
BRANCH   1  31
HETATM   31  C   UNL     1     -40.081  52.989 -50.745  1.00  0.00     0.104 C 
HETATM   32  C   UNL     1     -40.083  51.475 -50.531  1.00  0.00     0.034 C 
HETATM   33  C   UNL     1     -40.848  53.715 -49.640  1.00  0.00     0.034 C 
ENDBRANCH   1  31
TORSDOF 8
ENDMDL
MODEL 10
REMARK VINA RESULT:      -7.7      2.069      4.537
REMARK  8 active torsions:
REMARK  status: ('A' for Active; 'I' for Inactive)
REMARK    1  A    between atoms: C_2  and  N_3 
REMARK    2  A    between atoms: C_9  and  C_10 
REMARK    3  A    between atoms: C_16  and  C_17 
REMARK       I    between atoms: C_17  and  N_18 
REMARK    4  A    between atoms: N_18  and  C_19 
REMARK    5  A    between atoms: C_19  and  C_20 
REMARK    6  A    between atoms: C_20  and  C_21 
REMARK    7  A    between atoms: C_23  and  O_24 
REMARK    8  A    between atoms: C_25  and  O_26 
ROOT
HETATM    1  N   UNL     1     -45.326  60.067 -52.965  1.00  0.00    -0.248 N 
HETATM    2  N   UNL     1     -45.153  59.629 -51.694  1.00  0.00    -0.182 NA
HETATM    3  C   UNL     1     -44.572  58.435 -51.850  1.00  0.00     0.155 A 
HETATM    4  C   UNL     1     -44.328  58.112 -53.202  1.00  0.00     0.046 A 
HETATM    5  C   UNL     1     -44.846  59.191 -53.906  1.00  0.00     0.159 A 
HETATM    6  N   UNL     1     -44.884  59.342 -55.244  1.00  0.00    -0.228 NA
HETATM    7  C   UNL     1     -44.358  58.306 -55.943  1.00  0.00     0.077 A 
HETATM    8  C   UNL     1     -43.821  57.168 -55.353  1.00  0.00     0.051 A 
HETATM    9  C   UNL     1     -43.788  57.065 -53.956  1.00  0.00     0.049 A 
ENDROOT
BRANCH   9  10
HETATM   10  C   UNL     1     -43.234  55.837 -53.358  1.00  0.00     0.252 C 
HETATM   11  N   UNL     1     -42.008  55.937 -52.728  1.00  0.00    -0.357 N 
HETATM   12  H   UNL     1     -41.448  56.760 -52.912  1.00  0.00     0.162 HD
HETATM   13  O   UNL     1     -43.848  54.784 -53.487  1.00  0.00    -0.268 OA
BRANCH  11  14
HETATM   14  C   UNL     1     -41.306  54.724 -52.341  1.00  0.00     0.127 C 
BRANCH  14  15
HETATM   15  C   UNL     1     -40.554  54.082 -53.506  1.00  0.00     0.058 C 
BRANCH  15  16
HETATM   16  C   UNL     1     -40.260  52.629 -53.218  1.00  0.00    -0.054 A 
HETATM   17  C   UNL     1     -40.314  51.679 -54.252  1.00  0.00     0.046 A 
HETATM   18  C   UNL     1     -39.976  50.355 -53.987  1.00  0.00     0.099 A 
HETATM   19  C   UNL     1     -39.588  49.970 -52.708  1.00  0.00     0.098 A 
HETATM   20  C   UNL     1     -39.532  50.893 -51.674  1.00  0.00     0.040 A 
HETATM   21  C   UNL     1     -39.866  52.226 -51.931  1.00  0.00     0.010 A 
BRANCH  18  22
HETATM   22  O   UNL     1     -39.999  49.395 -54.961  1.00  0.00    -0.358 OA
HETATM   23  H   UNL     1     -40.914  49.308 -55.278  1.00  0.00     0.218 HD
ENDBRANCH  18  22
BRANCH  19  24
HETATM   24  O   UNL     1     -39.246  48.671 -52.461  1.00  0.00    -0.358 OA
HETATM   25  H   UNL     1     -38.329  48.721 -52.127  1.00  0.00     0.218 HD
ENDBRANCH  19  24
ENDBRANCH  15  16
ENDBRANCH  14  15
ENDBRANCH  11  14
ENDBRANCH   9  10
BRANCH   7  26
HETATM   26  C   UNL     1     -44.434  58.489 -57.403  1.00  0.00     0.033 A 
HETATM   27  S   UNL     1     -43.771  59.879 -58.172  1.00  0.00    -0.100 SA
HETATM   28  C   UNL     1     -44.252  59.348 -59.722  1.00  0.00     0.050 A 
HETATM   29  C   UNL     1     -44.919  58.147 -59.673  1.00  0.00     0.008 A 
HETATM   30  C   UNL     1     -45.032  57.660 -58.338  1.00  0.00     0.021 A 
ENDBRANCH   7  26
BRANCH   1  31
HETATM   31  C   UNL     1     -46.002  61.339 -53.197  1.00  0.00     0.104 C 
HETATM   32  C   UNL     1     -45.112  62.532 -52.845  1.00  0.00     0.034 C 
HETATM   33  C   UNL     1     -47.352  61.415 -52.486  1.00  0.00     0.034 C 
ENDBRANCH   1  31
TORSDOF 8
ENDMDL
