MODEL 1
REMARK VINA RESULT:      -8.5      0.000      0.000
REMARK  5 active torsions:
REMARK  status: ('A' for Active; 'I' for Inactive)
REMARK    1  A    between atoms: C_6  and  N_7 
REMARK       I    between atoms: N_7  and  C_8 
REMARK    2  A    between atoms: C_8  and  C_9 
REMARK    3  A    between atoms: C_9  and  O_10 
REMARK    4  A    between atoms: O_10  and  C_11 
REMARK    5  A    between atoms: C_20  and  C_21 
ROOT
HETATM    1  C   UNL     1     -43.305  56.283 -54.768  1.00  0.00     0.073 C 
HETATM    2  C   UNL     1     -43.072  55.561 -53.492  1.00  0.00     0.065 A 
HETATM    3  N   UNL     1     -43.110  54.223 -53.464  1.00  0.00    -0.177 NA
HETATM    4  N   UNL     1     -42.891  53.917 -52.175  1.00  0.00    -0.262 N 
HETATM    5  H   UNL     1     -42.846  52.936 -51.917  1.00  0.00     0.191 HD
HETATM    6  C   UNL     1     -42.714  55.009 -51.366  1.00  0.00     0.137 A 
HETATM    7  C   UNL     1     -42.818  56.103 -52.203  1.00  0.00     0.046 A 
ENDROOT
BRANCH   6   8
HETATM    8  N   UNL     1     -42.421  54.963 -50.018  1.00  0.00    -0.309 N 
HETATM    9  C   UNL     1     -41.217  54.690 -49.422  1.00  0.00     0.247 C 
HETATM   10  O   UNL     1     -41.069  54.943 -48.224  1.00  0.00    -0.271 OA
HETATM   11  H   UNL     1     -43.174  55.146 -49.363  1.00  0.00     0.170 HD
BRANCH   9  12
HETATM   12  C   UNL     1     -40.158  53.913 -50.203  1.00  0.00     0.278 C 
BRANCH  12  13
HETATM   13  O   UNL     1     -40.203  52.513 -49.972  1.00  0.00    -0.342 OA
BRANCH  13  14
HETATM   14  C   UNL     1     -39.995  51.728 -51.080  1.00  0.00     0.072 A 
HETATM   15  C   UNL     1     -40.066  52.400 -52.303  1.00  0.00     0.082 A 
HETATM   16  C   UNL     1     -39.871  51.699 -53.491  1.00  0.00     0.157 A 
HETATM   17  F   UNL     1     -39.927  52.357 -54.656  1.00  0.00    -0.203 F 
HETATM   18  C   UNL     1     -39.616  50.335 -53.471  1.00  0.00     0.155 A 
HETATM   19  F   UNL     1     -39.427  49.664 -54.614  1.00  0.00    -0.203 F 
HETATM   20  C   UNL     1     -39.556  49.652 -52.263  1.00  0.00     0.048 A 
HETATM   21  C   UNL     1     -39.748  50.348 -51.065  1.00  0.00     0.040 A 
ENDBRANCH  13  14
ENDBRANCH  12  13
ENDBRANCH   9  12
ENDBRANCH   6   8
BRANCH   7  22
HETATM   22  C   UNL     1     -42.869  57.476 -51.740  1.00  0.00    -0.020 A 
HETATM   23  C   UNL     1     -44.083  58.087 -51.409  1.00  0.00     0.014 A 
HETATM   24  C   UNL     1     -44.109  59.434 -51.034  1.00  0.00     0.020 A 
HETATM   25  C   UNL     1     -42.921  60.164 -50.983  1.00  0.00     0.011 A 
HETATM   26 BR   UNL     1     -42.959  61.990 -50.499  1.00  0.00    -0.051 Br
HETATM   27  C   UNL     1     -41.705  59.559 -51.294  1.00  0.00     0.020 A 
HETATM   28  C   UNL     1     -41.680  58.215 -51.671  1.00  0.00     0.014 A 
ENDBRANCH   7  22
TORSDOF 5
ENDMDL
MODEL 2
REMARK VINA RESULT:      -8.4      4.101      6.734
REMARK  5 active torsions:
REMARK  status: ('A' for Active; 'I' for Inactive)
REMARK    1  A    between atoms: C_6  and  N_7 
REMARK       I    between atoms: N_7  and  C_8 
REMARK    2  A    between atoms: C_8  and  C_9 
REMARK    3  A    between atoms: C_9  and  O_10 
REMARK    4  A    between atoms: O_10  and  C_11 
REMARK    5  A    between atoms: C_20  and  C_21 
ROOT
HETATM    1  C   UNL     1     -44.567  54.256 -50.394  1.00  0.00     0.073 C 
HETATM    2  C   UNL     1     -43.803  55.463 -50.797  1.00  0.00     0.065 A 
HETATM    3  N   UNL     1     -44.284  56.682 -50.521  1.00  0.00    -0.177 NA
HETATM    4  N   UNL     1     -43.372  57.518 -51.042  1.00  0.00    -0.262 N 
HETATM    5  H   UNL     1     -43.515  58.517 -50.925  1.00  0.00     0.191 HD
HETATM    6  C   UNL     1     -42.318  56.886 -51.648  1.00  0.00     0.137 A 
HETATM    7  C   UNL     1     -42.567  55.535 -51.495  1.00  0.00     0.046 A 
ENDROOT
BRANCH   6   8
HETATM    8  N   UNL     1     -41.225  57.516 -52.210  1.00  0.00    -0.309 N 
HETATM    9  C   UNL     1     -41.203  58.396 -53.260  1.00  0.00     0.247 C 
HETATM   10  O   UNL     1     -40.184  59.059 -53.465  1.00  0.00    -0.271 OA
HETATM   11  H   UNL     1     -40.311  57.316 -51.818  1.00  0.00     0.170 HD
BRANCH   9  12
HETATM   12  C   UNL     1     -42.363  58.401 -54.254  1.00  0.00     0.278 C 
BRANCH  12  13
HETATM   13  O   UNL     1     -41.975  58.764 -55.570  1.00  0.00    -0.342 OA
BRANCH  13  14
HETATM   14  C   UNL     1     -42.345  57.883 -56.556  1.00  0.00     0.072 A 
HETATM   15  C   UNL     1     -42.597  56.580 -56.121  1.00  0.00     0.082 A 
HETATM   16  C   UNL     1     -42.979  55.604 -57.039  1.00  0.00     0.157 A 
HETATM   17  F   UNL     1     -43.231  54.361 -56.607  1.00  0.00    -0.203 F 
HETATM   18  C   UNL     1     -43.102  55.914 -58.386  1.00  0.00     0.155 A 
HETATM   19  F   UNL     1     -43.472  54.974 -59.266  1.00  0.00    -0.203 F 
HETATM   20  C   UNL     1     -42.842  57.202 -58.835  1.00  0.00     0.048 A 
HETATM   21  C   UNL     1     -42.461  58.189 -57.920  1.00  0.00     0.040 A 
ENDBRANCH  13  14
ENDBRANCH  12  13
ENDBRANCH   9  12
ENDBRANCH   6   8
BRANCH   7  22
HETATM   22  C   UNL     1     -41.794  54.490 -52.139  1.00  0.00    -0.020 A 
HETATM   23  C   UNL     1     -42.037  54.120 -53.466  1.00  0.00     0.014 A 
HETATM   24  C   UNL     1     -41.326  53.061 -54.037  1.00  0.00     0.020 A 
HETATM   25  C   UNL     1     -40.369  52.380 -53.283  1.00  0.00     0.011 A 
HETATM   26 BR   UNL     1     -39.425  50.933 -54.048  1.00  0.00    -0.051 Br
HETATM   27  C   UNL     1     -40.109  52.752 -51.966  1.00  0.00     0.020 A 
HETATM   28  C   UNL     1     -40.822  53.808 -51.395  1.00  0.00     0.014 A 
ENDBRANCH   7  22
TORSDOF 5
ENDMDL
MODEL 3
REMARK VINA RESULT:      -8.2      2.212      2.910
REMARK  5 active torsions:
REMARK  status: ('A' for Active; 'I' for Inactive)
REMARK    1  A    between atoms: C_6  and  N_7 
REMARK       I    between atoms: N_7  and  C_8 
REMARK    2  A    between atoms: C_8  and  C_9 
REMARK    3  A    between atoms: C_9  and  O_10 
REMARK    4  A    between atoms: O_10  and  C_11 
REMARK    5  A    between atoms: C_20  and  C_21 
ROOT
HETATM    1  C   UNL     1     -43.402  59.485 -55.678  1.00  0.00     0.073 C 
HETATM    2  C   UNL     1     -43.844  58.263 -54.962  1.00  0.00     0.065 A 
HETATM    3  N   UNL     1     -44.921  57.590 -55.388  1.00  0.00    -0.177 NA
HETATM    4  N   UNL     1     -45.044  56.583 -54.509  1.00  0.00    -0.262 N 
HETATM    5  H   UNL     1     -45.792  55.910 -54.654  1.00  0.00     0.191 HD
HETATM    6  C   UNL     1     -44.088  56.579 -53.527  1.00  0.00     0.137 A 
HETATM    7  C   UNL     1     -43.279  57.665 -53.803  1.00  0.00     0.046 A 
ENDROOT
BRANCH   6   8
HETATM    8  N   UNL     1     -43.962  55.622 -52.540  1.00  0.00    -0.309 N 
HETATM    9  C   UNL     1     -43.011  54.641 -52.429  1.00  0.00     0.247 C 
HETATM   10  O   UNL     1     -42.892  54.040 -51.359  1.00  0.00    -0.271 OA
HETATM   11  H   UNL     1     -44.649  55.619 -51.794  1.00  0.00     0.170 HD
BRANCH   9  12
HETATM   12  C   UNL     1     -42.253  54.192 -53.677  1.00  0.00     0.278 C 
BRANCH  12  13
HETATM   13  O   UNL     1     -40.854  54.066 -53.471  1.00  0.00    -0.342 OA
BRANCH  13  14
HETATM   14  C   UNL     1     -40.415  52.800 -53.176  1.00  0.00     0.072 A 
HETATM   15  C   UNL     1     -40.473  51.891 -54.236  1.00  0.00     0.082 A 
HETATM   16  C   UNL     1     -40.052  50.577 -54.046  1.00  0.00     0.157 A 
HETATM   17  F   UNL     1     -40.100  49.719 -55.075  1.00  0.00    -0.203 F 
HETATM   18  C   UNL     1     -39.584  50.158 -52.809  1.00  0.00     0.155 A 
HETATM   19  F   UNL     1     -39.178  48.894 -52.630  1.00  0.00    -0.203 F 
HETATM   20  C   UNL     1     -39.533  51.046 -51.743  1.00  0.00     0.048 A 
HETATM   21  C   UNL     1     -39.950  52.369 -51.924  1.00  0.00     0.040 A 
ENDBRANCH  13  14
ENDBRANCH  12  13
ENDBRANCH   9  12
ENDBRANCH   6   8
BRANCH   7  22
HETATM   22  C   UNL     1     -42.237  58.145 -52.916  1.00  0.00    -0.020 A 
HETATM   23  C   UNL     1     -42.546  58.833 -51.737  1.00  0.00     0.014 A 
HETATM   24  C   UNL     1     -41.520  59.347 -50.939  1.00  0.00     0.020 A 
HETATM   25  C   UNL     1     -40.189  59.165 -51.316  1.00  0.00     0.011 A 
HETATM   26 BR   UNL     1     -38.803  59.881 -50.249  1.00  0.00    -0.051 Br
HETATM   27  C   UNL     1     -39.872  58.467 -52.479  1.00  0.00     0.020 A 
HETATM   28  C   UNL     1     -40.896  57.957 -53.278  1.00  0.00     0.014 A 
ENDBRANCH   7  22
TORSDOF 5
ENDMDL
MODEL 4
REMARK VINA RESULT:      -8.2      2.864      4.223
REMARK  5 active torsions:
REMARK  status: ('A' for Active; 'I' for Inactive)
REMARK    1  A    between atoms: C_6  and  N_7 
REMARK       I    between atoms: N_7  and  C_8 
REMARK    2  A    between atoms: C_8  and  C_9 
REMARK    3  A    between atoms: C_9  and  O_10 
REMARK    4  A    between atoms: O_10  and  C_11 
REMARK    5  A    between atoms: C_20  and  C_21 
ROOT
HETATM    1  C   UNL     1     -42.143  60.238 -53.217  1.00  0.00     0.073 C 
HETATM    2  C   UNL     1     -42.576  59.016 -52.496  1.00  0.00     0.065 A 
HETATM    3  N   UNL     1     -42.544  58.981 -51.158  1.00  0.00    -0.177 NA
HETATM    4  N   UNL     1     -42.965  57.743 -50.854  1.00  0.00    -0.262 N 
HETATM    5  H   UNL     1     -43.052  57.495 -49.872  1.00  0.00     0.191 HD
HETATM    6  C   UNL     1     -43.268  56.973 -51.946  1.00  0.00     0.137 A 
HETATM    7  C   UNL     1     -43.032  57.784 -53.040  1.00  0.00     0.046 A 
ENDROOT
BRANCH   6   8
HETATM    8  N   UNL     1     -43.773  55.689 -51.901  1.00  0.00    -0.309 N 
HETATM    9  C   UNL     1     -43.263  54.602 -51.240  1.00  0.00     0.247 C 
HETATM   10  O   UNL     1     -43.972  53.603 -51.093  1.00  0.00    -0.271 OA
HETATM   11  H   UNL     1     -44.624  55.497 -52.418  1.00  0.00     0.170 HD
BRANCH   9  12
HETATM   12  C   UNL     1     -41.782  54.583 -50.867  1.00  0.00     0.278 C 
BRANCH  12  13
HETATM   13  O   UNL     1     -40.917  54.681 -51.989  1.00  0.00    -0.342 OA
BRANCH  13  14
HETATM   14  C   UNL     1     -40.548  53.484 -52.551  1.00  0.00     0.072 A 
HETATM   15  C   UNL     1     -39.970  52.568 -51.668  1.00  0.00     0.082 A 
HETATM   16  C   UNL     1     -39.557  51.322 -52.135  1.00  0.00     0.157 A 
HETATM   17  F   UNL     1     -39.018  50.447 -51.275  1.00  0.00    -0.203 F 
HETATM   18  C   UNL     1     -39.706  50.985 -53.472  1.00  0.00     0.155 A 
HETATM   19  F   UNL     1     -39.311  49.785 -53.917  1.00  0.00    -0.203 F 
HETATM   20  C   UNL     1     -40.266  51.891 -54.364  1.00  0.00     0.048 A 
HETATM   21  C   UNL     1     -40.687  53.143 -53.905  1.00  0.00     0.040 A 
ENDBRANCH  13  14
ENDBRANCH  12  13
ENDBRANCH   9  12
ENDBRANCH   6   8
BRANCH   7  22
HETATM   22  C   UNL     1     -43.056  57.319 -54.413  1.00  0.00    -0.020 A 
HETATM   23  C   UNL     1     -42.102  56.412 -54.890  1.00  0.00     0.014 A 
HETATM   24  C   UNL     1     -42.106  56.038 -56.236  1.00  0.00     0.020 A 
HETATM   25  C   UNL     1     -43.067  56.564 -57.101  1.00  0.00     0.011 A 
HETATM   26 BR   UNL     1     -43.057  56.076 -58.927  1.00  0.00    -0.051 Br
HETATM   27  C   UNL     1     -44.030  57.454 -56.632  1.00  0.00     0.020 A 
HETATM   28  C   UNL     1     -44.024  57.830 -55.288  1.00  0.00     0.014 A 
ENDBRANCH   7  22
TORSDOF 5
ENDMDL
MODEL 5
REMARK VINA RESULT:      -8.1      2.002      2.756
REMARK  5 active torsions:
REMARK  status: ('A' for Active; 'I' for Inactive)
REMARK    1  A    between atoms: C_6  and  N_7 
REMARK       I    between atoms: N_7  and  C_8 
REMARK    2  A    between atoms: C_8  and  C_9 
REMARK    3  A    between atoms: C_9  and  O_10 
REMARK    4  A    between atoms: O_10  and  C_11 
REMARK    5  A    between atoms: C_20  and  C_21 
ROOT
HETATM    1  C   UNL     1     -42.638  57.872 -57.223  1.00  0.00     0.073 C 
HETATM    2  C   UNL     1     -42.907  56.677 -56.385  1.00  0.00     0.065 A 
HETATM    3  N   UNL     1     -42.863  55.454 -56.929  1.00  0.00    -0.177 NA
HETATM    4  N   UNL     1     -43.178  54.634 -55.914  1.00  0.00    -0.262 N 
HETATM    5  H   UNL     1     -43.179  53.633 -56.090  1.00  0.00     0.191 HD
HETATM    6  C   UNL     1     -43.427  55.280 -54.732  1.00  0.00     0.137 A 
HETATM    7  C   UNL     1     -43.247  56.623 -55.006  1.00  0.00     0.046 A 
ENDROOT
BRANCH   6   8
HETATM    8  N   UNL     1     -43.716  54.663 -53.531  1.00  0.00    -0.309 N 
HETATM    9  C   UNL     1     -42.919  54.554 -52.422  1.00  0.00     0.247 C 
HETATM   10  O   UNL     1     -43.424  54.202 -51.353  1.00  0.00    -0.271 OA
HETATM   11  H   UNL     1     -44.625  54.223 -53.433  1.00  0.00     0.170 HD
BRANCH   9  12
HETATM   12  C   UNL     1     -41.405  54.691 -52.574  1.00  0.00     0.278 C 
BRANCH  12  13
HETATM   13  O   UNL     1     -40.873  53.903 -53.629  1.00  0.00    -0.342 OA
BRANCH  13  14
HETATM   14  C   UNL     1     -40.428  52.657 -53.265  1.00  0.00     0.072 A 
HETATM   15  C   UNL     1     -40.386  51.717 -54.298  1.00  0.00     0.082 A 
HETATM   16  C   UNL     1     -39.951  50.420 -54.038  1.00  0.00     0.157 A 
HETATM   17  F   UNL     1     -39.902  49.532 -55.041  1.00  0.00    -0.203 F 
HETATM   18  C   UNL     1     -39.568  50.048 -52.757  1.00  0.00     0.155 A 
HETATM   19  F   UNL     1     -39.148  48.800 -52.511  1.00  0.00    -0.203 F 
HETATM   20  C   UNL     1     -39.618  50.967 -51.717  1.00  0.00     0.048 A 
HETATM   21  C   UNL     1     -40.050  52.274 -51.969  1.00  0.00     0.040 A 
ENDBRANCH  13  14
ENDBRANCH  12  13
ENDBRANCH   9  12
ENDBRANCH   6   8
BRANCH   7  22
HETATM   22  C   UNL     1     -43.577  57.690 -54.081  1.00  0.00    -0.020 A 
HETATM   23  C   UNL     1     -44.854  58.262 -54.058  1.00  0.00     0.014 A 
HETATM   24  C   UNL     1     -45.122  59.338 -53.207  1.00  0.00     0.020 A 
HETATM   25  C   UNL     1     -44.116  59.833 -52.375  1.00  0.00     0.011 A 
HETATM   26 BR   UNL     1     -44.473  61.303 -51.242  1.00  0.00    -0.051 Br
HETATM   27  C   UNL     1     -42.847  59.259 -52.379  1.00  0.00     0.020 A 
HETATM   28  C   UNL     1     -42.579  58.186 -53.232  1.00  0.00     0.014 A 
ENDBRANCH   7  22
TORSDOF 5
ENDMDL
MODEL 6
REMARK VINA RESULT:      -8.1      3.614      5.462
REMARK  5 active torsions:
REMARK  status: ('A' for Active; 'I' for Inactive)
REMARK    1  A    between atoms: C_6  and  N_7 
REMARK       I    between atoms: N_7  and  C_8 
REMARK    2  A    between atoms: C_8  and  C_9 
REMARK    3  A    between atoms: C_9  and  O_10 
REMARK    4  A    between atoms: O_10  and  C_11 
REMARK    5  A    between atoms: C_20  and  C_21 
ROOT
HETATM    1  C   UNL     1     -42.458  57.612 -57.671  1.00  0.00     0.073 C 
HETATM    2  C   UNL     1     -43.333  57.776 -56.484  1.00  0.00     0.065 A 
HETATM    3  N   UNL     1     -44.137  58.842 -56.388  1.00  0.00    -0.177 NA
HETATM    4  N   UNL     1     -44.746  58.685 -55.202  1.00  0.00    -0.262 N 
HETATM    5  H   UNL     1     -45.439  59.375 -54.924  1.00  0.00     0.191 HD
HETATM    6  C   UNL     1     -44.365  57.557 -54.524  1.00  0.00     0.137 A 
HETATM    7  C   UNL     1     -43.444  56.933 -55.345  1.00  0.00     0.046 A 
ENDROOT
BRANCH   6   8
HETATM    8  N   UNL     1     -44.882  57.140 -53.314  1.00  0.00    -0.309 N 
HETATM    9  C   UNL     1     -44.400  57.392 -52.056  1.00  0.00     0.247 C 
HETATM   10  O   UNL     1     -45.121  57.166 -51.081  1.00  0.00    -0.271 OA
HETATM   11  H   UNL     1     -45.721  56.570 -53.329  1.00  0.00     0.170 HD
BRANCH   9  12
HETATM   12  C   UNL     1     -42.929  57.768 -51.882  1.00  0.00     0.278 C 
BRANCH  12  13
HETATM   13  O   UNL     1     -42.380  57.335 -50.646  1.00  0.00    -0.342 OA
BRANCH  13  14
HETATM   14  C   UNL     1     -41.944  56.034 -50.621  1.00  0.00     0.072 A 
HETATM   15  C   UNL     1     -40.655  55.850 -50.114  1.00  0.00     0.082 A 
HETATM   16  C   UNL     1     -40.114  54.568 -50.045  1.00  0.00     0.157 A 
HETATM   17  F   UNL     1     -38.882  54.404 -49.543  1.00  0.00    -0.203 F 
HETATM   18  C   UNL     1     -40.841  53.471 -50.484  1.00  0.00     0.155 A 
HETATM   19  F   UNL     1     -40.319  52.240 -50.413  1.00  0.00    -0.203 F 
HETATM   20  C   UNL     1     -42.118  53.640 -51.003  1.00  0.00     0.048 A 
HETATM   21  C   UNL     1     -42.671  54.923 -51.074  1.00  0.00     0.040 A 
ENDBRANCH  13  14
ENDBRANCH  12  13
ENDBRANCH   9  12
ENDBRANCH   6   8
BRANCH   7  22
HETATM   22  C   UNL     1     -42.648  55.789 -54.946  1.00  0.00    -0.020 A 
HETATM   23  C   UNL     1     -41.326  55.939 -54.513  1.00  0.00     0.014 A 
HETATM   24  C   UNL     1     -40.559  54.812 -54.204  1.00  0.00     0.020 A 
HETATM   25  C   UNL     1     -41.118  53.538 -54.322  1.00  0.00     0.011 A 
HETATM   26 BR   UNL     1     -40.074  52.014 -53.927  1.00  0.00    -0.051 Br
HETATM   27  C   UNL     1     -42.438  53.380 -54.736  1.00  0.00     0.020 A 
HETATM   28  C   UNL     1     -43.202  54.506 -55.047  1.00  0.00     0.014 A 
ENDBRANCH   7  22
TORSDOF 5
ENDMDL
MODEL 7
REMARK VINA RESULT:      -8.1      3.085      4.253
REMARK  5 active torsions:
REMARK  status: ('A' for Active; 'I' for Inactive)
REMARK    1  A    between atoms: C_6  and  N_7 
REMARK       I    between atoms: N_7  and  C_8 
REMARK    2  A    between atoms: C_8  and  C_9 
REMARK    3  A    between atoms: C_9  and  O_10 
REMARK    4  A    between atoms: O_10  and  C_11 
REMARK    5  A    between atoms: C_20  and  C_21 
ROOT
HETATM    1  C   UNL     1     -45.210  58.231 -51.405  1.00  0.00     0.073 C 
HETATM    2  C   UNL     1     -44.208  57.999 -52.475  1.00  0.00     0.065 A 
HETATM    3  N   UNL     1     -44.442  58.437 -53.718  1.00  0.00    -0.177 NA
HETATM    4  N   UNL     1     -43.366  58.036 -54.413  1.00  0.00    -0.262 N 
HETATM    5  H   UNL     1     -43.310  58.289 -55.396  1.00  0.00     0.191 HD
HETATM    6  C   UNL     1     -42.443  57.351 -53.666  1.00  0.00     0.137 A 
HETATM    7  C   UNL     1     -42.963  57.319 -52.386  1.00  0.00     0.046 A 
ENDROOT
BRANCH   6   8
HETATM    8  N   UNL     1     -41.231  56.883 -54.131  1.00  0.00    -0.309 N 
HETATM    9  C   UNL     1     -40.936  55.636 -54.618  1.00  0.00     0.247 C 
HETATM   10  O   UNL     1     -39.877  55.466 -55.227  1.00  0.00    -0.271 OA
HETATM   11  H   UNL     1     -40.441  57.519 -54.116  1.00  0.00     0.170 HD
BRANCH   9  12
HETATM   12  C   UNL     1     -41.829  54.456 -54.239  1.00  0.00     0.278 C 
BRANCH  12  13
HETATM   13  O   UNL     1     -41.305  53.200 -54.645  1.00  0.00    -0.342 OA
BRANCH  13  14
HETATM   14  C   UNL     1     -40.705  52.466 -53.653  1.00  0.00     0.072 A 
HETATM   15  C   UNL     1     -40.272  51.194 -54.037  1.00  0.00     0.082 A 
HETATM   16  C   UNL     1     -39.650  50.364 -53.107  1.00  0.00     0.157 A 
HETATM   17  F   UNL     1     -39.226  49.152 -53.492  1.00  0.00    -0.203 F 
HETATM   18  C   UNL     1     -39.465  50.785 -51.798  1.00  0.00     0.155 A 
HETATM   19  F   UNL     1     -38.864  49.985 -50.907  1.00  0.00    -0.203 F 
HETATM   20  C   UNL     1     -39.903  52.041 -51.399  1.00  0.00     0.048 A 
HETATM   21  C   UNL     1     -40.526  52.884 -52.326  1.00  0.00     0.040 A 
ENDBRANCH  13  14
ENDBRANCH  12  13
ENDBRANCH   9  12
ENDBRANCH   6   8
BRANCH   7  22
HETATM   22  C   UNL     1     -42.397  56.540 -51.302  1.00  0.00    -0.020 A 
HETATM   23  C   UNL     1     -41.175  56.889 -50.717  1.00  0.00     0.014 A 
HETATM   24  C   UNL     1     -40.619  56.079 -49.723  1.00  0.00     0.020 A 
HETATM   25  C   UNL     1     -41.290  54.927 -49.310  1.00  0.00     0.011 A 
HETATM   26 BR   UNL     1     -40.526  53.820 -47.983  1.00  0.00    -0.051 Br
HETATM   27  C   UNL     1     -42.515  54.581 -49.874  1.00  0.00     0.020 A 
HETATM   28  C   UNL     1     -43.068  55.388 -50.869  1.00  0.00     0.014 A 
ENDBRANCH   7  22
TORSDOF 5
ENDMDL
MODEL 8
REMARK VINA RESULT:      -8.0      3.994      5.570
REMARK  5 active torsions:
REMARK  status: ('A' for Active; 'I' for Inactive)
REMARK    1  A    between atoms: C_6  and  N_7 
REMARK       I    between atoms: N_7  and  C_8 
REMARK    2  A    between atoms: C_8  and  C_9 
REMARK    3  A    between atoms: C_9  and  O_10 
REMARK    4  A    between atoms: O_10  and  C_11 
REMARK    5  A    between atoms: C_20  and  C_21 
ROOT
HETATM    1  C   UNL     1     -41.848  60.330 -57.120  1.00  0.00     0.073 C 
HETATM    2  C   UNL     1     -42.113  59.399 -55.994  1.00  0.00     0.065 A 
HETATM    3  N   UNL     1     -41.614  59.660 -54.779  1.00  0.00    -0.177 NA
HETATM    4  N   UNL     1     -42.015  58.620 -54.032  1.00  0.00    -0.262 N 
HETATM    5  H   UNL     1     -41.773  58.617 -53.045  1.00  0.00     0.191 HD
HETATM    6  C   UNL     1     -42.754  57.692 -54.719  1.00  0.00     0.137 A 
HETATM    7  C   UNL     1     -42.844  58.180 -56.008  1.00  0.00     0.046 A 
ENDROOT
BRANCH   6   8
HETATM    8  N   UNL     1     -43.328  56.564 -54.168  1.00  0.00    -0.309 N 
HETATM    9  C   UNL     1     -42.718  55.566 -53.453  1.00  0.00     0.247 C 
HETATM   10  O   UNL     1     -43.415  54.771 -52.818  1.00  0.00    -0.271 OA
HETATM   11  H   UNL     1     -44.325  56.428 -54.299  1.00  0.00     0.170 HD
BRANCH   9  12
HETATM   12  C   UNL     1     -41.213  55.351 -53.607  1.00  0.00     0.278 C 
BRANCH  12  13
HETATM   13  O   UNL     1     -40.885  54.186 -54.349  1.00  0.00    -0.342 OA
BRANCH  13  14
HETATM   14  C   UNL     1     -40.455  53.117 -53.602  1.00  0.00     0.072 A 
HETATM   15  C   UNL     1     -40.243  51.939 -54.323  1.00  0.00     0.082 A 
HETATM   16  C   UNL     1     -39.807  50.792 -53.663  1.00  0.00     0.157 A 
HETATM   17  F   UNL     1     -39.594  49.672 -54.368  1.00  0.00    -0.203 F 
HETATM   18  C   UNL     1     -39.589  50.806 -52.293  1.00  0.00     0.155 A 
HETATM   19  F   UNL     1     -39.168  49.702 -51.662  1.00  0.00    -0.203 F 
HETATM   20  C   UNL     1     -39.809  51.966 -51.562  1.00  0.00     0.048 A 
HETATM   21  C   UNL     1     -40.244  53.124 -52.216  1.00  0.00     0.040 A 
ENDBRANCH  13  14
ENDBRANCH  12  13
ENDBRANCH   9  12
ENDBRANCH   6   8
BRANCH   7  22
HETATM   22  C   UNL     1     -43.392  57.432 -57.122  1.00  0.00    -0.020 A 
HETATM   23  C   UNL     1     -42.780  56.261 -57.583  1.00  0.00     0.014 A 
HETATM   24  C   UNL     1     -43.290  55.600 -58.704  1.00  0.00     0.020 A 
HETATM   25  C   UNL     1     -44.416  56.106 -59.356  1.00  0.00     0.011 A 
HETATM   26 BR   UNL     1     -45.091  55.225 -60.885  1.00  0.00    -0.051 Br
HETATM   27  C   UNL     1     -45.042  57.261 -58.894  1.00  0.00     0.020 A 
HETATM   28  C   UNL     1     -44.530  57.922 -57.776  1.00  0.00     0.014 A 
ENDBRANCH   7  22
TORSDOF 5
ENDMDL
MODEL 9
REMARK VINA RESULT:      -7.9      1.585      2.182
REMARK  5 active torsions:
REMARK  status: ('A' for Active; 'I' for Inactive)
REMARK    1  A    between atoms: C_6  and  N_7 
REMARK       I    between atoms: N_7  and  C_8 
REMARK    2  A    between atoms: C_8  and  C_9 
REMARK    3  A    between atoms: C_9  and  O_10 
REMARK    4  A    between atoms: O_10  and  C_11 
REMARK    5  A    between atoms: C_20  and  C_21 
ROOT
HETATM    1  C   UNL     1     -45.012  58.599 -54.551  1.00  0.00     0.073 C 
HETATM    2  C   UNL     1     -44.450  57.603 -53.606  1.00  0.00     0.065 A 
HETATM    3  N   UNL     1     -44.314  56.325 -53.983  1.00  0.00    -0.177 NA
HETATM    4  N   UNL     1     -43.815  55.716 -52.896  1.00  0.00    -0.262 N 
HETATM    5  H   UNL     1     -43.599  54.725 -52.959  1.00  0.00     0.191 HD
HETATM    6  C   UNL     1     -43.624  56.551 -51.826  1.00  0.00     0.137 A 
HETATM    7  C   UNL     1     -44.023  57.800 -52.265  1.00  0.00     0.046 A 
ENDROOT
BRANCH   6   8
HETATM    8  N   UNL     1     -43.074  56.183 -50.615  1.00  0.00    -0.309 N 
HETATM    9  C   UNL     1     -41.818  55.693 -50.370  1.00  0.00     0.247 C 
HETATM   10  O   UNL     1     -41.403  55.661 -49.209  1.00  0.00    -0.271 OA
HETATM   11  H   UNL     1     -43.653  56.272 -49.786  1.00  0.00     0.170 HD
BRANCH   9  12
HETATM   12  C   UNL     1     -41.040  55.032 -51.507  1.00  0.00     0.278 C 
BRANCH  12  13
HETATM   13  O   UNL     1     -40.367  53.845 -51.113  1.00  0.00    -0.342 OA
BRANCH  13  14
HETATM   14  C   UNL     1     -40.242  52.890 -52.090  1.00  0.00     0.072 A 
HETATM   15  C   UNL     1     -39.796  51.643 -51.645  1.00  0.00     0.082 A 
HETATM   16  C   UNL     1     -39.632  50.600 -52.554  1.00  0.00     0.157 A 
HETATM   17  F   UNL     1     -39.218  49.405 -52.112  1.00  0.00    -0.203 F 
HETATM   18  C   UNL     1     -39.899  50.792 -53.902  1.00  0.00     0.155 A 
HETATM   19  F   UNL     1     -39.743  49.786 -54.773  1.00  0.00    -0.203 F 
HETATM   20  C   UNL     1     -40.330  52.030 -54.361  1.00  0.00     0.048 A 
HETATM   21  C   UNL     1     -40.500  53.082 -53.455  1.00  0.00     0.040 A 
ENDBRANCH  13  14
ENDBRANCH  12  13
ENDBRANCH   9  12
ENDBRANCH   6   8
BRANCH   7  22
HETATM   22  C   UNL     1     -44.155  58.957 -51.401  1.00  0.00    -0.020 A 
HETATM   23  C   UNL     1     -45.364  59.253 -50.762  1.00  0.00     0.014 A 
HETATM   24  C   UNL     1     -45.483  60.415 -49.994  1.00  0.00     0.020 A 
HETATM   25  C   UNL     1     -44.391  61.273 -49.860  1.00  0.00     0.011 A 
HETATM   26 BR   UNL     1     -44.559  62.856 -48.841  1.00  0.00    -0.051 Br
HETATM   27  C   UNL     1     -43.178  60.978 -50.478  1.00  0.00     0.020 A 
HETATM   28  C   UNL     1     -43.061  59.819 -51.248  1.00  0.00     0.014 A 
ENDBRANCH   7  22
TORSDOF 5
ENDMDL
MODEL 10
REMARK VINA RESULT:      -7.7      3.448      4.742
REMARK  5 active torsions:
REMARK  status: ('A' for Active; 'I' for Inactive)
REMARK    1  A    between atoms: C_6  and  N_7 
REMARK       I    between atoms: N_7  and  C_8 
REMARK    2  A    between atoms: C_8  and  C_9 
REMARK    3  A    between atoms: C_9  and  O_10 
REMARK    4  A    between atoms: O_10  and  C_11 
REMARK    5  A    between atoms: C_20  and  C_21 
ROOT
HETATM    1  C   UNL     1     -41.701  60.157 -57.661  1.00  0.00     0.073 C 
HETATM    2  C   UNL     1     -42.074  58.723 -57.750  1.00  0.00     0.065 A 
HETATM    3  N   UNL     1     -41.864  58.047 -58.887  1.00  0.00    -0.177 NA
HETATM    4  N   UNL     1     -42.335  56.817 -58.626  1.00  0.00    -0.262 N 
HETATM    5  H   UNL     1     -42.251  56.109 -59.350  1.00  0.00     0.191 HD
HETATM    6  C   UNL     1     -42.844  56.672 -57.362  1.00  0.00     0.137 A 
HETATM    7  C   UNL     1     -42.678  57.904 -56.759  1.00  0.00     0.046 A 
ENDROOT
BRANCH   6   8
HETATM    8  N   UNL     1     -43.337  55.497 -56.831  1.00  0.00    -0.309 N 
HETATM    9  C   UNL     1     -42.804  54.734 -55.825  1.00  0.00     0.247 C 
HETATM   10  O   UNL     1     -43.501  53.862 -55.301  1.00  0.00    -0.271 OA
HETATM   11  H   UNL     1     -44.198  55.126 -57.220  1.00  0.00     0.170 HD
BRANCH   9  12
HETATM   12  C   UNL     1     -41.315  54.855 -55.506  1.00  0.00     0.278 C 
BRANCH  12  13
HETATM   13  O   UNL     1     -41.042  54.922 -54.114  1.00  0.00    -0.342 OA
BRANCH  13  14
HETATM   14  C   UNL     1     -40.569  53.762 -53.552  1.00  0.00     0.072 A 
HETATM   15  C   UNL     1     -40.537  53.751 -52.155  1.00  0.00     0.082 A 
HETATM   16  C   UNL     1     -40.074  52.623 -51.482  1.00  0.00     0.157 A 
HETATM   17  F   UNL     1     -40.061  52.620 -50.142  1.00  0.00    -0.203 F 
HETATM   18  C   UNL     1     -39.634  51.512 -52.186  1.00  0.00     0.155 A 
HETATM   19  F   UNL     1     -39.191  50.428 -51.535  1.00  0.00    -0.203 F 
HETATM   20  C   UNL     1     -39.647  51.514 -53.575  1.00  0.00     0.048 A 
HETATM   21  C   UNL     1     -40.113  52.640 -54.261  1.00  0.00     0.040 A 
ENDBRANCH  13  14
ENDBRANCH  12  13
ENDBRANCH   9  12
ENDBRANCH   6   8
BRANCH   7  22
HETATM   22  C   UNL     1     -43.237  58.256 -55.468  1.00  0.00    -0.020 A 
HETATM   23  C   UNL     1     -42.463  58.207 -54.303  1.00  0.00     0.014 A 
HETATM   24  C   UNL     1     -43.048  58.481 -53.064  1.00  0.00     0.020 A 
HETATM   25  C   UNL     1     -44.402  58.813 -52.992  1.00  0.00     0.011 A 
HETATM   26 BR   UNL     1     -45.197  59.161 -51.314  1.00  0.00    -0.051 Br
HETATM   27  C   UNL     1     -45.176  58.881 -54.148  1.00  0.00     0.020 A 
HETATM   28  C   UNL     1     -44.592  58.604 -55.386  1.00  0.00     0.014 A 
ENDBRANCH   7  22
TORSDOF 5
ENDMDL
