MODEL 1
REMARK VINA RESULT:      -7.6      0.000      0.000
REMARK  2 active torsions:
REMARK  status: ('A' for Active; 'I' for Inactive)
REMARK    1  A    between atoms: S_2  and  N_3 
REMARK    2  A    between atoms: C_10  and  N_11 
ROOT
HETATM    1  N   UNL     1     -43.266  56.053 -52.743  1.00  0.00    -0.311 N 
HETATM    2  C   UNL     1     -41.956  56.358 -53.351  1.00  0.00     0.138 C 
HETATM    3  C   UNL     1     -40.849  55.881 -52.422  1.00  0.00     0.059 C 
HETATM    4  C   UNL     1     -40.964  54.373 -52.087  1.00  0.00     0.073 C 
HETATM    5  O   UNL     1     -40.684  53.655 -53.300  1.00  0.00    -0.339 OA
HETATM    6  C   UNL     1     -40.332  52.339 -53.188  1.00  0.00     0.078 A 
HETATM    7  C   UNL     1     -39.855  51.756 -52.010  1.00  0.00     0.005 A 
HETATM    8  C   UNL     1     -39.691  52.573 -50.767  1.00  0.00     0.222 C 
HETATM    9  C   UNL     1     -39.890  54.062 -51.024  1.00  0.00     0.076 C 
HETATM   10  C   UNL     1     -40.448  51.587 -54.356  1.00  0.00     0.037 A 
HETATM   11  C   UNL     1     -40.106  50.237 -54.357  1.00  0.00     0.003 A 
HETATM   12  C   UNL     1     -39.633  49.640 -53.191  1.00  0.00     0.001 A 
HETATM   13  C   UNL     1     -39.501  50.395 -52.024  1.00  0.00     0.012 A 
HETATM   14  C   UNL     1     -42.401  54.029 -51.628  1.00  0.00     0.059 C 
HETATM   15  C   UNL     1     -43.478  54.608 -52.552  1.00  0.00     0.138 C 
ENDROOT
BRANCH   8  16
HETATM   16  N   UNL     1     -40.595  52.118 -49.673  1.00  0.00    -0.071 N 
HETATM   17  H   UNL     1     -40.164  51.392 -49.088  1.00  0.00     0.275 HD
HETATM   18  H   UNL     1     -40.820  52.900 -49.045  1.00  0.00     0.275 HD
HETATM   19  H   UNL     1     -41.485  51.752 -50.034  1.00  0.00     0.275 HD
ENDBRANCH   8  16
BRANCH   1  20
HETATM   20  S   UNL     1     -43.883  57.121 -51.579  1.00  0.00     0.224 S 
HETATM   21  C   UNL     1     -44.935  58.149 -52.581  1.00  0.00     0.186 C 
HETATM   22  O   UNL     1     -42.795  57.936 -51.086  1.00  0.00    -0.206 OA
HETATM   23  O   UNL     1     -44.704  56.344 -50.672  1.00  0.00    -0.206 OA
ENDBRANCH   1  20
TORSDOF 2
ENDMDL
MODEL 2
REMARK VINA RESULT:      -7.5      2.305      3.502
REMARK  2 active torsions:
REMARK  status: ('A' for Active; 'I' for Inactive)
REMARK    1  A    between atoms: S_2  and  N_3 
REMARK    2  A    between atoms: C_10  and  N_11 
ROOT
HETATM    1  N   UNL     1     -42.075  58.159 -51.411  1.00  0.00    -0.311 N 
HETATM    2  C   UNL     1     -43.102  57.187 -50.986  1.00  0.00     0.138 C 
HETATM    3  C   UNL     1     -43.543  56.366 -52.189  1.00  0.00     0.059 C 
HETATM    4  C   UNL     1     -42.359  55.650 -52.885  1.00  0.00     0.073 C 
HETATM    5  O   UNL     1     -41.890  54.642 -51.975  1.00  0.00    -0.339 OA
HETATM    6  C   UNL     1     -41.135  53.627 -52.492  1.00  0.00     0.078 A 
HETATM    7  C   UNL     1     -41.109  53.285 -53.848  1.00  0.00     0.005 A 
HETATM    8  C   UNL     1     -41.944  54.033 -54.839  1.00  0.00     0.222 C 
HETATM    9  C   UNL     1     -42.917  54.995 -54.165  1.00  0.00     0.076 C 
HETATM   10  C   UNL     1     -40.387  52.905 -51.564  1.00  0.00     0.037 A 
HETATM   11  C   UNL     1     -39.588  51.843 -51.981  1.00  0.00     0.003 A 
HETATM   12  C   UNL     1     -39.549  51.491 -53.327  1.00  0.00     0.001 A 
HETATM   13  C   UNL     1     -40.309  52.203 -54.258  1.00  0.00     0.012 A 
HETATM   14  C   UNL     1     -41.208  56.647 -53.156  1.00  0.00     0.059 C 
HETATM   15  C   UNL     1     -40.864  57.508 -51.936  1.00  0.00     0.138 C 
ENDROOT
BRANCH   8  16
HETATM   16  N   UNL     1     -41.112  54.764 -55.836  1.00  0.00    -0.071 N 
HETATM   17  H   UNL     1     -40.727  54.139 -56.554  1.00  0.00     0.275 HD
HETATM   18  H   UNL     1     -41.679  55.462 -56.334  1.00  0.00     0.275 HD
HETATM   19  H   UNL     1     -40.330  55.265 -55.395  1.00  0.00     0.275 HD
ENDBRANCH   8  16
BRANCH   1  20
HETATM   20  S   UNL     1     -42.587  59.612 -52.122  1.00  0.00     0.224 S 
HETATM   21  C   UNL     1     -42.680  60.676 -50.698  1.00  0.00     0.186 C 
HETATM   22  O   UNL     1     -43.926  59.423 -52.632  1.00  0.00    -0.206 OA
HETATM   23  O   UNL     1     -41.517  60.070 -52.986  1.00  0.00    -0.206 OA
ENDBRANCH   1  20
TORSDOF 2
ENDMDL
MODEL 3
REMARK VINA RESULT:      -6.6      3.021      4.384
REMARK  2 active torsions:
REMARK  status: ('A' for Active; 'I' for Inactive)
REMARK    1  A    between atoms: S_2  and  N_3 
REMARK    2  A    between atoms: C_10  and  N_11 
ROOT
HETATM    1  N   UNL     1     -43.075  58.081 -54.882  1.00  0.00    -0.311 N 
HETATM    2  C   UNL     1     -44.168  57.380 -54.180  1.00  0.00     0.138 C 
HETATM    3  C   UNL     1     -43.984  55.878 -54.337  1.00  0.00     0.059 C 
HETATM    4  C   UNL     1     -42.602  55.394 -53.831  1.00  0.00     0.073 C 
HETATM    5  O   UNL     1     -42.602  55.560 -52.403  1.00  0.00    -0.339 OA
HETATM    6  C   UNL     1     -41.679  54.851 -51.686  1.00  0.00     0.078 A 
HETATM    7  C   UNL     1     -41.017  53.718 -52.169  1.00  0.00     0.005 A 
HETATM    8  C   UNL     1     -41.298  53.198 -53.543  1.00  0.00     0.222 C 
HETATM    9  C   UNL     1     -42.486  53.899 -54.193  1.00  0.00     0.076 C 
HETATM   10  C   UNL     1     -41.445  55.313 -50.392  1.00  0.00     0.037 A 
HETATM   11  C   UNL     1     -40.530  54.659 -49.569  1.00  0.00     0.003 A 
HETATM   12  C   UNL     1     -39.860  53.532 -50.036  1.00  0.00     0.001 A 
HETATM   13  C   UNL     1     -40.104  53.058 -51.327  1.00  0.00     0.012 A 
HETATM   14  C   UNL     1     -41.471  56.262 -54.431  1.00  0.00     0.059 C 
HETATM   15  C   UNL     1     -41.750  57.765 -54.323  1.00  0.00     0.138 C 
ENDROOT
BRANCH   8  16
HETATM   16  N   UNL     1     -40.105  53.283 -54.432  1.00  0.00    -0.071 N 
HETATM   17  H   UNL     1     -40.208  52.711 -55.277  1.00  0.00     0.275 HD
HETATM   18  H   UNL     1     -39.964  54.250 -54.751  1.00  0.00     0.275 HD
HETATM   19  H   UNL     1     -39.244  52.992 -53.951  1.00  0.00     0.275 HD
ENDBRANCH   8  16
BRANCH   1  20
HETATM   20  S   UNL     1     -43.212  58.314 -56.557  1.00  0.00     0.224 S 
HETATM   21  C   UNL     1     -44.726  59.244 -56.651  1.00  0.00     0.186 C 
HETATM   22  O   UNL     1     -43.433  57.028 -57.180  1.00  0.00    -0.206 OA
HETATM   23  O   UNL     1     -42.110  59.161 -56.966  1.00  0.00    -0.206 OA
ENDBRANCH   1  20
TORSDOF 2
ENDMDL
MODEL 4
REMARK VINA RESULT:      -6.5     13.865     15.379
REMARK  2 active torsions:
REMARK  status: ('A' for Active; 'I' for Inactive)
REMARK    1  A    between atoms: S_2  and  N_3 
REMARK    2  A    between atoms: C_10  and  N_11 
ROOT
HETATM    1  N   UNL     1     -35.948  40.293 -57.284  1.00  0.00    -0.311 N 
HETATM    2  C   UNL     1     -35.038  41.448 -57.163  1.00  0.00     0.138 C 
HETATM    3  C   UNL     1     -35.379  42.226 -55.900  1.00  0.00     0.059 C 
HETATM    4  C   UNL     1     -35.324  41.344 -54.627  1.00  0.00     0.073 C 
HETATM    5  O   UNL     1     -33.944  41.001 -54.419  1.00  0.00    -0.339 OA
HETATM    6  C   UNL     1     -33.582  40.577 -53.171  1.00  0.00     0.078 A 
HETATM    7  C   UNL     1     -34.333  40.815 -52.016  1.00  0.00     0.005 A 
HETATM    8  C   UNL     1     -35.616  41.581 -52.085  1.00  0.00     0.222 C 
HETATM    9  C   UNL     1     -35.842  42.206 -53.458  1.00  0.00     0.076 C 
HETATM   10  C   UNL     1     -32.367  39.897 -53.101  1.00  0.00     0.037 A 
HETATM   11  C   UNL     1     -31.896  39.429 -51.876  1.00  0.00     0.003 A 
HETATM   12  C   UNL     1     -32.634  39.654 -50.717  1.00  0.00     0.001 A 
HETATM   13  C   UNL     1     -33.843  40.349 -50.783  1.00  0.00     0.012 A 
HETATM   14  C   UNL     1     -36.132  40.042 -54.837  1.00  0.00     0.059 C 
HETATM   15  C   UNL     1     -35.812  39.346 -56.164  1.00  0.00     0.138 C 
ENDROOT
BRANCH   8  16
HETATM   16  N   UNL     1     -36.790  40.746 -51.704  1.00  0.00    -0.071 N 
HETATM   17  H   UNL     1     -36.513  39.876 -51.236  1.00  0.00     0.275 HD
HETATM   18  H   UNL     1     -37.391  41.253 -51.043  1.00  0.00     0.275 HD
HETATM   19  H   UNL     1     -37.371  40.501 -52.517  1.00  0.00     0.275 HD
ENDBRANCH   8  16
BRANCH   1  20
HETATM   20  S   UNL     1     -37.489  40.547 -57.946  1.00  0.00     0.224 S 
HETATM   21  C   UNL     1     -37.160  41.880 -59.078  1.00  0.00     0.186 C 
HETATM   22  O   UNL     1     -38.357  41.046 -56.902  1.00  0.00    -0.206 OA
HETATM   23  O   UNL     1     -37.836  39.360 -58.700  1.00  0.00    -0.206 OA
ENDBRANCH   1  20
TORSDOF 2
ENDMDL
MODEL 5
REMARK VINA RESULT:      -6.5     13.914     15.203
REMARK  2 active torsions:
REMARK  status: ('A' for Active; 'I' for Inactive)
REMARK    1  A    between atoms: S_2  and  N_3 
REMARK    2  A    between atoms: C_10  and  N_11 
ROOT
HETATM    1  N   UNL     1     -36.815  39.207 -51.795  1.00  0.00    -0.311 N 
HETATM    2  C   UNL     1     -37.803  40.300 -51.885  1.00  0.00     0.138 C 
HETATM    3  C   UNL     1     -37.145  41.521 -52.511  1.00  0.00     0.059 C 
HETATM    4  C   UNL     1     -36.530  41.217 -53.899  1.00  0.00     0.073 C 
HETATM    5  O   UNL     1     -37.626  40.962 -54.793  1.00  0.00    -0.339 OA
HETATM    6  C   UNL     1     -37.383  41.063 -56.134  1.00  0.00     0.078 A 
HETATM    7  C   UNL     1     -36.297  41.753 -56.682  1.00  0.00     0.005 A 
HETATM    8  C   UNL     1     -35.312  42.450 -55.797  1.00  0.00     0.222 C 
HETATM    9  C   UNL     1     -35.765  42.481 -54.341  1.00  0.00     0.076 C 
HETATM   10  C   UNL     1     -38.322  40.446 -56.959  1.00  0.00     0.037 A 
HETATM   11  C   UNL     1     -38.177  40.496 -58.344  1.00  0.00     0.003 A 
HETATM   12  C   UNL     1     -37.100  41.176 -58.905  1.00  0.00     0.001 A 
HETATM   13  C   UNL     1     -36.166  41.807 -58.081  1.00  0.00     0.012 A 
HETATM   14  C   UNL     1     -35.641  39.953 -53.832  1.00  0.00     0.059 C 
HETATM   15  C   UNL     1     -36.321  38.782 -53.115  1.00  0.00     0.138 C 
ENDROOT
BRANCH   8  16
HETATM   16  N   UNL     1     -33.949  41.855 -55.896  1.00  0.00    -0.071 N 
HETATM   17  H   UNL     1     -33.776  41.156 -55.165  1.00  0.00     0.275 HD
HETATM   18  H   UNL     1     -33.834  41.370 -56.795  1.00  0.00     0.275 HD
HETATM   19  H   UNL     1     -33.211  42.568 -55.838  1.00  0.00     0.275 HD
ENDBRANCH   8  16
BRANCH   1  20
HETATM   20  S   UNL     1     -35.735  39.203 -50.486  1.00  0.00     0.224 S 
HETATM   21  C   UNL     1     -36.860  39.329 -49.113  1.00  0.00     0.186 C 
HETATM   22  O   UNL     1     -34.951  40.417 -50.540  1.00  0.00    -0.206 OA
HETATM   23  O   UNL     1     -35.096  37.903 -50.458  1.00  0.00    -0.206 OA
ENDBRANCH   1  20
TORSDOF 2
ENDMDL
MODEL 6
REMARK VINA RESULT:      -6.3      3.066      3.967
REMARK  2 active torsions:
REMARK  status: ('A' for Active; 'I' for Inactive)
REMARK    1  A    between atoms: S_2  and  N_3 
REMARK    2  A    between atoms: C_10  and  N_11 
ROOT
HETATM    1  N   UNL     1     -43.600  58.554 -56.049  1.00  0.00    -0.311 N 
HETATM    2  C   UNL     1     -42.241  58.946 -55.626  1.00  0.00     0.138 C 
HETATM    3  C   UNL     1     -42.047  58.583 -54.160  1.00  0.00     0.059 C 
HETATM    4  C   UNL     1     -42.301  57.080 -53.883  1.00  0.00     0.073 C 
HETATM    5  O   UNL     1     -41.240  56.354 -54.527  1.00  0.00    -0.339 OA
HETATM    6  C   UNL     1     -41.008  55.074 -54.109  1.00  0.00     0.078 A 
HETATM    7  C   UNL     1     -41.440  54.562 -52.881  1.00  0.00     0.005 A 
HETATM    8  C   UNL     1     -42.202  55.422 -51.922  1.00  0.00     0.222 C 
HETATM    9  C   UNL     1     -42.230  56.884 -52.355  1.00  0.00     0.076 C 
HETATM   10  C   UNL     1     -40.266  54.284 -54.985  1.00  0.00     0.037 A 
HETATM   11  C   UNL     1     -39.962  52.965 -54.655  1.00  0.00     0.003 A 
HETATM   12  C   UNL     1     -40.389  52.439 -53.438  1.00  0.00     0.001 A 
HETATM   13  C   UNL     1     -41.119  53.233 -52.551  1.00  0.00     0.012 A 
HETATM   14  C   UNL     1     -43.649  56.636 -54.498  1.00  0.00     0.059 C 
HETATM   15  C   UNL     1     -43.827  57.103 -55.947  1.00  0.00     0.138 C 
ENDROOT
BRANCH   8  16
HETATM   16  N   UNL     1     -43.590  54.927 -51.703  1.00  0.00    -0.071 N 
HETATM   17  H   UNL     1     -44.201  55.115 -52.505  1.00  0.00     0.275 HD
HETATM   18  H   UNL     1     -43.590  53.907 -51.572  1.00  0.00     0.275 HD
HETATM   19  H   UNL     1     -44.021  55.341 -50.867  1.00  0.00     0.275 HD
ENDBRANCH   8  16
BRANCH   1  20
HETATM   20  S   UNL     1     -44.886  59.602 -55.696  1.00  0.00     0.224 S 
HETATM   21  C   UNL     1     -44.101  61.186 -55.890  1.00  0.00     0.186 C 
HETATM   22  O   UNL     1     -45.237  59.440 -54.303  1.00  0.00    -0.206 OA
HETATM   23  O   UNL     1     -45.878  59.434 -56.739  1.00  0.00    -0.206 OA
ENDBRANCH   1  20
TORSDOF 2
ENDMDL
MODEL 7
REMARK VINA RESULT:      -6.2      3.002      5.575
REMARK  2 active torsions:
REMARK  status: ('A' for Active; 'I' for Inactive)
REMARK    1  A    between atoms: S_2  and  N_3 
REMARK    2  A    between atoms: C_10  and  N_11 
ROOT
HETATM    1  N   UNL     1     -41.615  54.099 -50.797  1.00  0.00    -0.311 N 
HETATM    2  C   UNL     1     -43.077  54.198 -50.978  1.00  0.00     0.138 C 
HETATM    3  C   UNL     1     -43.443  55.635 -51.323  1.00  0.00     0.059 C 
HETATM    4  C   UNL     1     -42.693  56.154 -52.575  1.00  0.00     0.073 C 
HETATM    5  O   UNL     1     -43.209  55.423 -53.700  1.00  0.00    -0.339 OA
HETATM    6  C   UNL     1     -43.012  55.957 -54.943  1.00  0.00     0.078 A 
HETATM    7  C   UNL     1     -42.707  57.302 -55.176  1.00  0.00     0.005 A 
HETATM    8  C   UNL     1     -42.583  58.264 -54.038  1.00  0.00     0.222 C 
HETATM    9  C   UNL     1     -43.029  57.653 -52.714  1.00  0.00     0.076 C 
HETATM   10  C   UNL     1     -43.165  55.069 -56.006  1.00  0.00     0.037 A 
HETATM   11  C   UNL     1     -42.996  55.509 -57.317  1.00  0.00     0.003 A 
HETATM   12  C   UNL     1     -42.689  56.843 -57.566  1.00  0.00     0.001 A 
HETATM   13  C   UNL     1     -42.550  57.739 -56.504  1.00  0.00     0.012 A 
HETATM   14  C   UNL     1     -41.177  55.872 -52.454  1.00  0.00     0.059 C 
HETATM   15  C   UNL     1     -40.869  54.435 -52.020  1.00  0.00     0.138 C 
ENDROOT
BRANCH   8  16
HETATM   16  N   UNL     1     -41.202  58.808 -53.910  1.00  0.00    -0.071 N 
HETATM   17  H   UNL     1     -41.121  59.758 -54.290  1.00  0.00     0.275 HD
HETATM   18  H   UNL     1     -40.930  58.868 -52.920  1.00  0.00     0.275 HD
HETATM   19  H   UNL     1     -40.507  58.214 -54.380  1.00  0.00     0.275 HD
ENDBRANCH   8  16
BRANCH   1  20
HETATM   20  S   UNL     1     -40.957  54.547 -49.299  1.00  0.00     0.224 S 
HETATM   21  C   UNL     1     -39.219  54.336 -49.611  1.00  0.00     0.186 C 
HETATM   22  O   UNL     1     -41.361  53.569 -48.313  1.00  0.00    -0.206 OA
HETATM   23  O   UNL     1     -41.237  55.956 -49.109  1.00  0.00    -0.206 OA
ENDBRANCH   1  20
TORSDOF 2
ENDMDL
MODEL 8
REMARK VINA RESULT:      -6.0      5.331      7.824
REMARK  2 active torsions:
REMARK  status: ('A' for Active; 'I' for Inactive)
REMARK    1  A    between atoms: S_2  and  N_3 
REMARK    2  A    between atoms: C_10  and  N_11 
ROOT
HETATM    1  N   UNL     1     -42.798  58.224 -54.273  1.00  0.00    -0.311 N 
HETATM    2  C   UNL     1     -43.099  59.488 -54.973  1.00  0.00     0.138 C 
HETATM    3  C   UNL     1     -42.487  59.448 -56.366  1.00  0.00     0.059 C 
HETATM    4  C   UNL     1     -42.973  58.230 -57.192  1.00  0.00     0.073 C 
HETATM    5  O   UNL     1     -44.366  58.445 -57.469  1.00  0.00    -0.339 OA
HETATM    6  C   UNL     1     -44.921  57.737 -58.498  1.00  0.00     0.078 A 
HETATM    7  C   UNL     1     -44.181  57.134 -59.520  1.00  0.00     0.005 A 
HETATM    8  C   UNL     1     -42.688  57.243 -59.547  1.00  0.00     0.222 C 
HETATM    9  C   UNL     1     -42.162  58.223 -58.504  1.00  0.00     0.076 C 
HETATM   10  C   UNL     1     -46.313  57.667 -58.494  1.00  0.00     0.037 A 
HETATM   11  C   UNL     1     -46.983  56.978 -59.502  1.00  0.00     0.003 A 
HETATM   12  C   UNL     1     -46.261  56.369 -60.524  1.00  0.00     0.001 A 
HETATM   13  C   UNL     1     -44.867  56.451 -60.540  1.00  0.00     0.012 A 
HETATM   14  C   UNL     1     -42.825  56.927 -56.371  1.00  0.00     0.059 C 
HETATM   15  C   UNL     1     -43.380  57.052 -54.948  1.00  0.00     0.138 C 
ENDROOT
BRANCH   8  16
HETATM   16  N   UNL     1     -42.025  55.919 -59.385  1.00  0.00    -0.071 N 
HETATM   17  H   UNL     1     -42.104  55.559 -58.427  1.00  0.00     0.275 HD
HETATM   18  H   UNL     1     -42.467  55.219 -59.995  1.00  0.00     0.275 HD
HETATM   19  H   UNL     1     -41.028  55.953 -59.634  1.00  0.00     0.275 HD
ENDBRANCH   8  16
BRANCH   1  20
HETATM   20  S   UNL     1     -41.285  58.058 -53.523  1.00  0.00     0.224 S 
HETATM   21  C   UNL     1     -41.762  57.932 -51.814  1.00  0.00     0.186 C 
HETATM   22  O   UNL     1     -40.553  59.292 -53.697  1.00  0.00    -0.206 OA
HETATM   23  O   UNL     1     -40.727  56.792 -53.954  1.00  0.00    -0.206 OA
ENDBRANCH   1  20
TORSDOF 2
ENDMDL
MODEL 9
REMARK VINA RESULT:      -6.0      3.863      5.358
REMARK  2 active torsions:
REMARK  status: ('A' for Active; 'I' for Inactive)
REMARK    1  A    between atoms: S_2  and  N_3 
REMARK    2  A    between atoms: C_10  and  N_11 
ROOT
HETATM    1  N   UNL     1     -42.933  59.218 -55.956  1.00  0.00    -0.311 N 
HETATM    2  C   UNL     1     -44.133  58.362 -56.028  1.00  0.00     0.138 C 
HETATM    3  C   UNL     1     -43.714  56.939 -56.370  1.00  0.00     0.059 C 
HETATM    4  C   UNL     1     -42.686  56.365 -55.362  1.00  0.00     0.073 C 
HETATM    5  O   UNL     1     -43.379  56.196 -54.114  1.00  0.00    -0.339 OA
HETATM    6  C   UNL     1     -42.823  55.350 -53.195  1.00  0.00     0.078 A 
HETATM    7  C   UNL     1     -41.879  54.367 -53.508  1.00  0.00     0.005 A 
HETATM    8  C   UNL     1     -41.414  54.177 -54.917  1.00  0.00     0.222 C 
HETATM    9  C   UNL     1     -42.231  54.997 -55.910  1.00  0.00     0.076 C 
HETATM   10  C   UNL     1     -43.284  55.501 -51.888  1.00  0.00     0.037 A 
HETATM   11  C   UNL     1     -42.793  54.684 -50.873  1.00  0.00     0.003 A 
HETATM   12  C   UNL     1     -41.849  53.704 -51.167  1.00  0.00     0.001 A 
HETATM   13  C   UNL     1     -41.397  53.540 -52.478  1.00  0.00     0.012 A 
HETATM   14  C   UNL     1     -41.522  57.362 -55.151  1.00  0.00     0.059 C 
HETATM   15  C   UNL     1     -42.000  58.795 -54.898  1.00  0.00     0.138 C 
ENDROOT
BRANCH   8  16
HETATM   16  N   UNL     1     -39.964  54.479 -55.076  1.00  0.00    -0.071 N 
HETATM   17  H   UNL     1     -39.411  53.639 -55.280  1.00  0.00     0.275 HD
HETATM   18  H   UNL     1     -39.816  55.122 -55.865  1.00  0.00     0.275 HD
HETATM   19  H   UNL     1     -39.568  54.928 -54.240  1.00  0.00     0.275 HD
ENDBRANCH   8  16
BRANCH   1  20
HETATM   20  S   UNL     1     -42.293  59.832 -57.401  1.00  0.00     0.224 S 
HETATM   21  C   UNL     1     -43.708  60.677 -58.072  1.00  0.00     0.186 C 
HETATM   22  O   UNL     1     -41.978  58.719 -58.270  1.00  0.00    -0.206 OA
HETATM   23  O   UNL     1     -41.283  60.809 -57.045  1.00  0.00    -0.206 OA
ENDBRANCH   1  20
TORSDOF 2
ENDMDL
MODEL 10
REMARK VINA RESULT:      -6.0     14.246     15.598
REMARK  2 active torsions:
REMARK  status: ('A' for Active; 'I' for Inactive)
REMARK    1  A    between atoms: S_2  and  N_3 
REMARK    2  A    between atoms: C_10  and  N_11 
ROOT
HETATM    1  N   UNL     1     -37.147  41.583 -57.177  1.00  0.00    -0.311 N 
HETATM    2  C   UNL     1     -37.893  40.697 -56.262  1.00  0.00     0.138 C 
HETATM    3  C   UNL     1     -37.001  39.534 -55.851  1.00  0.00     0.059 C 
HETATM    4  C   UNL     1     -35.674  40.005 -55.205  1.00  0.00     0.073 C 
HETATM    5  O   UNL     1     -36.015  40.598 -53.941  1.00  0.00    -0.339 OA
HETATM    6  C   UNL     1     -35.018  40.726 -53.015  1.00  0.00     0.078 A 
HETATM    7  C   UNL     1     -33.825  39.995 -53.044  1.00  0.00     0.005 A 
HETATM    8  C   UNL     1     -33.572  38.994 -54.127  1.00  0.00     0.222 C 
HETATM    9  C   UNL     1     -34.806  38.748 -54.987  1.00  0.00     0.076 C 
HETATM   10  C   UNL     1     -35.270  41.631 -51.985  1.00  0.00     0.037 A 
HETATM   11  C   UNL     1     -34.325  41.832 -50.981  1.00  0.00     0.003 A 
HETATM   12  C   UNL     1     -33.132  41.116 -50.999  1.00  0.00     0.001 A 
HETATM   13  C   UNL     1     -32.883  40.197 -52.020  1.00  0.00     0.012 A 
HETATM   14  C   UNL     1     -34.993  41.077 -56.088  1.00  0.00     0.059 C 
HETATM   15  C   UNL     1     -35.958  42.176 -56.545  1.00  0.00     0.138 C 
ENDROOT
BRANCH   8  16
HETATM   16  N   UNL     1     -32.417  39.376 -54.987  1.00  0.00    -0.071 N 
HETATM   17  H   UNL     1     -32.481  38.971 -55.927  1.00  0.00     0.275 HD
HETATM   18  H   UNL     1     -32.385  40.396 -55.112  1.00  0.00     0.275 HD
HETATM   19  H   UNL     1     -31.518  39.092 -54.576  1.00  0.00     0.275 HD
ENDBRANCH   8  16
BRANCH   1  20
HETATM   20  S   UNL     1     -37.066  41.161 -58.818  1.00  0.00     0.224 S 
HETATM   21  C   UNL     1     -38.594  40.271 -59.020  1.00  0.00     0.186 C 
HETATM   22  O   UNL     1     -35.974  40.230 -58.996  1.00  0.00    -0.206 OA
HETATM   23  O   UNL     1     -37.130  42.391 -59.583  1.00  0.00    -0.206 OA
ENDBRANCH   1  20
TORSDOF 2
ENDMDL
