MODEL 1
REMARK VINA RESULT:      -8.7      0.000      0.000
REMARK  5 active torsions:
REMARK  status: ('A' for Active; 'I' for Inactive)
REMARK    1  A    between atoms: C_3  and  N_4 
REMARK       I    between atoms: N_4  and  C_5 
REMARK       I    between atoms: C_5  and  N_6 
REMARK    2  A    between atoms: N_6  and  N_7 
REMARK    3  A    between atoms: N_7  and  C_8 
REMARK    4  A    between atoms: N_7  and  C_14 
REMARK    5  A    between atoms: C_14  and  C_15 
ROOT
HETATM    1  N   UNL     1     -41.438  54.327 -54.136  1.00  0.00    -0.284 N 
ENDROOT
BRANCH   1   2
HETATM    2  N   UNL     1     -42.410  54.390 -55.160  1.00  0.00    -0.249 N 
HETATM    3  C   UNL     1     -42.405  55.483 -56.026  1.00  0.00     0.339 C 
HETATM    4  N   UNL     1     -43.250  55.259 -57.101  1.00  0.00    -0.306 N 
HETATM    5  O   UNL     1     -41.720  56.484 -55.854  1.00  0.00    -0.245 OA
HETATM    6  H   UNL     1     -43.333  54.284 -57.347  1.00  0.00     0.171 HD
HETATM    7  H   UNL     1     -42.757  53.488 -55.458  1.00  0.00     0.192 HD
BRANCH   4   8
HETATM    8  C   UNL     1     -43.516  56.176 -58.148  1.00  0.00     0.059 A 
HETATM    9  C   UNL     1     -44.213  57.387 -58.027  1.00  0.00    -0.032 A 
HETATM   10  C   UNL     1     -44.878  57.871 -56.770  1.00  0.00     0.050 C 
HETATM   11  C   UNL     1     -44.334  58.200 -59.169  1.00  0.00     0.028 A 
HETATM   12  C   UNL     1     -43.828  57.761 -60.381  1.00  0.00     0.117 A 
HETATM   13  N   UNL     1     -43.219  56.573 -60.545  1.00  0.00    -0.271 NA
HETATM   14  C   UNL     1     -43.084  55.816 -59.430  1.00  0.00     0.146 A 
ENDBRANCH   4   8
ENDBRANCH   1   2
BRANCH   1  15
HETATM   15  C   UNL     1     -41.894  54.577 -52.833  1.00  0.00     0.051 A 
HETATM   16  C   UNL     1     -43.069  53.980 -52.338  1.00  0.00     0.031 A 
HETATM   17  C   UNL     1     -43.530  54.212 -51.037  1.00  0.00     0.002 A 
HETATM   18  C   UNL     1     -42.828  55.061 -50.190  1.00  0.00     0.000 A 
HETATM   19  C   UNL     1     -41.674  55.680 -50.649  1.00  0.00     0.002 A 
HETATM   20  C   UNL     1     -41.219  55.443 -51.953  1.00  0.00     0.031 A 
ENDBRANCH   1  15
BRANCH   1  21
HETATM   21  C   UNL     1     -40.203  53.591 -54.450  1.00  0.00     0.187 C 
BRANCH  21  22
HETATM   22  C   UNL     1     -40.047  52.265 -53.721  1.00  0.00    -0.038 A 
HETATM   23  C   UNL     1     -39.702  52.160 -52.364  1.00  0.00     0.009 A 
HETATM   24  C   UNL     1     -39.531  50.911 -51.762  1.00  0.00     0.001 A 
HETATM   25  C   UNL     1     -39.687  49.747 -52.509  1.00  0.00     0.000 A 
HETATM   26  C   UNL     1     -40.015  49.830 -53.859  1.00  0.00     0.001 A 
HETATM   27  C   UNL     1     -40.191  51.078 -54.461  1.00  0.00     0.009 A 
ENDBRANCH  21  22
ENDBRANCH   1  21
TORSDOF 5
ENDMDL
MODEL 2
REMARK VINA RESULT:      -8.1      1.922      4.445
REMARK  5 active torsions:
REMARK  status: ('A' for Active; 'I' for Inactive)
REMARK    1  A    between atoms: C_3  and  N_4 
REMARK       I    between atoms: N_4  and  C_5 
REMARK       I    between atoms: C_5  and  N_6 
REMARK    2  A    between atoms: N_6  and  N_7 
REMARK    3  A    between atoms: N_7  and  C_8 
REMARK    4  A    between atoms: N_7  and  C_14 
REMARK    5  A    between atoms: C_14  and  C_15 
ROOT
HETATM    1  N   UNL     1     -41.157  55.378 -54.188  1.00  0.00    -0.284 N 
ENDROOT
BRANCH   1   2
HETATM    2  N   UNL     1     -41.270  55.524 -55.589  1.00  0.00    -0.249 N 
HETATM    3  C   UNL     1     -42.540  55.547 -56.163  1.00  0.00     0.339 C 
HETATM    4  N   UNL     1     -42.469  55.942 -57.490  1.00  0.00    -0.306 N 
HETATM    5  O   UNL     1     -43.567  55.277 -55.554  1.00  0.00    -0.245 OA
HETATM    6  H   UNL     1     -41.700  56.566 -57.680  1.00  0.00     0.171 HD
HETATM    7  H   UNL     1     -40.492  56.006 -56.019  1.00  0.00     0.192 HD
BRANCH   4   8
HETATM    8  C   UNL     1     -43.564  56.035 -58.384  1.00  0.00     0.059 A 
HETATM    9  C   UNL     1     -44.435  57.127 -58.510  1.00  0.00    -0.032 A 
HETATM   10  C   UNL     1     -44.403  58.354 -57.644  1.00  0.00     0.050 C 
HETATM   11  C   UNL     1     -45.438  57.066 -59.495  1.00  0.00     0.028 A 
HETATM   12  C   UNL     1     -45.581  55.919 -60.259  1.00  0.00     0.117 A 
HETATM   13  N   UNL     1     -44.809  54.828 -60.112  1.00  0.00    -0.271 NA
HETATM   14  C   UNL     1     -43.829  54.915 -59.181  1.00  0.00     0.146 A 
ENDBRANCH   4   8
ENDBRANCH   1   2
BRANCH   1  15
HETATM   15  C   UNL     1     -40.692  54.137 -53.729  1.00  0.00     0.051 A 
HETATM   16  C   UNL     1     -40.522  53.878 -52.355  1.00  0.00     0.031 A 
HETATM   17  C   UNL     1     -40.070  52.641 -51.882  1.00  0.00     0.002 A 
HETATM   18  C   UNL     1     -39.764  51.622 -52.776  1.00  0.00     0.000 A 
HETATM   19  C   UNL     1     -39.903  51.847 -54.139  1.00  0.00     0.002 A 
HETATM   20  C   UNL     1     -40.357  53.088 -54.604  1.00  0.00     0.031 A 
ENDBRANCH   1  15
BRANCH   1  21
HETATM   21  C   UNL     1     -41.099  56.622 -53.403  1.00  0.00     0.187 C 
BRANCH  21  22
HETATM   22  C   UNL     1     -42.409  57.023 -52.743  1.00  0.00    -0.038 A 
HETATM   23  C   UNL     1     -42.916  56.410 -51.586  1.00  0.00     0.009 A 
HETATM   24  C   UNL     1     -44.148  56.794 -51.052  1.00  0.00     0.001 A 
HETATM   25  C   UNL     1     -44.902  57.787 -51.672  1.00  0.00     0.000 A 
HETATM   26  C   UNL     1     -44.423  58.397 -52.829  1.00  0.00     0.001 A 
HETATM   27  C   UNL     1     -43.190  58.017 -53.361  1.00  0.00     0.009 A 
ENDBRANCH  21  22
ENDBRANCH   1  21
TORSDOF 5
ENDMDL
MODEL 3
REMARK VINA RESULT:      -8.0      1.353      4.319
REMARK  5 active torsions:
REMARK  status: ('A' for Active; 'I' for Inactive)
REMARK    1  A    between atoms: C_3  and  N_4 
REMARK       I    between atoms: N_4  and  C_5 
REMARK       I    between atoms: C_5  and  N_6 
REMARK    2  A    between atoms: N_6  and  N_7 
REMARK    3  A    between atoms: N_7  and  C_8 
REMARK    4  A    between atoms: N_7  and  C_14 
REMARK    5  A    between atoms: C_14  and  C_15 
ROOT
HETATM    1  N   UNL     1     -40.614  53.689 -53.181  1.00  0.00    -0.284 N 
ENDROOT
BRANCH   1   2
HETATM    2  N   UNL     1     -40.635  54.355 -54.427  1.00  0.00    -0.249 N 
HETATM    3  C   UNL     1     -41.860  54.768 -54.949  1.00  0.00     0.339 C 
HETATM    4  N   UNL     1     -41.670  55.610 -56.034  1.00  0.00    -0.306 N 
HETATM    5  O   UNL     1     -42.944  54.441 -54.482  1.00  0.00    -0.245 OA
HETATM    6  H   UNL     1     -40.815  56.144 -55.980  1.00  0.00     0.171 HD
HETATM    7  H   UNL     1     -39.779  54.845 -54.648  1.00  0.00     0.192 HD
BRANCH   4   8
HETATM    8  C   UNL     1     -42.695  56.180 -56.827  1.00  0.00     0.059 A 
HETATM    9  C   UNL     1     -43.453  57.315 -56.504  1.00  0.00    -0.032 A 
HETATM   10  C   UNL     1     -43.360  58.067 -55.207  1.00  0.00     0.050 C 
HETATM   11  C   UNL     1     -44.396  57.773 -57.443  1.00  0.00     0.028 A 
HETATM   12  C   UNL     1     -44.598  57.064 -58.615  1.00  0.00     0.117 A 
HETATM   13  N   UNL     1     -43.940  55.931 -58.921  1.00  0.00    -0.271 NA
HETATM   14  C   UNL     1     -43.014  55.522 -58.021  1.00  0.00     0.146 A 
ENDBRANCH   4   8
ENDBRANCH   1   2
BRANCH   1  15
HETATM   15  C   UNL     1     -40.272  52.328 -53.210  1.00  0.00     0.051 A 
HETATM   16  C   UNL     1     -40.403  51.564 -54.385  1.00  0.00     0.031 A 
HETATM   17  C   UNL     1     -40.055  50.209 -54.431  1.00  0.00     0.002 A 
HETATM   18  C   UNL     1     -39.572  49.573 -53.295  1.00  0.00     0.000 A 
HETATM   19  C   UNL     1     -39.445  50.292 -52.113  1.00  0.00     0.002 A 
HETATM   20  C   UNL     1     -39.796  51.648 -52.075  1.00  0.00     0.031 A 
ENDBRANCH   1  15
BRANCH   1  21
HETATM   21  C   UNL     1     -40.507  54.540 -51.985  1.00  0.00     0.187 C 
BRANCH  21  22
HETATM   22  C   UNL     1     -41.821  55.137 -51.505  1.00  0.00    -0.038 A 
HETATM   23  C   UNL     1     -42.859  54.378 -50.940  1.00  0.00     0.009 A 
HETATM   24  C   UNL     1     -44.061  54.978 -50.558  1.00  0.00     0.001 A 
HETATM   25  C   UNL     1     -44.252  56.344 -50.747  1.00  0.00     0.000 A 
HETATM   26  C   UNL     1     -43.241  57.111 -51.319  1.00  0.00     0.001 A 
HETATM   27  C   UNL     1     -42.038  56.513 -51.697  1.00  0.00     0.009 A 
ENDBRANCH  21  22
ENDBRANCH   1  21
TORSDOF 5
ENDMDL
MODEL 4
REMARK VINA RESULT:      -8.0      1.795      2.575
REMARK  5 active torsions:
REMARK  status: ('A' for Active; 'I' for Inactive)
REMARK    1  A    between atoms: C_3  and  N_4 
REMARK       I    between atoms: N_4  and  C_5 
REMARK       I    between atoms: C_5  and  N_6 
REMARK    2  A    between atoms: N_6  and  N_7 
REMARK    3  A    between atoms: N_7  and  C_8 
REMARK    4  A    between atoms: N_7  and  C_14 
REMARK    5  A    between atoms: C_14  and  C_15 
ROOT
HETATM    1  N   UNL     1     -41.424  55.533 -54.132  1.00  0.00    -0.284 N 
ENDROOT
BRANCH   1   2
HETATM    2  N   UNL     1     -41.358  55.820 -55.514  1.00  0.00    -0.249 N 
HETATM    3  C   UNL     1     -42.488  56.329 -56.151  1.00  0.00     0.339 C 
HETATM    4  N   UNL     1     -42.172  56.779 -57.424  1.00  0.00    -0.306 N 
HETATM    5  O   UNL     1     -43.595  56.386 -55.630  1.00  0.00    -0.245 OA
HETATM    6  H   UNL     1     -41.222  57.110 -57.505  1.00  0.00     0.171 HD
HETATM    7  H   UNL     1     -40.428  56.033 -55.848  1.00  0.00     0.192 HD
BRANCH   4   8
HETATM    8  C   UNL     1     -43.087  57.319 -58.360  1.00  0.00     0.059 A 
HETATM    9  C   UNL     1     -43.909  56.585 -59.227  1.00  0.00    -0.032 A 
HETATM   10  C   UNL     1     -43.888  55.089 -59.368  1.00  0.00     0.050 C 
HETATM   11  C   UNL     1     -44.801  57.292 -60.055  1.00  0.00     0.028 A 
HETATM   12  C   UNL     1     -44.797  58.677 -60.042  1.00  0.00     0.117 A 
HETATM   13  N   UNL     1     -43.969  59.411 -59.276  1.00  0.00    -0.271 NA
HETATM   14  C   UNL     1     -43.140  58.714 -58.463  1.00  0.00     0.146 A 
ENDBRANCH   4   8
ENDBRANCH   1   2
BRANCH   1  15
HETATM   15  C   UNL     1     -41.278  56.626 -53.264  1.00  0.00     0.051 A 
HETATM   16  C   UNL     1     -41.795  56.597 -51.954  1.00  0.00     0.031 A 
HETATM   17  C   UNL     1     -41.647  57.675 -51.074  1.00  0.00     0.002 A 
HETATM   18  C   UNL     1     -40.982  58.824 -51.483  1.00  0.00     0.000 A 
HETATM   19  C   UNL     1     -40.474  58.894 -52.774  1.00  0.00     0.002 A 
HETATM   20  C   UNL     1     -40.626  57.811 -53.649  1.00  0.00     0.031 A 
ENDBRANCH   1  15
BRANCH   1  21
HETATM   21  C   UNL     1     -42.066  54.263 -53.758  1.00  0.00     0.187 C 
BRANCH  21  22
HETATM   22  C   UNL     1     -41.103  53.145 -53.388  1.00  0.00    -0.038 A 
HETATM   23  C   UNL     1     -40.723  52.122 -54.271  1.00  0.00     0.009 A 
HETATM   24  C   UNL     1     -39.867  51.099 -53.858  1.00  0.00     0.001 A 
HETATM   25  C   UNL     1     -39.387  51.072 -52.551  1.00  0.00     0.000 A 
HETATM   26  C   UNL     1     -39.763  52.069 -51.656  1.00  0.00     0.001 A 
HETATM   27  C   UNL     1     -40.615  53.096 -52.069  1.00  0.00     0.009 A 
ENDBRANCH  21  22
ENDBRANCH   1  21
TORSDOF 5
ENDMDL
MODEL 5
REMARK VINA RESULT:      -7.9      1.930      2.751
REMARK  5 active torsions:
REMARK  status: ('A' for Active; 'I' for Inactive)
REMARK    1  A    between atoms: C_3  and  N_4 
REMARK       I    between atoms: N_4  and  C_5 
REMARK       I    between atoms: C_5  and  N_6 
REMARK    2  A    between atoms: N_6  and  N_7 
REMARK    3  A    between atoms: N_7  and  C_8 
REMARK    4  A    between atoms: N_7  and  C_14 
REMARK    5  A    between atoms: C_14  and  C_15 
ROOT
HETATM    1  N   UNL     1     -42.758  55.979 -52.868  1.00  0.00    -0.284 N 
ENDROOT
BRANCH   1   2
HETATM    2  N   UNL     1     -43.438  56.311 -54.062  1.00  0.00    -0.249 N 
HETATM    3  C   UNL     1     -42.699  56.483 -55.231  1.00  0.00     0.339 C 
HETATM    4  N   UNL     1     -43.536  56.555 -56.333  1.00  0.00    -0.306 N 
HETATM    5  O   UNL     1     -41.475  56.533 -55.262  1.00  0.00    -0.245 OA
HETATM    6  H   UNL     1     -44.391  56.030 -56.220  1.00  0.00     0.171 HD
HETATM    7  H   UNL     1     -44.399  56.001 -54.091  1.00  0.00     0.192 HD
BRANCH   4   8
HETATM    8  C   UNL     1     -43.125  56.767 -57.672  1.00  0.00     0.059 A 
HETATM    9  C   UNL     1     -42.608  57.960 -58.197  1.00  0.00    -0.032 A 
HETATM   10  C   UNL     1     -42.490  59.251 -57.437  1.00  0.00     0.050 C 
HETATM   11  C   UNL     1     -42.198  57.971 -59.543  1.00  0.00     0.028 A 
HETATM   12  C   UNL     1     -42.374  56.840 -60.323  1.00  0.00     0.117 A 
HETATM   13  N   UNL     1     -42.934  55.704 -59.869  1.00  0.00    -0.271 NA
HETATM   14  C   UNL     1     -43.294  55.701 -58.563  1.00  0.00     0.146 A 
ENDBRANCH   4   8
ENDBRANCH   1   2
BRANCH   1  15
HETATM   15  C   UNL     1     -42.353  57.056 -52.065  1.00  0.00     0.051 A 
HETATM   16  C   UNL     1     -41.188  56.986 -51.277  1.00  0.00     0.031 A 
HETATM   17  C   UNL     1     -40.765  58.056 -50.480  1.00  0.00     0.002 A 
HETATM   18  C   UNL     1     -41.505  59.232 -50.440  1.00  0.00     0.000 A 
HETATM   19  C   UNL     1     -42.669  59.329 -51.192  1.00  0.00     0.002 A 
HETATM   20  C   UNL     1     -43.085  58.254 -51.987  1.00  0.00     0.031 A 
ENDBRANCH   1  15
BRANCH   1  21
HETATM   21  C   UNL     1     -42.936  54.604 -52.375  1.00  0.00     0.187 C 
BRANCH  21  22
HETATM   22  C   UNL     1     -41.792  53.655 -52.702  1.00  0.00    -0.038 A 
HETATM   23  C   UNL     1     -41.573  53.113 -53.978  1.00  0.00     0.009 A 
HETATM   24  C   UNL     1     -40.529  52.212 -54.205  1.00  0.00     0.001 A 
HETATM   25  C   UNL     1     -39.696  51.828 -53.158  1.00  0.00     0.000 A 
HETATM   26  C   UNL     1     -39.906  52.343 -51.882  1.00  0.00     0.001 A 
HETATM   27  C   UNL     1     -40.946  53.247 -51.655  1.00  0.00     0.009 A 
ENDBRANCH  21  22
ENDBRANCH   1  21
TORSDOF 5
ENDMDL
MODEL 6
REMARK VINA RESULT:      -7.6      1.839      2.410
REMARK  5 active torsions:
REMARK  status: ('A' for Active; 'I' for Inactive)
REMARK    1  A    between atoms: C_3  and  N_4 
REMARK       I    between atoms: N_4  and  C_5 
REMARK       I    between atoms: C_5  and  N_6 
REMARK    2  A    between atoms: N_6  and  N_7 
REMARK    3  A    between atoms: N_7  and  C_8 
REMARK    4  A    between atoms: N_7  and  C_14 
REMARK    5  A    between atoms: C_14  and  C_15 
ROOT
HETATM    1  N   UNL     1     -41.543  55.639 -53.863  1.00  0.00    -0.284 N 
ENDROOT
BRANCH   1   2
HETATM    2  N   UNL     1     -41.416  55.692 -55.269  1.00  0.00    -0.249 N 
HETATM    3  C   UNL     1     -42.532  56.031 -56.033  1.00  0.00     0.339 C 
HETATM    4  N   UNL     1     -42.169  56.276 -57.348  1.00  0.00    -0.306 N 
HETATM    5  O   UNL     1     -43.666  56.121 -55.578  1.00  0.00    -0.245 OA
HETATM    6  H   UNL     1     -41.230  56.633 -57.442  1.00  0.00     0.171 HD
HETATM    7  H   UNL     1     -40.480  55.891 -55.593  1.00  0.00     0.192 HD
BRANCH   4   8
HETATM    8  C   UNL     1     -43.055  56.605 -58.402  1.00  0.00     0.059 A 
HETATM    9  C   UNL     1     -43.408  57.900 -58.810  1.00  0.00    -0.032 A 
HETATM   10  C   UNL     1     -42.968  59.163 -58.126  1.00  0.00     0.050 C 
HETATM   11  C   UNL     1     -44.263  58.037 -59.918  1.00  0.00     0.028 A 
HETATM   12  C   UNL     1     -44.781  56.908 -60.530  1.00  0.00     0.117 A 
HETATM   13  N   UNL     1     -44.520  55.654 -60.118  1.00  0.00    -0.271 NA
HETATM   14  C   UNL     1     -43.671  55.539 -59.069  1.00  0.00     0.146 A 
ENDBRANCH   4   8
ENDBRANCH   1   2
BRANCH   1  15
HETATM   15  C   UNL     1     -41.490  56.868 -53.188  1.00  0.00     0.051 A 
HETATM   16  C   UNL     1     -40.416  57.759 -53.369  1.00  0.00     0.031 A 
HETATM   17  C   UNL     1     -40.356  58.993 -52.711  1.00  0.00     0.002 A 
HETATM   18  C   UNL     1     -41.371  59.370 -51.841  1.00  0.00     0.000 A 
HETATM   19  C   UNL     1     -42.439  58.508 -51.625  1.00  0.00     0.002 A 
HETATM   20  C   UNL     1     -42.491  57.275 -52.287  1.00  0.00     0.031 A 
ENDBRANCH   1  15
BRANCH   1  21
HETATM   21  C   UNL     1     -42.147  54.418 -53.306  1.00  0.00     0.187 C 
BRANCH  21  22
HETATM   22  C   UNL     1     -41.189  53.248 -53.143  1.00  0.00    -0.038 A 
HETATM   23  C   UNL     1     -40.420  53.027 -51.989  1.00  0.00     0.009 A 
HETATM   24  C   UNL     1     -39.524  51.958 -51.917  1.00  0.00     0.001 A 
HETATM   25  C   UNL     1     -39.371  51.098 -53.002  1.00  0.00     0.000 A 
HETATM   26  C   UNL     1     -40.114  51.308 -54.161  1.00  0.00     0.001 A 
HETATM   27  C   UNL     1     -41.013  52.374 -54.232  1.00  0.00     0.009 A 
ENDBRANCH  21  22
ENDBRANCH   1  21
TORSDOF 5
ENDMDL
MODEL 7
REMARK VINA RESULT:      -7.5      2.993      7.170
REMARK  5 active torsions:
REMARK  status: ('A' for Active; 'I' for Inactive)
REMARK    1  A    between atoms: C_3  and  N_4 
REMARK       I    between atoms: N_4  and  C_5 
REMARK       I    between atoms: C_5  and  N_6 
REMARK    2  A    between atoms: N_6  and  N_7 
REMARK    3  A    between atoms: N_7  and  C_8 
REMARK    4  A    between atoms: N_7  and  C_14 
REMARK    5  A    between atoms: C_14  and  C_15 
ROOT
HETATM    1  N   UNL     1     -42.365  56.480 -51.885  1.00  0.00    -0.284 N 
ENDROOT
BRANCH   1   2
HETATM    2  N   UNL     1     -41.230  55.639 -51.941  1.00  0.00    -0.249 N 
HETATM    3  C   UNL     1     -41.404  54.263 -51.799  1.00  0.00     0.339 C 
HETATM    4  N   UNL     1     -40.239  53.587 -52.125  1.00  0.00    -0.306 N 
HETATM    5  O   UNL     1     -42.458  53.742 -51.457  1.00  0.00    -0.245 OA
HETATM    6  H   UNL     1     -39.679  54.066 -52.815  1.00  0.00     0.171 HD
HETATM    7  H   UNL     1     -40.461  56.018 -52.476  1.00  0.00     0.192 HD
BRANCH   4   8
HETATM    8  C   UNL     1     -40.049  52.186 -52.054  1.00  0.00     0.059 A 
HETATM    9  C   UNL     1     -39.949  51.310 -53.144  1.00  0.00    -0.032 A 
HETATM   10  C   UNL     1     -40.120  51.709 -54.582  1.00  0.00     0.050 C 
HETATM   11  C   UNL     1     -39.705  49.949 -52.883  1.00  0.00     0.028 A 
HETATM   12  C   UNL     1     -39.636  49.503 -51.574  1.00  0.00     0.117 A 
HETATM   13  N   UNL     1     -39.801  50.305 -50.506  1.00  0.00    -0.271 NA
HETATM   14  C   UNL     1     -40.004  51.616 -50.775  1.00  0.00     0.146 A 
ENDBRANCH   4   8
ENDBRANCH   1   2
BRANCH   1  15
HETATM   15  C   UNL     1     -42.160  57.766 -51.364  1.00  0.00     0.051 A 
HETATM   16  C   UNL     1     -43.149  58.763 -51.459  1.00  0.00     0.031 A 
HETATM   17  C   UNL     1     -42.963  60.047 -50.934  1.00  0.00     0.002 A 
HETATM   18  C   UNL     1     -41.769  60.377 -50.304  1.00  0.00     0.000 A 
HETATM   19  C   UNL     1     -40.764  59.423 -50.207  1.00  0.00     0.002 A 
HETATM   20  C   UNL     1     -40.959  58.140 -50.735  1.00  0.00     0.031 A 
ENDBRANCH   1  15
BRANCH   1  21
HETATM   21  C   UNL     1     -43.494  56.113 -52.755  1.00  0.00     0.187 C 
BRANCH  21  22
HETATM   22  C   UNL     1     -43.192  56.159 -54.246  1.00  0.00    -0.038 A 
HETATM   23  C   UNL     1     -43.058  57.352 -54.975  1.00  0.00     0.009 A 
HETATM   24  C   UNL     1     -42.823  57.328 -56.352  1.00  0.00     0.001 A 
HETATM   25  C   UNL     1     -42.733  56.114 -57.026  1.00  0.00     0.000 A 
HETATM   26  C   UNL     1     -42.877  54.920 -56.323  1.00  0.00     0.001 A 
HETATM   27  C   UNL     1     -43.107  54.943 -54.946  1.00  0.00     0.009 A 
ENDBRANCH  21  22
ENDBRANCH   1  21
TORSDOF 5
ENDMDL
MODEL 8
REMARK VINA RESULT:      -7.2      2.393      8.098
REMARK  5 active torsions:
REMARK  status: ('A' for Active; 'I' for Inactive)
REMARK    1  A    between atoms: C_3  and  N_4 
REMARK       I    between atoms: N_4  and  C_5 
REMARK       I    between atoms: C_5  and  N_6 
REMARK    2  A    between atoms: N_6  and  N_7 
REMARK    3  A    between atoms: N_7  and  C_8 
REMARK    4  A    between atoms: N_7  and  C_14 
REMARK    5  A    between atoms: C_14  and  C_15 
ROOT
HETATM    1  N   UNL     1     -43.585  56.769 -55.979  1.00  0.00    -0.284 N 
ENDROOT
BRANCH   1   2
HETATM    2  N   UNL     1     -43.469  55.523 -55.324  1.00  0.00    -0.249 N 
HETATM    3  C   UNL     1     -42.427  55.333 -54.418  1.00  0.00     0.339 C 
HETATM    4  N   UNL     1     -42.612  54.163 -53.697  1.00  0.00    -0.306 N 
HETATM    5  O   UNL     1     -41.498  56.118 -54.274  1.00  0.00    -0.245 OA
HETATM    6  H   UNL     1     -43.584  53.920 -53.574  1.00  0.00     0.171 HD
HETATM    7  H   UNL     1     -44.341  55.021 -55.232  1.00  0.00     0.192 HD
BRANCH   4   8
HETATM    8  C   UNL     1     -41.726  53.644 -52.723  1.00  0.00     0.059 A 
HETATM    9  C   UNL     1     -40.634  52.798 -52.966  1.00  0.00    -0.032 A 
HETATM   10  C   UNL     1     -40.277  52.225 -54.309  1.00  0.00     0.050 C 
HETATM   11  C   UNL     1     -39.826  52.425 -51.876  1.00  0.00     0.028 A 
HETATM   12  C   UNL     1     -40.163  52.841 -50.599  1.00  0.00     0.117 A 
HETATM   13  N   UNL     1     -41.244  53.591 -50.323  1.00  0.00    -0.271 NA
HETATM   14  C   UNL     1     -41.993  53.967 -51.387  1.00  0.00     0.146 A 
ENDBRANCH   4   8
ENDBRANCH   1   2
BRANCH   1  15
HETATM   15  C   UNL     1     -43.117  56.822 -57.301  1.00  0.00     0.051 A 
HETATM   16  C   UNL     1     -43.323  55.755 -58.195  1.00  0.00     0.031 A 
HETATM   17  C   UNL     1     -42.871  55.798 -59.519  1.00  0.00     0.002 A 
HETATM   18  C   UNL     1     -42.190  56.914 -59.989  1.00  0.00     0.000 A 
HETATM   19  C   UNL     1     -41.955  57.979 -59.129  1.00  0.00     0.002 A 
HETATM   20  C   UNL     1     -42.409  57.928 -57.805  1.00  0.00     0.031 A 
ENDBRANCH   1  15
BRANCH   1  21
HETATM   21  C   UNL     1     -44.552  57.720 -55.408  1.00  0.00     0.187 C 
BRANCH  21  22
HETATM   22  C   UNL     1     -43.943  59.009 -54.877  1.00  0.00    -0.038 A 
HETATM   23  C   UNL     1     -43.029  59.055 -53.811  1.00  0.00     0.009 A 
HETATM   24  C   UNL     1     -42.538  60.275 -53.340  1.00  0.00     0.001 A 
HETATM   25  C   UNL     1     -42.961  61.470 -53.916  1.00  0.00     0.000 A 
HETATM   26  C   UNL     1     -43.878  61.446 -54.964  1.00  0.00     0.001 A 
HETATM   27  C   UNL     1     -44.366  60.227 -55.438  1.00  0.00     0.009 A 
ENDBRANCH  21  22
ENDBRANCH   1  21
TORSDOF 5
ENDMDL
MODEL 9
REMARK VINA RESULT:      -7.1      2.185      4.719
REMARK  5 active torsions:
REMARK  status: ('A' for Active; 'I' for Inactive)
REMARK    1  A    between atoms: C_3  and  N_4 
REMARK       I    between atoms: N_4  and  C_5 
REMARK       I    between atoms: C_5  and  N_6 
REMARK    2  A    between atoms: N_6  and  N_7 
REMARK    3  A    between atoms: N_7  and  C_8 
REMARK    4  A    between atoms: N_7  and  C_14 
REMARK    5  A    between atoms: C_14  and  C_15 
ROOT
HETATM    1  N   UNL     1     -43.214  55.003 -53.268  1.00  0.00    -0.284 N 
ENDROOT
BRANCH   1   2
HETATM    2  N   UNL     1     -43.759  55.383 -54.515  1.00  0.00    -0.249 N 
HETATM    3  C   UNL     1     -42.931  56.001 -55.451  1.00  0.00     0.339 C 
HETATM    4  N   UNL     1     -43.557  56.074 -56.685  1.00  0.00    -0.306 N 
HETATM    5  O   UNL     1     -41.798  56.394 -55.203  1.00  0.00    -0.245 OA
HETATM    6  H   UNL     1     -44.210  55.321 -56.847  1.00  0.00     0.171 HD
HETATM    7  H   UNL     1     -44.556  54.833 -54.804  1.00  0.00     0.192 HD
BRANCH   4   8
HETATM    8  C   UNL     1     -43.021  56.676 -57.850  1.00  0.00     0.059 A 
HETATM    9  C   UNL     1     -42.692  58.030 -58.003  1.00  0.00    -0.032 A 
HETATM   10  C   UNL     1     -42.943  59.095 -56.972  1.00  0.00     0.050 C 
HETATM   11  C   UNL     1     -42.114  58.441 -59.218  1.00  0.00     0.028 A 
HETATM   12  C   UNL     1     -41.949  57.524 -60.243  1.00  0.00     0.117 A 
HETATM   13  N   UNL     1     -42.321  56.235 -60.154  1.00  0.00    -0.271 NA
HETATM   14  C   UNL     1     -42.847  55.850 -58.967  1.00  0.00     0.146 A 
ENDBRANCH   4   8
ENDBRANCH   1   2
BRANCH   1  15
HETATM   15  C   UNL     1     -42.170  54.066 -53.306  1.00  0.00     0.051 A 
HETATM   16  C   UNL     1     -41.243  53.957 -52.253  1.00  0.00     0.031 A 
HETATM   17  C   UNL     1     -40.203  53.020 -52.273  1.00  0.00     0.002 A 
HETATM   18  C   UNL     1     -40.054  52.165 -53.358  1.00  0.00     0.000 A 
HETATM   19  C   UNL     1     -40.941  52.257 -54.423  1.00  0.00     0.002 A 
HETATM   20  C   UNL     1     -41.979  53.197 -54.396  1.00  0.00     0.031 A 
ENDBRANCH   1  15
BRANCH   1  21
HETATM   21  C   UNL     1     -43.461  55.916 -52.140  1.00  0.00     0.187 C 
BRANCH  21  22
HETATM   22  C   UNL     1     -42.942  57.332 -52.339  1.00  0.00    -0.038 A 
HETATM   23  C   UNL     1     -43.733  58.390 -52.816  1.00  0.00     0.009 A 
HETATM   24  C   UNL     1     -43.186  59.659 -53.018  1.00  0.00     0.001 A 
HETATM   25  C   UNL     1     -41.837  59.890 -52.762  1.00  0.00     0.000 A 
HETATM   26  C   UNL     1     -41.033  58.850 -52.303  1.00  0.00     0.001 A 
HETATM   27  C   UNL     1     -41.580  57.582 -52.096  1.00  0.00     0.009 A 
ENDBRANCH  21  22
ENDBRANCH   1  21
TORSDOF 5
ENDMDL
MODEL 10
REMARK VINA RESULT:      -7.1      1.467      4.140
REMARK  5 active torsions:
REMARK  status: ('A' for Active; 'I' for Inactive)
REMARK    1  A    between atoms: C_3  and  N_4 
REMARK       I    between atoms: N_4  and  C_5 
REMARK       I    between atoms: C_5  and  N_6 
REMARK    2  A    between atoms: N_6  and  N_7 
REMARK    3  A    between atoms: N_7  and  C_8 
REMARK    4  A    between atoms: N_7  and  C_14 
REMARK    5  A    between atoms: C_14  and  C_15 
ROOT
HETATM    1  N   UNL     1     -41.925  53.706 -54.124  1.00  0.00    -0.284 N 
ENDROOT
BRANCH   1   2
HETATM    2  N   UNL     1     -41.508  54.586 -55.148  1.00  0.00    -0.249 N 
HETATM    3  C   UNL     1     -42.462  55.374 -55.789  1.00  0.00     0.339 C 
HETATM    4  N   UNL     1     -41.852  56.339 -56.575  1.00  0.00    -0.306 N 
HETATM    5  O   UNL     1     -43.670  55.233 -55.643  1.00  0.00    -0.245 OA
HETATM    6  H   UNL     1     -40.953  56.631 -56.222  1.00  0.00     0.171 HD
HETATM    7  H   UNL     1     -40.547  54.889 -55.067  1.00  0.00     0.192 HD
BRANCH   4   8
HETATM    8  C   UNL     1     -42.521  57.281 -57.394  1.00  0.00     0.059 A 
HETATM    9  C   UNL     1     -42.986  57.058 -58.698  1.00  0.00    -0.032 A 
HETATM   10  C   UNL     1     -42.769  55.795 -59.481  1.00  0.00     0.050 C 
HETATM   11  C   UNL     1     -43.681  58.098 -59.342  1.00  0.00     0.028 A 
HETATM   12  C   UNL     1     -43.827  59.321 -58.709  1.00  0.00     0.117 A 
HETATM   13  N   UNL     1     -43.329  59.590 -57.489  1.00  0.00    -0.271 NA
HETATM   14  C   UNL     1     -42.691  58.568 -56.870  1.00  0.00     0.146 A 
ENDBRANCH   4   8
ENDBRANCH   1   2
BRANCH   1  15
HETATM   15  C   UNL     1     -41.098  52.599 -53.881  1.00  0.00     0.051 A 
HETATM   16  C   UNL     1     -40.120  52.621 -52.869  1.00  0.00     0.031 A 
HETATM   17  C   UNL     1     -39.295  51.520 -52.609  1.00  0.00     0.002 A 
HETATM   18  C   UNL     1     -39.420  50.361 -53.364  1.00  0.00     0.000 A 
HETATM   19  C   UNL     1     -40.363  50.310 -54.382  1.00  0.00     0.002 A 
HETATM   20  C   UNL     1     -41.184  51.415 -54.637  1.00  0.00     0.031 A 
ENDBRANCH   1  15
BRANCH   1  21
HETATM   21  C   UNL     1     -42.886  54.246 -53.149  1.00  0.00     0.187 C 
BRANCH  21  22
HETATM   22  C   UNL     1     -42.261  54.801 -51.877  1.00  0.00    -0.038 A 
HETATM   23  C   UNL     1     -42.301  54.140 -50.639  1.00  0.00     0.009 A 
HETATM   24  C   UNL     1     -41.746  54.722 -49.497  1.00  0.00     0.001 A 
HETATM   25  C   UNL     1     -41.155  55.981 -49.569  1.00  0.00     0.000 A 
HETATM   26  C   UNL     1     -41.118  56.659 -50.784  1.00  0.00     0.001 A 
HETATM   27  C   UNL     1     -41.668  56.076 -51.928  1.00  0.00     0.009 A 
ENDBRANCH  21  22
ENDBRANCH   1  21
TORSDOF 5
ENDMDL
