MODEL 1
REMARK VINA RESULT:      -8.0      0.000      0.000
REMARK  8 active torsions:
REMARK  status: ('A' for Active; 'I' for Inactive)
REMARK    1  A    between atoms: C_2  and  C_3 
REMARK    2  A    between atoms: C_6  and  C_7 
REMARK    3  A    between atoms: C_11  and  C_12 
REMARK    4  A    between atoms: C_12  and  C_13 
REMARK    5  A    between atoms: C_13  and  C_14 
REMARK    6  A    between atoms: C_14  and  O_15 
REMARK    7  A    between atoms: C_20  and  C_21 
REMARK       I    between atoms: C_21  and  N_22 
REMARK    8  A    between atoms: N_22  and  C_23 
ROOT
HETATM    1  C   UNL     1     -42.449  57.452 -56.790  1.00  0.00     0.202 C 
HETATM    2  N   UNL     1     -42.252  58.882 -57.027  1.00  0.00    -0.083 N 
HETATM    3  C   UNL     1     -42.657  59.857 -56.162  1.00  0.00     0.726 A 
HETATM    4  N   UNL     1     -42.323  61.028 -56.642  1.00  0.00    -0.046 NA
HETATM    5  C   UNL     1     -41.658  60.708 -57.804  1.00  0.00     0.166 A 
HETATM    6  N   UNL     1     -41.569  59.395 -58.073  1.00  0.00    -0.140 NA
HETATM    7  N   UNL     1     -43.243  59.504 -55.003  1.00  0.00    -0.192 N 
HETATM    8  C   UNL     1     -43.238  58.192 -54.527  1.00  0.00     0.037 C 
HETATM    9  C   UNL     1     -43.697  58.022 -53.099  1.00  0.00     0.070 C 
HETATM   10  C   UNL     1     -42.842  57.173 -55.336  1.00  0.00     0.062 C 
HETATM   11  H   UNL     1     -43.419  60.237 -54.320  1.00  0.00     0.184 HD
ENDROOT
BRANCH  10  12
HETATM   12  C   UNL     1     -42.632  55.796 -54.778  1.00  0.00     0.256 C 
HETATM   13  N   UNL     1     -41.357  55.527 -54.330  1.00  0.00    -0.323 N 
HETATM   14  H   UNL     1     -40.651  56.244 -54.413  1.00  0.00     0.169 HD
HETATM   15  O   UNL     1     -43.585  55.026 -54.703  1.00  0.00    -0.267 OA
BRANCH  13  16
HETATM   16  C   UNL     1     -40.879  54.326 -53.763  1.00  0.00     0.035 A 
HETATM   17  C   UNL     1     -40.403  53.244 -54.506  1.00  0.00     0.031 A 
HETATM   18  C   UNL     1     -39.923  52.099 -53.860  1.00  0.00     0.026 A 
HETATM   19  C   UNL     1     -39.933  52.027 -52.470  1.00  0.00     0.034 A 
HETATM   20 CL   UNL     1     -39.348  50.616 -51.678  1.00  0.00    -0.084 Cl
HETATM   21  C   UNL     1     -40.411  53.094 -51.717  1.00  0.00     0.026 A 
HETATM   22  C   UNL     1     -40.872  54.245 -52.363  1.00  0.00     0.031 A 
ENDBRANCH  13  16
ENDBRANCH  10  12
BRANCH   1  23
HETATM   23  C   UNL     1     -43.474  56.911 -57.788  1.00  0.00    -0.028 A 
HETATM   24  C   UNL     1     -44.650  57.635 -58.048  1.00  0.00     0.010 A 
HETATM   25  C   UNL     1     -45.514  57.241 -59.073  1.00  0.00     0.007 A 
HETATM   26  C   UNL     1     -45.232  56.109 -59.844  1.00  0.00    -0.059 A 
HETATM   27  C   UNL     1     -44.095  55.349 -59.547  1.00  0.00     0.007 A 
HETATM   28  C   UNL     1     -43.231  55.739 -58.525  1.00  0.00     0.010 A 
BRANCH  26  29
HETATM   29  C   UNL     1     -46.114  55.728 -61.008  1.00  0.00     0.034 C 
HETATM   30  C   UNL     1     -47.424  56.505 -60.990  1.00  0.00     0.010 C 
ENDBRANCH  26  29
ENDBRANCH   1  23
BRANCH   5  31
HETATM   31  C   UNL     1     -41.031  61.742 -58.665  1.00  0.00     0.085 C 
BRANCH  31  32
HETATM   32  C   UNL     1     -41.879  62.098 -59.885  1.00  0.00     0.034 C 
BRANCH  32  33
HETATM   33  C   UNL     1     -41.388  61.435 -61.167  1.00  0.00     0.164 C 
BRANCH  33  34
HETATM   34  O   UNL     1     -41.796  60.071 -61.187  1.00  0.00    -0.401 OA
HETATM   35  H   UNL     1     -42.341  59.914 -60.397  1.00  0.00     0.209 HD
ENDBRANCH  33  34
ENDBRANCH  32  33
ENDBRANCH  31  32
ENDBRANCH   5  31
TORSDOF 8
ENDMDL
MODEL 2
REMARK VINA RESULT:      -7.8      1.223      1.618
REMARK  8 active torsions:
REMARK  status: ('A' for Active; 'I' for Inactive)
REMARK    1  A    between atoms: C_2  and  C_3 
REMARK    2  A    between atoms: C_6  and  C_7 
REMARK    3  A    between atoms: C_11  and  C_12 
REMARK    4  A    between atoms: C_12  and  C_13 
REMARK    5  A    between atoms: C_13  and  C_14 
REMARK    6  A    between atoms: C_14  and  O_15 
REMARK    7  A    between atoms: C_20  and  C_21 
REMARK       I    between atoms: C_21  and  N_22 
REMARK    8  A    between atoms: N_22  and  C_23 
ROOT
HETATM    1  C   UNL     1     -42.620  57.744 -57.088  1.00  0.00     0.202 C 
HETATM    2  N   UNL     1     -42.341  59.135 -57.446  1.00  0.00    -0.083 N 
HETATM    3  C   UNL     1     -42.572  60.193 -56.613  1.00  0.00     0.726 A 
HETATM    4  N   UNL     1     -42.204  61.300 -57.208  1.00  0.00    -0.046 NA
HETATM    5  C   UNL     1     -41.699  60.853 -58.408  1.00  0.00     0.166 A 
HETATM    6  N   UNL     1     -41.742  59.523 -58.592  1.00  0.00    -0.140 NA
HETATM    7  N   UNL     1     -43.051  59.962 -55.377  1.00  0.00    -0.192 N 
HETATM    8  C   UNL     1     -43.094  58.687 -54.813  1.00  0.00     0.037 C 
HETATM    9  C   UNL     1     -43.403  58.645 -53.335  1.00  0.00     0.070 C 
HETATM   10  C   UNL     1     -42.870  57.590 -55.584  1.00  0.00     0.062 C 
HETATM   11  H   UNL     1     -43.093  60.749 -54.733  1.00  0.00     0.184 HD
ENDROOT
BRANCH  10  12
HETATM   12  C   UNL     1     -42.705  56.238 -54.955  1.00  0.00     0.256 C 
HETATM   13  N   UNL     1     -41.416  55.901 -54.606  1.00  0.00    -0.323 N 
HETATM   14  H   UNL     1     -40.673  56.555 -54.799  1.00  0.00     0.169 HD
HETATM   15  O   UNL     1     -43.699  55.548 -54.744  1.00  0.00    -0.267 OA
BRANCH  13  16
HETATM   16  C   UNL     1     -40.972  54.704 -54.004  1.00  0.00     0.035 A 
HETATM   17  C   UNL     1     -40.953  54.479 -52.626  1.00  0.00     0.031 A 
HETATM   18  C   UNL     1     -40.518  53.250 -52.116  1.00  0.00     0.026 A 
HETATM   19  C   UNL     1     -40.086  52.250 -52.980  1.00  0.00     0.034 A 
HETATM   20 CL   UNL     1     -39.546  50.743 -52.350  1.00  0.00    -0.084 Cl
HETATM   21  C   UNL     1     -40.092  52.462 -54.355  1.00  0.00     0.026 A 
HETATM   22  C   UNL     1     -40.544  53.682 -54.865  1.00  0.00     0.031 A 
ENDBRANCH  13  16
ENDBRANCH  10  12
BRANCH   1  23
HETATM   23  C   UNL     1     -43.789  57.230 -57.931  1.00  0.00    -0.028 A 
HETATM   24  C   UNL     1     -45.008  57.928 -57.939  1.00  0.00     0.010 A 
HETATM   25  C   UNL     1     -46.026  57.568 -58.826  1.00  0.00     0.007 A 
HETATM   26  C   UNL     1     -45.854  56.495 -59.708  1.00  0.00    -0.059 A 
HETATM   27  C   UNL     1     -44.665  55.759 -59.659  1.00  0.00     0.007 A 
HETATM   28  C   UNL     1     -43.648  56.115 -58.775  1.00  0.00     0.010 A 
BRANCH  26  29
HETATM   29  C   UNL     1     -46.913  56.157 -60.728  1.00  0.00     0.034 C 
HETATM   30  C   UNL     1     -47.614  57.409 -61.238  1.00  0.00     0.010 C 
ENDBRANCH  26  29
ENDBRANCH   1  23
BRANCH   5  31
HETATM   31  C   UNL     1     -41.094  61.775 -59.402  1.00  0.00     0.085 C 
BRANCH  31  32
HETATM   32  C   UNL     1     -39.856  62.497 -58.872  1.00  0.00     0.034 C 
BRANCH  32  33
HETATM   33  C   UNL     1     -40.106  63.970 -58.570  1.00  0.00     0.164 C 
BRANCH  33  34
HETATM   34  O   UNL     1     -41.122  64.090 -57.580  1.00  0.00    -0.401 OA
HETATM   35  H   UNL     1     -41.887  63.569 -57.877  1.00  0.00     0.209 HD
ENDBRANCH  33  34
ENDBRANCH  32  33
ENDBRANCH  31  32
ENDBRANCH   5  31
TORSDOF 8
ENDMDL
MODEL 3
REMARK VINA RESULT:      -7.6      3.543      7.650
REMARK  8 active torsions:
REMARK  status: ('A' for Active; 'I' for Inactive)
REMARK    1  A    between atoms: C_2  and  C_3 
REMARK    2  A    between atoms: C_6  and  C_7 
REMARK    3  A    between atoms: C_11  and  C_12 
REMARK    4  A    between atoms: C_12  and  C_13 
REMARK    5  A    between atoms: C_13  and  C_14 
REMARK    6  A    between atoms: C_14  and  O_15 
REMARK    7  A    between atoms: C_20  and  C_21 
REMARK       I    between atoms: C_21  and  N_22 
REMARK    8  A    between atoms: N_22  and  C_23 
ROOT
HETATM    1  C   UNL     1     -43.188  57.467 -55.143  1.00  0.00     0.202 C 
HETATM    2  N   UNL     1     -42.823  58.465 -54.137  1.00  0.00    -0.083 N 
HETATM    3  C   UNL     1     -42.081  59.579 -54.409  1.00  0.00     0.726 A 
HETATM    4  N   UNL     1     -41.940  60.283 -53.314  1.00  0.00    -0.046 NA
HETATM    5  C   UNL     1     -42.669  59.568 -52.391  1.00  0.00     0.166 A 
HETATM    6  N   UNL     1     -43.250  58.450 -52.857  1.00  0.00    -0.140 NA
HETATM    7  N   UNL     1     -41.682  59.809 -55.674  1.00  0.00    -0.192 N 
HETATM    8  C   UNL     1     -42.191  59.101 -56.763  1.00  0.00     0.037 C 
HETATM    9  C   UNL     1     -41.841  59.665 -58.119  1.00  0.00     0.070 C 
HETATM   10  C   UNL     1     -42.941  57.984 -56.563  1.00  0.00     0.062 C 
HETATM   11  H   UNL     1     -41.244  60.705 -55.875  1.00  0.00     0.184 HD
ENDROOT
BRANCH  10  12
HETATM   12  C   UNL     1     -43.664  57.339 -57.708  1.00  0.00     0.256 C 
HETATM   13  N   UNL     1     -44.821  57.971 -58.109  1.00  0.00    -0.323 N 
HETATM   14  H   UNL     1     -45.118  58.800 -57.616  1.00  0.00     0.169 HD
HETATM   15  O   UNL     1     -43.179  56.346 -58.243  1.00  0.00    -0.267 OA
BRANCH  13  16
HETATM   16  C   UNL     1     -45.696  57.588 -59.149  1.00  0.00     0.035 A 
HETATM   17  C   UNL     1     -45.838  56.279 -59.611  1.00  0.00     0.031 A 
HETATM   18  C   UNL     1     -46.749  55.985 -60.632  1.00  0.00     0.026 A 
HETATM   19  C   UNL     1     -47.508  57.001 -61.204  1.00  0.00     0.034 A 
HETATM   20 CL   UNL     1     -48.622  56.638 -62.464  1.00  0.00    -0.084 Cl
HETATM   21  C   UNL     1     -47.371  58.312 -60.759  1.00  0.00     0.026 A 
HETATM   22  C   UNL     1     -46.475  58.602 -59.726  1.00  0.00     0.031 A 
ENDBRANCH  13  16
ENDBRANCH  10  12
BRANCH   1  23
HETATM   23  C   UNL     1     -42.440  56.164 -54.855  1.00  0.00    -0.028 A 
HETATM   24  C   UNL     1     -43.149  54.954 -54.763  1.00  0.00     0.010 A 
HETATM   25  C   UNL     1     -42.467  53.738 -54.666  1.00  0.00     0.007 A 
HETATM   26  C   UNL     1     -41.069  53.707 -54.641  1.00  0.00    -0.059 A 
HETATM   27  C   UNL     1     -40.361  54.913 -54.668  1.00  0.00     0.007 A 
HETATM   28  C   UNL     1     -41.038  56.129 -54.765  1.00  0.00     0.010 A 
BRANCH  26  29
HETATM   29  C   UNL     1     -40.326  52.394 -54.625  1.00  0.00     0.034 C 
HETATM   30  C   UNL     1     -39.947  51.986 -53.208  1.00  0.00     0.010 C 
ENDBRANCH  26  29
ENDBRANCH   1  23
BRANCH   5  31
HETATM   31  C   UNL     1     -42.847  60.036 -50.994  1.00  0.00     0.085 C 
BRANCH  31  32
HETATM   32  C   UNL     1     -41.526  60.366 -50.300  1.00  0.00     0.034 C 
BRANCH  32  33
HETATM   33  C   UNL     1     -40.517  59.225 -50.361  1.00  0.00     0.164 C 
BRANCH  33  34
HETATM   34  O   UNL     1     -39.503  59.533 -51.311  1.00  0.00    -0.401 OA
HETATM   35  H   UNL     1     -38.754  59.923 -50.828  1.00  0.00     0.209 HD
ENDBRANCH  33  34
ENDBRANCH  32  33
ENDBRANCH  31  32
ENDBRANCH   5  31
TORSDOF 8
ENDMDL
MODEL 4
REMARK VINA RESULT:      -7.5      3.589      6.458
REMARK  8 active torsions:
REMARK  status: ('A' for Active; 'I' for Inactive)
REMARK    1  A    between atoms: C_2  and  C_3 
REMARK    2  A    between atoms: C_6  and  C_7 
REMARK    3  A    between atoms: C_11  and  C_12 
REMARK    4  A    between atoms: C_12  and  C_13 
REMARK    5  A    between atoms: C_13  and  C_14 
REMARK    6  A    between atoms: C_14  and  O_15 
REMARK    7  A    between atoms: C_20  and  C_21 
REMARK       I    between atoms: C_21  and  N_22 
REMARK    8  A    between atoms: N_22  and  C_23 
ROOT
HETATM    1  C   UNL     1     -43.071  57.433 -53.249  1.00  0.00     0.202 C 
HETATM    2  N   UNL     1     -43.714  58.550 -53.941  1.00  0.00    -0.083 N 
HETATM    3  C   UNL     1     -43.688  58.718 -55.296  1.00  0.00     0.726 A 
HETATM    4  N   UNL     1     -44.365  59.793 -55.612  1.00  0.00    -0.046 NA
HETATM    5  C   UNL     1     -44.837  60.230 -54.395  1.00  0.00     0.166 A 
HETATM    6  N   UNL     1     -44.480  59.483 -53.337  1.00  0.00    -0.140 NA
HETATM    7  N   UNL     1     -43.069  57.798 -56.060  1.00  0.00    -0.192 N 
HETATM    8  C   UNL     1     -42.667  56.558 -55.564  1.00  0.00     0.037 C 
HETATM    9  C   UNL     1     -42.240  55.553 -56.608  1.00  0.00     0.070 C 
HETATM   10  C   UNL     1     -42.672  56.321 -54.225  1.00  0.00     0.062 C 
HETATM   11  H   UNL     1     -43.173  57.875 -57.069  1.00  0.00     0.184 HD
ENDROOT
BRANCH  10  12
HETATM   12  C   UNL     1     -42.445  54.936 -53.695  1.00  0.00     0.256 C 
HETATM   13  N   UNL     1     -41.139  54.626 -53.390  1.00  0.00    -0.323 N 
HETATM   14  H   UNL     1     -40.424  55.321 -53.547  1.00  0.00     0.169 HD
HETATM   15  O   UNL     1     -43.408  54.195 -53.519  1.00  0.00    -0.267 OA
BRANCH  13  16
HETATM   16  C   UNL     1     -40.639  53.408 -52.881  1.00  0.00     0.035 A 
HETATM   17  C   UNL     1     -40.169  52.360 -53.675  1.00  0.00     0.031 A 
HETATM   18  C   UNL     1     -39.667  51.195 -53.085  1.00  0.00     0.026 A 
HETATM   19  C   UNL     1     -39.649  51.067 -51.699  1.00  0.00     0.034 A 
HETATM   20 CL   UNL     1     -39.037  49.631 -50.976  1.00  0.00    -0.084 Cl
HETATM   21  C   UNL     1     -40.121  52.099 -50.895  1.00  0.00     0.026 A 
HETATM   22  C   UNL     1     -40.604  53.271 -51.485  1.00  0.00     0.031 A 
ENDBRANCH  13  16
ENDBRANCH  10  12
BRANCH   1  23
HETATM   23  C   UNL     1     -41.883  57.957 -52.440  1.00  0.00    -0.028 A 
HETATM   24  C   UNL     1     -40.729  58.410 -53.102  1.00  0.00     0.010 A 
HETATM   25  C   UNL     1     -39.705  59.042 -52.392  1.00  0.00     0.007 A 
HETATM   26  C   UNL     1     -39.804  59.216 -51.007  1.00  0.00    -0.059 A 
HETATM   27  C   UNL     1     -40.922  58.710 -50.336  1.00  0.00     0.007 A 
HETATM   28  C   UNL     1     -41.945  58.079 -51.041  1.00  0.00     0.010 A 
BRANCH  26  29
HETATM   29  C   UNL     1     -38.744  59.975 -50.247  1.00  0.00     0.034 C 
HETATM   30  C   UNL     1     -37.414  59.234 -50.259  1.00  0.00     0.010 C 
ENDBRANCH  26  29
ENDBRANCH   1  23
BRANCH   5  31
HETATM   31  C   UNL     1     -45.729  61.410 -54.273  1.00  0.00     0.085 C 
BRANCH  31  32
HETATM   32  C   UNL     1     -45.939  61.854 -52.826  1.00  0.00     0.034 C 
BRANCH  32  33
HETATM   33  C   UNL     1     -47.065  61.101 -52.127  1.00  0.00     0.164 C 
BRANCH  33  34
HETATM   34  O   UNL     1     -46.536  60.349 -51.040  1.00  0.00    -0.401 OA
HETATM   35  H   UNL     1     -47.173  59.646 -50.828  1.00  0.00     0.209 HD
ENDBRANCH  33  34
ENDBRANCH  32  33
ENDBRANCH  31  32
ENDBRANCH   5  31
TORSDOF 8
ENDMDL
MODEL 5
REMARK VINA RESULT:      -7.1      3.550      5.805
REMARK  8 active torsions:
REMARK  status: ('A' for Active; 'I' for Inactive)
REMARK    1  A    between atoms: C_2  and  C_3 
REMARK    2  A    between atoms: C_6  and  C_7 
REMARK    3  A    between atoms: C_11  and  C_12 
REMARK    4  A    between atoms: C_12  and  C_13 
REMARK    5  A    between atoms: C_13  and  C_14 
REMARK    6  A    between atoms: C_14  and  O_15 
REMARK    7  A    between atoms: C_20  and  C_21 
REMARK       I    between atoms: C_21  and  N_22 
REMARK    8  A    between atoms: N_22  and  C_23 
ROOT
HETATM    1  C   UNL     1     -42.675  58.101 -52.356  1.00  0.00     0.202 C 
HETATM    2  N   UNL     1     -43.542  59.110 -51.749  1.00  0.00    -0.083 N 
HETATM    3  C   UNL     1     -44.609  58.812 -50.949  1.00  0.00     0.726 A 
HETATM    4  N   UNL     1     -45.171  59.923 -50.546  1.00  0.00    -0.046 NA
HETATM    5  C   UNL     1     -44.367  60.895 -51.097  1.00  0.00     0.166 A 
HETATM    6  N   UNL     1     -43.336  60.442 -51.829  1.00  0.00    -0.140 NA
HETATM    7  N   UNL     1     -44.875  57.524 -50.664  1.00  0.00    -0.192 N 
HETATM    8  C   UNL     1     -43.977  56.492 -50.939  1.00  0.00     0.037 C 
HETATM    9  C   UNL     1     -44.314  55.159 -50.314  1.00  0.00     0.070 C 
HETATM   10  C   UNL     1     -42.892  56.721 -51.725  1.00  0.00     0.062 C 
HETATM   11  H   UNL     1     -45.591  57.333 -49.967  1.00  0.00     0.184 HD
ENDROOT
BRANCH  10  12
HETATM   12  C   UNL     1     -41.814  55.685 -51.856  1.00  0.00     0.256 C 
HETATM   13  N   UNL     1     -42.143  54.582 -52.612  1.00  0.00    -0.323 N 
HETATM   14  H   UNL     1     -43.067  54.525 -53.014  1.00  0.00     0.169 HD
HETATM   15  O   UNL     1     -40.718  55.891 -51.344  1.00  0.00    -0.267 OA
BRANCH  13  16
HETATM   16  C   UNL     1     -41.333  53.462 -52.900  1.00  0.00     0.035 A 
HETATM   17  C   UNL     1     -40.459  52.871 -51.986  1.00  0.00     0.031 A 
HETATM   18  C   UNL     1     -39.710  51.746 -52.349  1.00  0.00     0.026 A 
HETATM   19  C   UNL     1     -39.821  51.219 -53.632  1.00  0.00     0.034 A 
HETATM   20 CL   UNL     1     -38.895  49.840 -54.078  1.00  0.00    -0.084 Cl
HETATM   21  C   UNL     1     -40.682  51.802 -54.557  1.00  0.00     0.026 A 
HETATM   22  C   UNL     1     -41.444  52.914 -54.187  1.00  0.00     0.031 A 
ENDBRANCH  13  16
ENDBRANCH  10  12
BRANCH   1  23
HETATM   23  C   UNL     1     -42.893  58.093 -53.870  1.00  0.00    -0.028 A 
HETATM   24  C   UNL     1     -42.016  58.802 -54.709  1.00  0.00     0.010 A 
HETATM   25  C   UNL     1     -42.102  58.671 -56.097  1.00  0.00     0.007 A 
HETATM   26  C   UNL     1     -43.074  57.849 -56.675  1.00  0.00    -0.059 A 
HETATM   27  C   UNL     1     -43.990  57.191 -55.846  1.00  0.00     0.007 A 
HETATM   28  C   UNL     1     -43.908  57.319 -54.460  1.00  0.00     0.010 A 
BRANCH  26  29
HETATM   29  C   UNL     1     -43.117  57.635 -58.168  1.00  0.00     0.034 C 
HETATM   30  C   UNL     1     -43.160  56.154 -58.517  1.00  0.00     0.010 C 
ENDBRANCH  26  29
ENDBRANCH   1  23
BRANCH   5  31
HETATM   31  C   UNL     1     -44.591  62.340 -50.846  1.00  0.00     0.085 C 
BRANCH  31  32
HETATM   32  C   UNL     1     -44.572  62.700 -49.360  1.00  0.00     0.034 C 
BRANCH  32  33
HETATM   33  C   UNL     1     -45.961  62.962 -48.791  1.00  0.00     0.164 C 
BRANCH  33  34
HETATM   34  O   UNL     1     -46.592  61.725 -48.478  1.00  0.00    -0.401 OA
HETATM   35  H   UNL     1     -47.515  61.780 -48.777  1.00  0.00     0.209 HD
ENDBRANCH  33  34
ENDBRANCH  32  33
ENDBRANCH  31  32
ENDBRANCH   5  31
TORSDOF 8
ENDMDL
MODEL 6
REMARK VINA RESULT:      -7.1      4.536      8.018
REMARK  8 active torsions:
REMARK  status: ('A' for Active; 'I' for Inactive)
REMARK    1  A    between atoms: C_2  and  C_3 
REMARK    2  A    between atoms: C_6  and  C_7 
REMARK    3  A    between atoms: C_11  and  C_12 
REMARK    4  A    between atoms: C_12  and  C_13 
REMARK    5  A    between atoms: C_13  and  C_14 
REMARK    6  A    between atoms: C_14  and  O_15 
REMARK    7  A    between atoms: C_20  and  C_21 
REMARK       I    between atoms: C_21  and  N_22 
REMARK    8  A    between atoms: N_22  and  C_23 
ROOT
HETATM    1  C   UNL     1     -43.295  56.030 -53.295  1.00  0.00     0.202 C 
HETATM    2  N   UNL     1     -42.313  54.950 -53.389  1.00  0.00    -0.083 N 
HETATM    3  C   UNL     1     -41.120  54.950 -52.724  1.00  0.00     0.726 A 
HETATM    4  N   UNL     1     -40.474  53.845 -52.994  1.00  0.00    -0.046 NA
HETATM    5  C   UNL     1     -41.352  53.164 -53.807  1.00  0.00     0.166 A 
HETATM    6  N   UNL     1     -42.510  53.796 -54.061  1.00  0.00    -0.140 NA
HETATM    7  N   UNL     1     -40.826  55.977 -51.905  1.00  0.00    -0.192 N 
HETATM    8  C   UNL     1     -41.776  56.918 -51.508  1.00  0.00     0.037 C 
HETATM    9  C   UNL     1     -41.348  57.833 -50.385  1.00  0.00     0.070 C 
HETATM   10  C   UNL     1     -42.986  56.971 -52.126  1.00  0.00     0.062 C 
HETATM   11  H   UNL     1     -39.994  55.894 -51.324  1.00  0.00     0.184 HD
ENDROOT
BRANCH  10  12
HETATM   12  C   UNL     1     -44.085  57.830 -51.574  1.00  0.00     0.256 C 
HETATM   13  N   UNL     1     -44.094  59.135 -52.014  1.00  0.00    -0.323 N 
HETATM   14  H   UNL     1     -43.373  59.438 -52.654  1.00  0.00     0.169 HD
HETATM   15  O   UNL     1     -44.921  57.331 -50.826  1.00  0.00    -0.267 OA
BRANCH  13  16
HETATM   16  C   UNL     1     -45.002  60.157 -51.663  1.00  0.00     0.035 A 
HETATM   17  C   UNL     1     -44.917  60.913 -50.493  1.00  0.00     0.031 A 
HETATM   18  C   UNL     1     -45.849  61.926 -50.236  1.00  0.00     0.026 A 
HETATM   19  C   UNL     1     -46.877  62.174 -51.140  1.00  0.00     0.034 A 
HETATM   20 CL   UNL     1     -48.024  63.415 -50.819  1.00  0.00    -0.084 Cl
HETATM   21  C   UNL     1     -46.979  61.423 -52.307  1.00  0.00     0.026 A 
HETATM   22  C   UNL     1     -46.037  60.425 -52.572  1.00  0.00     0.031 A 
ENDBRANCH  13  16
ENDBRANCH  10  12
BRANCH   1  23
HETATM   23  C   UNL     1     -43.367  56.765 -54.635  1.00  0.00    -0.028 A 
HETATM   24  C   UNL     1     -42.245  56.795 -55.479  1.00  0.00     0.010 A 
HETATM   25  C   UNL     1     -42.343  57.317 -56.772  1.00  0.00     0.007 A 
HETATM   26  C   UNL     1     -43.556  57.836 -57.238  1.00  0.00    -0.059 A 
HETATM   27  C   UNL     1     -44.659  57.866 -56.378  1.00  0.00     0.007 A 
HETATM   28  C   UNL     1     -44.564  57.347 -55.088  1.00  0.00     0.010 A 
BRANCH  26  29
HETATM   29  C   UNL     1     -43.691  58.321 -58.661  1.00  0.00     0.034 C 
HETATM   30  C   UNL     1     -42.584  57.765 -59.545  1.00  0.00     0.010 C 
ENDBRANCH  26  29
ENDBRANCH   1  23
BRANCH   5  31
HETATM   31  C   UNL     1     -41.061  51.800 -54.315  1.00  0.00     0.085 C 
BRANCH  31  32
HETATM   32  C   UNL     1     -39.739  51.237 -53.794  1.00  0.00     0.034 C 
BRANCH  32  33
HETATM   33  C   UNL     1     -39.533  49.769 -54.152  1.00  0.00     0.164 C 
BRANCH  33  34
HETATM   34  O   UNL     1     -39.376  49.004 -52.962  1.00  0.00    -0.401 OA
HETATM   35  H   UNL     1     -39.172  49.620 -52.238  1.00  0.00     0.209 HD
ENDBRANCH  33  34
ENDBRANCH  32  33
ENDBRANCH  31  32
ENDBRANCH   5  31
TORSDOF 8
ENDMDL
MODEL 7
REMARK VINA RESULT:      -7.0     17.243     20.452
REMARK  8 active torsions:
REMARK  status: ('A' for Active; 'I' for Inactive)
REMARK    1  A    between atoms: C_2  and  C_3 
REMARK    2  A    between atoms: C_6  and  C_7 
REMARK    3  A    between atoms: C_11  and  C_12 
REMARK    4  A    between atoms: C_12  and  C_13 
REMARK    5  A    between atoms: C_13  and  C_14 
REMARK    6  A    between atoms: C_14  and  O_15 
REMARK    7  A    between atoms: C_20  and  C_21 
REMARK       I    between atoms: C_21  and  N_22 
REMARK    8  A    between atoms: N_22  and  C_23 
ROOT
HETATM    1  C   UNL     1     -36.028  39.460 -53.016  1.00  0.00     0.202 C 
HETATM    2  N   UNL     1     -37.372  39.871 -52.613  1.00  0.00    -0.083 N 
HETATM    3  C   UNL     1     -37.996  40.992 -53.083  1.00  0.00     0.726 A 
HETATM    4  N   UNL     1     -39.190  41.078 -52.554  1.00  0.00    -0.046 NA
HETATM    5  C   UNL     1     -39.271  39.937 -51.788  1.00  0.00     0.166 A 
HETATM    6  N   UNL     1     -38.183  39.150 -51.809  1.00  0.00    -0.140 NA
HETATM    7  N   UNL     1     -37.368  41.757 -53.996  1.00  0.00    -0.192 N 
HETATM    8  C   UNL     1     -36.221  41.336 -54.668  1.00  0.00     0.037 C 
HETATM    9  C   UNL     1     -35.809  42.195 -55.841  1.00  0.00     0.070 C 
HETATM   10  C   UNL     1     -35.553  40.226 -54.255  1.00  0.00     0.062 C 
HETATM   11  H   UNL     1     -37.900  42.510 -54.425  1.00  0.00     0.184 HD
ENDROOT
BRANCH  10  12
HETATM   12  C   UNL     1     -34.449  39.647 -55.089  1.00  0.00     0.256 C 
HETATM   13  N   UNL     1     -33.175  39.843 -54.603  1.00  0.00    -0.323 N 
HETATM   14  H   UNL     1     -33.056  40.362 -53.746  1.00  0.00     0.169 HD
HETATM   15  O   UNL     1     -34.731  39.006 -56.098  1.00  0.00    -0.267 OA
BRANCH  13  16
HETATM   16  C   UNL     1     -31.959  39.413 -55.176  1.00  0.00     0.035 A 
HETATM   17  C   UNL     1     -31.377  39.991 -56.306  1.00  0.00     0.031 A 
HETATM   18  C   UNL     1     -30.154  39.516 -56.793  1.00  0.00     0.026 A 
HETATM   19  C   UNL     1     -29.518  38.451 -56.162  1.00  0.00     0.034 A 
HETATM   20 CL   UNL     1     -28.018  37.865 -56.767  1.00  0.00    -0.084 Cl
HETATM   21  C   UNL     1     -30.090  37.859 -55.041  1.00  0.00     0.026 A 
HETATM   22  C   UNL     1     -31.302  38.347 -54.543  1.00  0.00     0.031 A 
ENDBRANCH  13  16
ENDBRANCH  10  12
BRANCH   1  23
HETATM   23  C   UNL     1     -35.075  39.617 -51.829  1.00  0.00    -0.028 A 
HETATM   24  C   UNL     1     -34.651  38.484 -51.115  1.00  0.00     0.010 A 
HETATM   25  C   UNL     1     -33.657  38.591 -50.139  1.00  0.00     0.007 A 
HETATM   26  C   UNL     1     -33.082  39.832 -49.843  1.00  0.00    -0.059 A 
HETATM   27  C   UNL     1     -33.546  40.972 -50.508  1.00  0.00     0.007 A 
HETATM   28  C   UNL     1     -34.537  40.869 -51.482  1.00  0.00     0.010 A 
BRANCH  26  29
HETATM   29  C   UNL     1     -31.948  39.941 -48.854  1.00  0.00     0.034 C 
HETATM   30  C   UNL     1     -31.945  38.770 -47.881  1.00  0.00     0.010 C 
ENDBRANCH  26  29
ENDBRANCH   1  23
BRANCH   5  31
HETATM   31  C   UNL     1     -40.502  39.575 -51.040  1.00  0.00     0.085 C 
BRANCH  31  32
HETATM   32  C   UNL     1     -41.742  39.496 -51.930  1.00  0.00     0.034 C 
BRANCH  32  33
HETATM   33  C   UNL     1     -42.719  38.409 -51.499  1.00  0.00     0.164 C 
BRANCH  33  34
HETATM   34  O   UNL     1     -43.625  38.935 -50.535  1.00  0.00    -0.401 OA
HETATM   35  H   UNL     1     -43.725  39.886 -50.711  1.00  0.00     0.209 HD
ENDBRANCH  33  34
ENDBRANCH  32  33
ENDBRANCH  31  32
ENDBRANCH   5  31
TORSDOF 8
ENDMDL
MODEL 8
REMARK VINA RESULT:      -6.7      4.647      8.666
REMARK  8 active torsions:
REMARK  status: ('A' for Active; 'I' for Inactive)
REMARK    1  A    between atoms: C_2  and  C_3 
REMARK    2  A    between atoms: C_6  and  C_7 
REMARK    3  A    between atoms: C_11  and  C_12 
REMARK    4  A    between atoms: C_12  and  C_13 
REMARK    5  A    between atoms: C_13  and  C_14 
REMARK    6  A    between atoms: C_14  and  O_15 
REMARK    7  A    between atoms: C_20  and  C_21 
REMARK       I    between atoms: C_21  and  N_22 
REMARK    8  A    between atoms: N_22  and  C_23 
ROOT
HETATM    1  C   UNL     1     -44.626  59.215 -51.623  1.00  0.00     0.202 C 
HETATM    2  N   UNL     1     -44.776  60.098 -50.467  1.00  0.00    -0.083 N 
HETATM    3  C   UNL     1     -44.216  61.342 -50.385  1.00  0.00     0.726 A 
HETATM    4  N   UNL     1     -44.545  61.890 -49.243  1.00  0.00    -0.046 NA
HETATM    5  C   UNL     1     -45.364  60.943 -48.670  1.00  0.00     0.166 A 
HETATM    6  N   UNL     1     -45.554  59.830 -49.396  1.00  0.00    -0.140 NA
HETATM    7  N   UNL     1     -43.512  61.813 -51.430  1.00  0.00    -0.192 N 
HETATM    8  C   UNL     1     -43.527  61.204 -52.684  1.00  0.00     0.037 C 
HETATM    9  C   UNL     1     -42.905  62.008 -53.801  1.00  0.00     0.070 C 
HETATM   10  C   UNL     1     -44.072  59.967 -52.837  1.00  0.00     0.062 C 
HETATM   11  H   UNL     1     -43.215  62.786 -51.398  1.00  0.00     0.184 HD
ENDROOT
BRANCH  10  12
HETATM   12  C   UNL     1     -44.285  59.393 -54.207  1.00  0.00     0.256 C 
HETATM   13  N   UNL     1     -43.213  58.705 -54.733  1.00  0.00    -0.323 N 
HETATM   14  H   UNL     1     -42.364  58.639 -54.191  1.00  0.00     0.169 HD
HETATM   15  O   UNL     1     -45.380  59.516 -54.747  1.00  0.00    -0.267 OA
BRANCH  13  16
HETATM   16  C   UNL     1     -43.131  58.068 -55.990  1.00  0.00     0.035 A 
HETATM   17  C   UNL     1     -43.030  58.744 -57.206  1.00  0.00     0.031 A 
HETATM   18  C   UNL     1     -42.929  58.031 -58.406  1.00  0.00     0.026 A 
HETATM   19  C   UNL     1     -42.945  56.640 -58.394  1.00  0.00     0.034 A 
HETATM   20 CL   UNL     1     -42.826  55.765 -59.870  1.00  0.00    -0.084 Cl
HETATM   21  C   UNL     1     -43.053  55.952 -57.189  1.00  0.00     0.026 A 
HETATM   22  C   UNL     1     -43.135  56.665 -55.990  1.00  0.00     0.031 A 
ENDBRANCH  13  16
ENDBRANCH  10  12
BRANCH   1  23
HETATM   23  C   UNL     1     -43.761  58.015 -51.233  1.00  0.00    -0.028 A 
HETATM   24  C   UNL     1     -44.361  56.768 -50.985  1.00  0.00     0.010 A 
HETATM   25  C   UNL     1     -43.576  55.629 -50.791  1.00  0.00     0.007 A 
HETATM   26  C   UNL     1     -42.180  55.715 -50.820  1.00  0.00    -0.059 A 
HETATM   27  C   UNL     1     -41.579  56.965 -51.003  1.00  0.00     0.007 A 
HETATM   28  C   UNL     1     -42.359  58.104 -51.197  1.00  0.00     0.010 A 
BRANCH  26  29
HETATM   29  C   UNL     1     -41.328  54.475 -50.698  1.00  0.00     0.034 C 
HETATM   30  C   UNL     1     -40.843  53.998 -52.060  1.00  0.00     0.010 C 
ENDBRANCH  26  29
ENDBRANCH   1  23
BRANCH   5  31
HETATM   31  C   UNL     1     -46.036  61.168 -47.365  1.00  0.00     0.085 C 
BRANCH  31  32
HETATM   32  C   UNL     1     -45.178  61.957 -46.378  1.00  0.00     0.034 C 
BRANCH  32  33
HETATM   33  C   UNL     1     -44.922  61.207 -45.076  1.00  0.00     0.164 C 
BRANCH  33  34
HETATM   34  O   UNL     1     -43.725  60.444 -45.190  1.00  0.00    -0.401 OA
HETATM   35  H   UNL     1     -43.413  60.246 -44.290  1.00  0.00     0.209 HD
ENDBRANCH  33  34
ENDBRANCH  32  33
ENDBRANCH  31  32
ENDBRANCH   5  31
TORSDOF 8
ENDMDL
MODEL 9
REMARK VINA RESULT:      -6.6      3.604      7.416
REMARK  8 active torsions:
REMARK  status: ('A' for Active; 'I' for Inactive)
REMARK    1  A    between atoms: C_2  and  C_3 
REMARK    2  A    between atoms: C_6  and  C_7 
REMARK    3  A    between atoms: C_11  and  C_12 
REMARK    4  A    between atoms: C_12  and  C_13 
REMARK    5  A    between atoms: C_13  and  C_14 
REMARK    6  A    between atoms: C_14  and  O_15 
REMARK    7  A    between atoms: C_20  and  C_21 
REMARK       I    between atoms: C_21  and  N_22 
REMARK    8  A    between atoms: N_22  and  C_23 
ROOT
HETATM    1  C   UNL     1     -43.764  58.627 -53.550  1.00  0.00     0.202 C 
HETATM    2  N   UNL     1     -43.492  59.640 -52.530  1.00  0.00    -0.083 N 
HETATM    3  C   UNL     1     -42.844  60.815 -52.783  1.00  0.00     0.726 A 
HETATM    4  N   UNL     1     -42.771  61.515 -51.679  1.00  0.00    -0.046 NA
HETATM    5  C   UNL     1     -43.445  60.731 -50.771  1.00  0.00     0.166 A 
HETATM    6  N   UNL     1     -43.927  59.574 -51.254  1.00  0.00    -0.140 NA
HETATM    7  N   UNL     1     -42.455  61.092 -54.041  1.00  0.00    -0.192 N 
HETATM    8  C   UNL     1     -42.894  60.358 -55.143  1.00  0.00     0.037 C 
HETATM    9  C   UNL     1     -42.580  60.965 -56.490  1.00  0.00     0.070 C 
HETATM   10  C   UNL     1     -43.549  59.180 -54.963  1.00  0.00     0.062 C 
HETATM   11  H   UNL     1     -42.092  62.024 -54.228  1.00  0.00     0.184 HD
ENDROOT
BRANCH  10  12
HETATM   12  C   UNL     1     -44.206  58.490 -56.121  1.00  0.00     0.256 C 
HETATM   13  N   UNL     1     -43.370  57.732 -56.911  1.00  0.00    -0.323 N 
HETATM   14  H   UNL     1     -42.387  57.695 -56.684  1.00  0.00     0.169 HD
HETATM   15  O   UNL     1     -45.421  58.590 -56.270  1.00  0.00    -0.267 OA
BRANCH  13  16
HETATM   16  C   UNL     1     -43.713  56.983 -58.057  1.00  0.00     0.035 A 
HETATM   17  C   UNL     1     -43.535  55.603 -58.173  1.00  0.00     0.031 A 
HETATM   18  C   UNL     1     -43.927  54.935 -59.339  1.00  0.00     0.026 A 
HETATM   19  C   UNL     1     -44.480  55.647 -60.398  1.00  0.00     0.034 A 
HETATM   20 CL   UNL     1     -44.955  54.824 -61.833  1.00  0.00    -0.084 Cl
HETATM   21  C   UNL     1     -44.656  57.024 -60.301  1.00  0.00     0.026 A 
HETATM   22  C   UNL     1     -44.283  57.687 -59.128  1.00  0.00     0.031 A 
ENDBRANCH  13  16
ENDBRANCH  10  12
BRANCH   1  23
HETATM   23  C   UNL     1     -42.912  57.387 -53.271  1.00  0.00    -0.028 A 
HETATM   24  C   UNL     1     -43.490  56.264 -52.654  1.00  0.00     0.010 A 
HETATM   25  C   UNL     1     -42.773  55.070 -52.542  1.00  0.00     0.007 A 
HETATM   26  C   UNL     1     -41.463  54.979 -53.024  1.00  0.00    -0.059 A 
HETATM   27  C   UNL     1     -40.863  56.113 -53.581  1.00  0.00     0.007 A 
HETATM   28  C   UNL     1     -41.574  57.307 -53.695  1.00  0.00     0.010 A 
BRANCH  26  29
HETATM   29  C   UNL     1     -40.715  53.669 -52.985  1.00  0.00     0.034 C 
HETATM   30  C   UNL     1     -40.286  53.232 -54.379  1.00  0.00     0.010 C 
ENDBRANCH  26  29
ENDBRANCH   1  23
BRANCH   5  31
HETATM   31  C   UNL     1     -43.674  61.166 -49.370  1.00  0.00     0.085 C 
BRANCH  31  32
HETATM   32  C   UNL     1     -45.136  61.052 -48.939  1.00  0.00     0.034 C 
BRANCH  32  33
HETATM   33  C   UNL     1     -46.052  62.026 -49.670  1.00  0.00     0.164 C 
BRANCH  33  34
HETATM   34  O   UNL     1     -46.539  61.422 -50.863  1.00  0.00    -0.401 OA
HETATM   35  H   UNL     1     -47.505  61.534 -50.878  1.00  0.00     0.209 HD
ENDBRANCH  33  34
ENDBRANCH  32  33
ENDBRANCH  31  32
ENDBRANCH   5  31
TORSDOF 8
ENDMDL
MODEL 10
REMARK VINA RESULT:      -6.6      1.795      2.355
REMARK  8 active torsions:
REMARK  status: ('A' for Active; 'I' for Inactive)
REMARK    1  A    between atoms: C_2  and  C_3 
REMARK    2  A    between atoms: C_6  and  C_7 
REMARK    3  A    between atoms: C_11  and  C_12 
REMARK    4  A    between atoms: C_12  and  C_13 
REMARK    5  A    between atoms: C_13  and  C_14 
REMARK    6  A    between atoms: C_14  and  O_15 
REMARK    7  A    between atoms: C_20  and  C_21 
REMARK       I    between atoms: C_21  and  N_22 
REMARK    8  A    between atoms: N_22  and  C_23 
ROOT
HETATM    1  C   UNL     1     -41.846  59.299 -57.219  1.00  0.00     0.202 C 
HETATM    2  N   UNL     1     -41.910  60.700 -57.637  1.00  0.00    -0.083 N 
HETATM    3  C   UNL     1     -42.609  61.661 -56.964  1.00  0.00     0.726 A 
HETATM    4  N   UNL     1     -42.458  62.811 -57.570  1.00  0.00    -0.046 NA
HETATM    5  C   UNL     1     -41.600  62.505 -58.603  1.00  0.00     0.166 A 
HETATM    6  N   UNL     1     -41.218  61.220 -58.673  1.00  0.00    -0.140 NA
HETATM    7  N   UNL     1     -43.254  61.329 -55.830  1.00  0.00    -0.192 N 
HETATM    8  C   UNL     1     -43.047  60.116 -55.175  1.00  0.00     0.037 C 
HETATM    9  C   UNL     1     -43.640  60.021 -53.789  1.00  0.00     0.070 C 
HETATM   10  C   UNL     1     -42.356  59.117 -55.786  1.00  0.00     0.062 C 
HETATM   11  H   UNL     1     -43.658  62.083 -55.280  1.00  0.00     0.184 HD
ENDROOT
BRANCH  10  12
HETATM   12  C   UNL     1     -41.947  57.894 -55.019  1.00  0.00     0.256 C 
HETATM   13  N   UNL     1     -42.071  56.701 -55.697  1.00  0.00    -0.323 N 
HETATM   14  H   UNL     1     -42.433  56.712 -56.639  1.00  0.00     0.169 HD
HETATM   15  O   UNL     1     -41.491  58.020 -53.887  1.00  0.00    -0.267 OA
BRANCH  13  16
HETATM   16  C   UNL     1     -41.764  55.406 -55.226  1.00  0.00     0.035 A 
HETATM   17  C   UNL     1     -42.720  54.475 -54.817  1.00  0.00     0.031 A 
HETATM   18  C   UNL     1     -42.327  53.202 -54.386  1.00  0.00     0.026 A 
HETATM   19  C   UNL     1     -40.978  52.864 -54.347  1.00  0.00     0.034 A 
HETATM   20 CL   UNL     1     -40.498  51.301 -53.811  1.00  0.00    -0.084 Cl
HETATM   21  C   UNL     1     -40.014  53.785 -54.745  1.00  0.00     0.026 A 
HETATM   22  C   UNL     1     -40.408  55.049 -55.193  1.00  0.00     0.031 A 
ENDBRANCH  13  16
ENDBRANCH  10  12
BRANCH   1  23
HETATM   23  C   UNL     1     -42.607  58.436 -58.227  1.00  0.00    -0.028 A 
HETATM   24  C   UNL     1     -41.901  57.658 -59.159  1.00  0.00     0.010 A 
HETATM   25  C   UNL     1     -42.573  56.742 -59.973  1.00  0.00     0.007 A 
HETATM   26  C   UNL     1     -43.962  56.599 -59.886  1.00  0.00    -0.059 A 
HETATM   27  C   UNL     1     -44.676  57.418 -59.004  1.00  0.00     0.007 A 
HETATM   28  C   UNL     1     -44.009  58.332 -58.191  1.00  0.00     0.010 A 
BRANCH  26  29
HETATM   29  C   UNL     1     -44.682  55.552 -60.699  1.00  0.00     0.034 C 
HETATM   30  C   UNL     1     -44.867  54.265 -59.907  1.00  0.00     0.010 C 
ENDBRANCH  26  29
ENDBRANCH   1  23
BRANCH   5  31
HETATM   31  C   UNL     1     -41.090  63.540 -59.537  1.00  0.00     0.085 C 
BRANCH  31  32
HETATM   32  C   UNL     1     -39.943  63.041 -60.415  1.00  0.00     0.034 C 
BRANCH  32  33
HETATM   33  C   UNL     1     -40.378  62.718 -61.840  1.00  0.00     0.164 C 
BRANCH  33  34
HETATM   34  O   UNL     1     -41.057  61.467 -61.862  1.00  0.00    -0.401 OA
HETATM   35  H   UNL     1     -41.377  61.321 -62.768  1.00  0.00     0.209 HD
ENDBRANCH  33  34
ENDBRANCH  32  33
ENDBRANCH  31  32
ENDBRANCH   5  31
TORSDOF 8
ENDMDL
