MODEL 1
REMARK VINA RESULT:      -8.9      0.000      0.000
REMARK  8 active torsions:
REMARK  status: ('A' for Active; 'I' for Inactive)
REMARK    1  A    between atoms: C_2  and  O_3 
REMARK    2  A    between atoms: O_3  and  C_4 
REMARK    3  A    between atoms: C_5  and  O_6 
REMARK    4  A    between atoms: O_6  and  C_7 
REMARK    5  A    between atoms: C_7  and  C_8 
REMARK       I    between atoms: C_8  and  N_9 
REMARK    6  A    between atoms: C_13  and  C_14 
REMARK    7  A    between atoms: C_21  and  C_22 
REMARK       I    between atoms: C_22  and  N_23 
REMARK    8  A    between atoms: N_23  and  C_24 
ROOT
HETATM    1  C   UNL     1     -41.277  56.959 -54.091  1.00  0.00     0.160 C 
HETATM    2  N   UNL     1     -41.090  58.365 -53.788  1.00  0.00    -0.330 N 
HETATM    3  C   UNL     1     -41.593  58.997 -52.698  1.00  0.00     0.321 C 
HETATM    4  O   UNL     1     -41.527  60.216 -52.576  1.00  0.00    -0.247 OA
HETATM    5  N   UNL     1     -42.153  58.206 -51.738  1.00  0.00    -0.312 N 
HETATM    6  C   UNL     1     -42.246  56.835 -51.792  1.00  0.00     0.024 C 
HETATM    7  C   UNL     1     -42.840  56.166 -50.587  1.00  0.00     0.069 C 
HETATM    8  C   UNL     1     -41.806  56.216 -52.901  1.00  0.00     0.059 C 
HETATM    9  H   UNL     1     -40.733  58.978 -54.507  1.00  0.00     0.165 HD
HETATM   10  H   UNL     1     -42.501  58.708 -50.929  1.00  0.00     0.170 HD
ENDROOT
BRANCH   1  11
HETATM   11  C   UNL     1     -42.129  56.780 -55.338  1.00  0.00    -0.028 A 
HETATM   12  C   UNL     1     -42.113  55.582 -56.069  1.00  0.00     0.012 A 
HETATM   13  C   UNL     1     -42.857  55.459 -57.242  1.00  0.00     0.040 A 
HETATM   14  C   UNL     1     -43.602  56.544 -57.711  1.00  0.00     0.102 A 
HETATM   15  C   UNL     1     -43.647  57.749 -56.992  1.00  0.00     0.102 A 
HETATM   16  C   UNL     1     -42.907  57.856 -55.811  1.00  0.00     0.049 A 
BRANCH  14  17
HETATM   17  O   UNL     1     -44.355  56.451 -58.855  1.00  0.00    -0.339 OA
BRANCH  17  18
HETATM   18  C   UNL     1     -43.680  55.766 -59.913  1.00  0.00     0.278 C 
BRANCH  18  19
HETATM   19  C   UNL     1     -44.627  54.749 -60.540  1.00  0.00     0.239 C 
HETATM   20  N   UNL     1     -45.132  53.815 -59.679  1.00  0.00    -0.368 N 
HETATM   21  H   UNL     1     -44.698  53.700 -58.767  1.00  0.00     0.159 HD
HETATM   22  H   UNL     1     -45.702  53.072 -60.056  1.00  0.00     0.159 HD
HETATM   23  O   UNL     1     -44.975  54.782 -61.717  1.00  0.00    -0.271 OA
ENDBRANCH  18  19
ENDBRANCH  17  18
ENDBRANCH  14  17
BRANCH  15  24
HETATM   24  O   UNL     1     -44.406  58.747 -57.548  1.00  0.00    -0.349 OA
BRANCH  24  25
HETATM   25  C   UNL     1     -43.804  60.010 -57.826  1.00  0.00     0.171 C 
HETATM   26  C   UNL     1     -42.783  59.898 -58.945  1.00  0.00     0.034 C 
ENDBRANCH  24  25
ENDBRANCH  15  24
ENDBRANCH   1  11
BRANCH   8  27
HETATM   27  C   UNL     1     -41.890  54.741 -53.026  1.00  0.00     0.256 C 
HETATM   28  N   UNL     1     -40.649  54.149 -52.933  1.00  0.00    -0.323 N 
HETATM   29  H   UNL     1     -39.875  54.757 -52.702  1.00  0.00     0.169 HD
HETATM   30  O   UNL     1     -42.980  54.206 -53.168  1.00  0.00    -0.267 OA
BRANCH  28  31
HETATM   31  C   UNL     1     -40.341  52.774 -53.073  1.00  0.00     0.041 A 
HETATM   32  C   UNL     1     -39.973  52.037 -51.924  1.00  0.00    -0.035 A 
HETATM   33  C   UNL     1     -39.908  52.653 -50.553  1.00  0.00     0.050 C 
HETATM   34  C   UNL     1     -39.659  50.671 -52.053  1.00  0.00     0.009 A 
HETATM   35  C   UNL     1     -39.701  50.040 -53.293  1.00  0.00     0.001 A 
HETATM   36  C   UNL     1     -40.056  50.766 -54.422  1.00  0.00     0.002 A 
HETATM   37  C   UNL     1     -40.372  52.123 -54.312  1.00  0.00     0.030 A 
ENDBRANCH  28  31
ENDBRANCH   8  27
TORSDOF 8
ENDMDL
MODEL 2
REMARK VINA RESULT:      -8.4      1.908      2.917
REMARK  8 active torsions:
REMARK  status: ('A' for Active; 'I' for Inactive)
REMARK    1  A    between atoms: C_2  and  O_3 
REMARK    2  A    between atoms: O_3  and  C_4 
REMARK    3  A    between atoms: C_5  and  O_6 
REMARK    4  A    between atoms: O_6  and  C_7 
REMARK    5  A    between atoms: C_7  and  C_8 
REMARK       I    between atoms: C_8  and  N_9 
REMARK    6  A    between atoms: C_13  and  C_14 
REMARK    7  A    between atoms: C_21  and  C_22 
REMARK       I    between atoms: C_22  and  N_23 
REMARK    8  A    between atoms: N_23  and  C_24 
ROOT
HETATM    1  C   UNL     1     -41.163  57.172 -52.576  1.00  0.00     0.160 C 
HETATM    2  N   UNL     1     -40.804  58.440 -51.971  1.00  0.00    -0.330 N 
HETATM    3  C   UNL     1     -40.876  58.715 -50.644  1.00  0.00     0.321 C 
HETATM    4  O   UNL     1     -40.702  59.850 -50.214  1.00  0.00    -0.247 OA
HETATM    5  N   UNL     1     -41.129  57.661 -49.816  1.00  0.00    -0.312 N 
HETATM    6  C   UNL     1     -41.315  56.359 -50.219  1.00  0.00     0.024 C 
HETATM    7  C   UNL     1     -41.511  55.351 -49.125  1.00  0.00     0.069 C 
HETATM    8  C   UNL     1     -41.307  56.100 -51.538  1.00  0.00     0.059 C 
HETATM    9  H   UNL     1     -40.672  59.247 -52.564  1.00  0.00     0.165 HD
HETATM   10  H   UNL     1     -41.156  57.897 -48.831  1.00  0.00     0.170 HD
ENDROOT
BRANCH   1  11
HETATM   11  C   UNL     1     -42.392  57.320 -53.460  1.00  0.00    -0.028 A 
HETATM   12  C   UNL     1     -43.580  57.884 -52.972  1.00  0.00     0.012 A 
HETATM   13  C   UNL     1     -44.714  57.957 -53.781  1.00  0.00     0.040 A 
HETATM   14  C   UNL     1     -44.678  57.439 -55.078  1.00  0.00     0.102 A 
HETATM   15  C   UNL     1     -43.498  56.883 -55.597  1.00  0.00     0.102 A 
HETATM   16  C   UNL     1     -42.365  56.826 -54.781  1.00  0.00     0.049 A 
BRANCH  14  17
HETATM   17  O   UNL     1     -45.772  57.508 -55.904  1.00  0.00    -0.339 OA
BRANCH  17  18
HETATM   18  C   UNL     1     -45.895  58.772 -56.562  1.00  0.00     0.278 C 
BRANCH  18  19
HETATM   19  C   UNL     1     -45.924  58.553 -58.071  1.00  0.00     0.239 C 
HETATM   20  N   UNL     1     -46.284  57.296 -58.470  1.00  0.00    -0.368 N 
HETATM   21  H   UNL     1     -46.285  56.543 -57.788  1.00  0.00     0.159 HD
HETATM   22  H   UNL     1     -46.244  57.075 -59.454  1.00  0.00     0.159 HD
HETATM   23  O   UNL     1     -45.706  59.441 -58.889  1.00  0.00    -0.271 OA
ENDBRANCH  18  19
ENDBRANCH  17  18
ENDBRANCH  14  17
BRANCH  15  24
HETATM   24  O   UNL     1     -43.579  56.402 -56.879  1.00  0.00    -0.349 OA
BRANCH  24  25
HETATM   25  C   UNL     1     -42.672  56.887 -57.867  1.00  0.00     0.171 C 
HETATM   26  C   UNL     1     -42.871  56.174 -59.194  1.00  0.00     0.034 C 
ENDBRANCH  24  25
ENDBRANCH  15  24
ENDBRANCH   1  11
BRANCH   8  27
HETATM   27  C   UNL     1     -41.515  54.720 -52.037  1.00  0.00     0.256 C 
HETATM   28  N   UNL     1     -40.325  54.034 -52.154  1.00  0.00    -0.323 N 
HETATM   29  H   UNL     1     -39.498  54.502 -51.807  1.00  0.00     0.169 HD
HETATM   30  O   UNL     1     -42.647  54.321 -52.266  1.00  0.00    -0.267 OA
BRANCH  28  31
HETATM   31  C   UNL     1     -40.133  52.725 -52.658  1.00  0.00     0.041 A 
HETATM   32  C   UNL     1     -40.230  52.509 -54.051  1.00  0.00    -0.035 A 
HETATM   33  C   UNL     1     -40.519  53.620 -55.024  1.00  0.00     0.050 C 
HETATM   34  C   UNL     1     -40.048  51.211 -54.562  1.00  0.00     0.009 A 
HETATM   35  C   UNL     1     -39.777  50.139 -53.716  1.00  0.00     0.001 A 
HETATM   36  C   UNL     1     -39.687  50.351 -52.347  1.00  0.00     0.002 A 
HETATM   37  C   UNL     1     -39.865  51.634 -51.822  1.00  0.00     0.030 A 
ENDBRANCH  28  31
ENDBRANCH   8  27
TORSDOF 8
ENDMDL
MODEL 3
REMARK VINA RESULT:      -8.3      2.853      7.169
REMARK  8 active torsions:
REMARK  status: ('A' for Active; 'I' for Inactive)
REMARK    1  A    between atoms: C_2  and  O_3 
REMARK    2  A    between atoms: O_3  and  C_4 
REMARK    3  A    between atoms: C_5  and  O_6 
REMARK    4  A    between atoms: O_6  and  C_7 
REMARK    5  A    between atoms: C_7  and  C_8 
REMARK       I    between atoms: C_8  and  N_9 
REMARK    6  A    between atoms: C_13  and  C_14 
REMARK    7  A    between atoms: C_21  and  C_22 
REMARK       I    between atoms: C_22  and  N_23 
REMARK    8  A    between atoms: N_23  and  C_24 
ROOT
HETATM    1  C   UNL     1     -43.949  56.857 -53.681  1.00  0.00     0.160 C 
HETATM    2  N   UNL     1     -44.830  56.901 -52.529  1.00  0.00    -0.330 N 
HETATM    3  C   UNL     1     -44.839  57.886 -51.595  1.00  0.00     0.321 C 
HETATM    4  O   UNL     1     -45.502  57.789 -50.568  1.00  0.00    -0.247 OA
HETATM    5  N   UNL     1     -44.093  58.994 -51.870  1.00  0.00    -0.312 N 
HETATM    6  C   UNL     1     -43.341  59.184 -53.006  1.00  0.00     0.024 C 
HETATM    7  C   UNL     1     -42.655  60.514 -53.128  1.00  0.00     0.069 C 
HETATM    8  C   UNL     1     -43.282  58.182 -53.899  1.00  0.00     0.059 C 
HETATM    9  H   UNL     1     -45.346  56.071 -52.274  1.00  0.00     0.165 HD
HETATM   10  H   UNL     1     -44.137  59.718 -51.162  1.00  0.00     0.170 HD
ENDROOT
BRANCH   1  11
HETATM   11  C   UNL     1     -42.967  55.702 -53.570  1.00  0.00    -0.028 A 
HETATM   12  C   UNL     1     -42.935  54.675 -54.526  1.00  0.00     0.012 A 
HETATM   13  C   UNL     1     -42.068  53.594 -54.375  1.00  0.00     0.040 A 
HETATM   14  C   UNL     1     -41.244  53.515 -53.250  1.00  0.00     0.102 A 
HETATM   15  C   UNL     1     -41.244  54.534 -52.285  1.00  0.00     0.102 A 
HETATM   16  C   UNL     1     -42.110  55.619 -52.454  1.00  0.00     0.049 A 
BRANCH  14  17
HETATM   17  O   UNL     1     -40.369  52.471 -53.079  1.00  0.00    -0.339 OA
BRANCH  17  18
HETATM   18  C   UNL     1     -40.258  51.641 -54.238  1.00  0.00     0.278 C 
BRANCH  18  19
HETATM   19  C   UNL     1     -39.798  50.249 -53.819  1.00  0.00     0.239 C 
HETATM   20  N   UNL     1     -39.622  50.074 -52.474  1.00  0.00    -0.368 N 
HETATM   21  H   UNL     1     -39.577  50.891 -51.873  1.00  0.00     0.159 HD
HETATM   22  H   UNL     1     -39.244  49.196 -52.150  1.00  0.00     0.159 HD
HETATM   23  O   UNL     1     -39.649  49.318 -54.605  1.00  0.00    -0.271 OA
ENDBRANCH  18  19
ENDBRANCH  17  18
ENDBRANCH  14  17
BRANCH  15  24
HETATM   24  O   UNL     1     -40.400  54.349 -51.221  1.00  0.00    -0.349 OA
BRANCH  24  25
HETATM   25  C   UNL     1     -40.913  53.802 -50.008  1.00  0.00     0.171 C 
HETATM   26  C   UNL     1     -41.065  54.874 -48.942  1.00  0.00     0.034 C 
ENDBRANCH  24  25
ENDBRANCH  15  24
ENDBRANCH   1  11
BRANCH   8  27
HETATM   27  C   UNL     1     -42.479  58.321 -55.138  1.00  0.00     0.256 C 
HETATM   28  N   UNL     1     -43.270  58.283 -56.267  1.00  0.00    -0.323 N 
HETATM   29  H   UNL     1     -44.269  58.265 -56.117  1.00  0.00     0.169 HD
HETATM   30  O   UNL     1     -41.268  58.471 -55.063  1.00  0.00    -0.267 OA
BRANCH  28  31
HETATM   31  C   UNL     1     -42.843  58.320 -57.616  1.00  0.00     0.041 A 
HETATM   32  C   UNL     1     -42.757  57.108 -58.338  1.00  0.00    -0.035 A 
HETATM   33  C   UNL     1     -43.113  55.777 -57.731  1.00  0.00     0.050 C 
HETATM   34  C   UNL     1     -42.328  57.132 -59.678  1.00  0.00     0.009 A 
HETATM   35  C   UNL     1     -41.985  58.329 -60.299  1.00  0.00     0.001 A 
HETATM   36  C   UNL     1     -42.064  59.519 -59.588  1.00  0.00     0.002 A 
HETATM   37  C   UNL     1     -42.489  59.514 -58.256  1.00  0.00     0.030 A 
ENDBRANCH  28  31
ENDBRANCH   8  27
TORSDOF 8
ENDMDL
MODEL 4
REMARK VINA RESULT:      -8.3      1.709      2.357
REMARK  8 active torsions:
REMARK  status: ('A' for Active; 'I' for Inactive)
REMARK    1  A    between atoms: C_2  and  O_3 
REMARK    2  A    between atoms: O_3  and  C_4 
REMARK    3  A    between atoms: C_5  and  O_6 
REMARK    4  A    between atoms: O_6  and  C_7 
REMARK    5  A    between atoms: C_7  and  C_8 
REMARK       I    between atoms: C_8  and  N_9 
REMARK    6  A    between atoms: C_13  and  C_14 
REMARK    7  A    between atoms: C_21  and  C_22 
REMARK       I    between atoms: C_22  and  N_23 
REMARK    8  A    between atoms: N_23  and  C_24 
ROOT
HETATM    1  C   UNL     1     -40.929  56.897 -52.870  1.00  0.00     0.160 C 
HETATM    2  N   UNL     1     -40.612  58.189 -52.291  1.00  0.00    -0.330 N 
HETATM    3  C   UNL     1     -40.880  58.553 -51.012  1.00  0.00     0.321 C 
HETATM    4  O   UNL     1     -40.724  59.708 -50.628  1.00  0.00    -0.247 OA
HETATM    5  N   UNL     1     -41.308  57.566 -50.174  1.00  0.00    -0.312 N 
HETATM    6  C   UNL     1     -41.488  56.248 -50.524  1.00  0.00     0.024 C 
HETATM    7  C   UNL     1     -41.900  55.322 -49.417  1.00  0.00     0.069 C 
HETATM    8  C   UNL     1     -41.284  55.903 -51.806  1.00  0.00     0.059 C 
HETATM    9  H   UNL     1     -40.351  58.950 -52.903  1.00  0.00     0.165 HD
HETATM   10  H   UNL     1     -41.480  57.868 -49.222  1.00  0.00     0.170 HD
ENDROOT
BRANCH   1  11
HETATM   11  C   UNL     1     -41.994  57.030 -53.947  1.00  0.00    -0.028 A 
HETATM   12  C   UNL     1     -41.791  56.530 -55.242  1.00  0.00     0.012 A 
HETATM   13  C   UNL     1     -42.756  56.714 -56.231  1.00  0.00     0.040 A 
HETATM   14  C   UNL     1     -43.923  57.426 -55.942  1.00  0.00     0.102 A 
HETATM   15  C   UNL     1     -44.159  57.925 -54.651  1.00  0.00     0.102 A 
HETATM   16  C   UNL     1     -43.189  57.724 -53.664  1.00  0.00     0.049 A 
BRANCH  14  17
HETATM   17  O   UNL     1     -44.898  57.613 -56.889  1.00  0.00    -0.339 OA
BRANCH  17  18
HETATM   18  C   UNL     1     -44.429  57.398 -58.222  1.00  0.00     0.278 C 
BRANCH  18  19
HETATM   19  C   UNL     1     -45.609  57.044 -59.121  1.00  0.00     0.239 C 
HETATM   20  N   UNL     1     -45.663  55.739 -59.525  1.00  0.00    -0.368 N 
HETATM   21  H   UNL     1     -44.840  55.154 -59.413  1.00  0.00     0.159 HD
HETATM   22  H   UNL     1     -46.379  55.470 -60.183  1.00  0.00     0.159 HD
HETATM   23  O   UNL     1     -46.493  57.840 -59.424  1.00  0.00    -0.271 OA
ENDBRANCH  18  19
ENDBRANCH  17  18
ENDBRANCH  14  17
BRANCH  15  24
HETATM   24  O   UNL     1     -45.333  58.612 -54.481  1.00  0.00    -0.349 OA
BRANCH  24  25
HETATM   25  C   UNL     1     -45.293  59.967 -54.038  1.00  0.00     0.171 C 
HETATM   26  C   UNL     1     -44.723  60.880 -55.111  1.00  0.00     0.034 C 
ENDBRANCH  24  25
ENDBRANCH  15  24
ENDBRANCH   1  11
BRANCH   8  27
HETATM   27  C   UNL     1     -41.473  54.500 -52.249  1.00  0.00     0.256 C 
HETATM   28  N   UNL     1     -40.288  53.795 -52.231  1.00  0.00    -0.323 N 
HETATM   29  H   UNL     1     -39.485  54.270 -51.842  1.00  0.00     0.169 HD
HETATM   30  O   UNL     1     -42.589  54.104 -52.549  1.00  0.00    -0.267 OA
BRANCH  28  31
HETATM   31  C   UNL     1     -40.078  52.458 -52.650  1.00  0.00     0.041 A 
HETATM   32  C   UNL     1     -40.124  52.160 -54.030  1.00  0.00    -0.035 A 
HETATM   33  C   UNL     1     -40.378  53.211 -55.078  1.00  0.00     0.050 C 
HETATM   34  C   UNL     1     -39.923  50.834 -54.457  1.00  0.00     0.009 A 
HETATM   35  C   UNL     1     -39.683  49.816 -53.539  1.00  0.00     0.001 A 
HETATM   36  C   UNL     1     -39.643  50.108 -52.182  1.00  0.00     0.002 A 
HETATM   37  C   UNL     1     -39.840  51.419 -51.742  1.00  0.00     0.030 A 
ENDBRANCH  28  31
ENDBRANCH   8  27
TORSDOF 8
ENDMDL
MODEL 5
REMARK VINA RESULT:      -7.9      2.600      6.515
REMARK  8 active torsions:
REMARK  status: ('A' for Active; 'I' for Inactive)
REMARK    1  A    between atoms: C_2  and  O_3 
REMARK    2  A    between atoms: O_3  and  C_4 
REMARK    3  A    between atoms: C_5  and  O_6 
REMARK    4  A    between atoms: O_6  and  C_7 
REMARK    5  A    between atoms: C_7  and  C_8 
REMARK       I    between atoms: C_8  and  N_9 
REMARK    6  A    between atoms: C_13  and  C_14 
REMARK    7  A    between atoms: C_21  and  C_22 
REMARK       I    between atoms: C_22  and  N_23 
REMARK    8  A    between atoms: N_23  and  C_24 
ROOT
HETATM    1  C   UNL     1     -43.765  56.141 -54.691  1.00  0.00     0.160 C 
HETATM    2  N   UNL     1     -43.774  56.535 -56.088  1.00  0.00    -0.330 N 
HETATM    3  C   UNL     1     -42.800  56.237 -56.984  1.00  0.00     0.321 C 
HETATM    4  O   UNL     1     -42.794  56.726 -58.109  1.00  0.00    -0.247 OA
HETATM    5  N   UNL     1     -41.847  55.351 -56.577  1.00  0.00    -0.312 N 
HETATM    6  C   UNL     1     -41.797  54.747 -55.343  1.00  0.00     0.024 C 
HETATM    7  C   UNL     1     -40.693  53.751 -55.139  1.00  0.00     0.069 C 
HETATM    8  C   UNL     1     -42.725  55.092 -54.434  1.00  0.00     0.059 C 
HETATM    9  H   UNL     1     -44.434  57.235 -56.395  1.00  0.00     0.165 HD
HETATM   10  H   UNL     1     -41.146  55.135 -57.277  1.00  0.00     0.170 HD
ENDROOT
BRANCH   1  11
HETATM   11  C   UNL     1     -43.631  57.354 -53.785  1.00  0.00    -0.028 A 
HETATM   12  C   UNL     1     -44.748  57.926 -53.158  1.00  0.00     0.012 A 
HETATM   13  C   UNL     1     -44.612  59.074 -52.378  1.00  0.00     0.040 A 
HETATM   14  C   UNL     1     -43.360  59.678 -52.241  1.00  0.00     0.102 A 
HETATM   15  C   UNL     1     -42.223  59.119 -52.845  1.00  0.00     0.102 A 
HETATM   16  C   UNL     1     -42.370  57.962 -53.615  1.00  0.00     0.049 A 
BRANCH  14  17
HETATM   17  O   UNL     1     -43.190  60.800 -51.469  1.00  0.00    -0.339 OA
BRANCH  17  18
HETATM   18  C   UNL     1     -44.426  61.422 -51.110  1.00  0.00     0.278 C 
BRANCH  18  19
HETATM   19  C   UNL     1     -44.514  61.529 -49.591  1.00  0.00     0.239 C 
HETATM   20  N   UNL     1     -44.987  60.414 -48.955  1.00  0.00    -0.368 N 
HETATM   21  H   UNL     1     -45.454  59.696 -49.501  1.00  0.00     0.159 HD
HETATM   22  H   UNL     1     -45.138  60.459 -47.958  1.00  0.00     0.159 HD
HETATM   23  O   UNL     1     -44.136  62.509 -48.957  1.00  0.00    -0.271 OA
ENDBRANCH  18  19
ENDBRANCH  17  18
ENDBRANCH  14  17
BRANCH  15  24
HETATM   24  O   UNL     1     -41.048  59.798 -52.648  1.00  0.00    -0.349 OA
BRANCH  24  25
HETATM   25  C   UNL     1     -39.934  59.117 -52.072  1.00  0.00     0.171 C 
HETATM   26  C   UNL     1     -39.709  59.551 -50.633  1.00  0.00     0.034 C 
ENDBRANCH  24  25
ENDBRANCH  15  24
ENDBRANCH   1  11
BRANCH   8  27
HETATM   27  C   UNL     1     -42.719  54.486 -53.081  1.00  0.00     0.256 C 
HETATM   28  N   UNL     1     -41.573  54.805 -52.383  1.00  0.00    -0.323 N 
HETATM   29  H   UNL     1     -40.947  55.467 -52.823  1.00  0.00     0.169 HD
HETATM   30  O   UNL     1     -43.673  53.818 -52.710  1.00  0.00    -0.267 OA
BRANCH  28  31
HETATM   31  C   UNL     1     -41.197  54.352 -51.096  1.00  0.00     0.041 A 
HETATM   32  C   UNL     1     -41.315  55.236 -50.000  1.00  0.00    -0.035 A 
HETATM   33  C   UNL     1     -41.839  56.640 -50.144  1.00  0.00     0.050 C 
HETATM   34  C   UNL     1     -40.938  54.798 -48.716  1.00  0.00     0.009 A 
HETATM   35  C   UNL     1     -40.448  53.511 -48.515  1.00  0.00     0.001 A 
HETATM   36  C   UNL     1     -40.325  52.645 -49.593  1.00  0.00     0.002 A 
HETATM   37  C   UNL     1     -40.696  53.063 -50.873  1.00  0.00     0.030 A 
ENDBRANCH  28  31
ENDBRANCH   8  27
TORSDOF 8
ENDMDL
MODEL 6
REMARK VINA RESULT:      -7.8      2.098      2.957
REMARK  8 active torsions:
REMARK  status: ('A' for Active; 'I' for Inactive)
REMARK    1  A    between atoms: C_2  and  O_3 
REMARK    2  A    between atoms: O_3  and  C_4 
REMARK    3  A    between atoms: C_5  and  O_6 
REMARK    4  A    between atoms: O_6  and  C_7 
REMARK    5  A    between atoms: C_7  and  C_8 
REMARK       I    between atoms: C_8  and  N_9 
REMARK    6  A    between atoms: C_13  and  C_14 
REMARK    7  A    between atoms: C_21  and  C_22 
REMARK       I    between atoms: C_22  and  N_23 
REMARK    8  A    between atoms: N_23  and  C_24 
ROOT
HETATM    1  C   UNL     1     -43.267  58.976 -52.943  1.00  0.00     0.160 C 
HETATM    2  N   UNL     1     -44.376  59.800 -52.500  1.00  0.00    -0.330 N 
HETATM    3  C   UNL     1     -45.408  59.366 -51.733  1.00  0.00     0.321 C 
HETATM    4  O   UNL     1     -46.388  60.071 -51.518  1.00  0.00    -0.247 OA
HETATM    5  N   UNL     1     -45.286  58.118 -51.196  1.00  0.00    -0.312 N 
HETATM    6  C   UNL     1     -44.212  57.277 -51.374  1.00  0.00     0.024 C 
HETATM    7  C   UNL     1     -44.263  55.975 -50.630  1.00  0.00     0.069 C 
HETATM    8  C   UNL     1     -43.221  57.683 -52.186  1.00  0.00     0.059 C 
HETATM    9  H   UNL     1     -44.518  60.703 -52.930  1.00  0.00     0.165 HD
HETATM   10  H   UNL     1     -46.064  57.833 -50.613  1.00  0.00     0.170 HD
ENDROOT
BRANCH   1  11
HETATM   11  C   UNL     1     -43.299  58.787 -54.452  1.00  0.00    -0.028 A 
HETATM   12  C   UNL     1     -44.179  57.877 -55.057  1.00  0.00     0.012 A 
HETATM   13  C   UNL     1     -44.151  57.676 -56.436  1.00  0.00     0.040 A 
HETATM   14  C   UNL     1     -43.223  58.363 -57.221  1.00  0.00     0.102 A 
HETATM   15  C   UNL     1     -42.340  59.290 -56.645  1.00  0.00     0.102 A 
HETATM   16  C   UNL     1     -42.385  59.492 -55.262  1.00  0.00     0.049 A 
BRANCH  14  17
HETATM   17  O   UNL     1     -43.179  58.198 -58.584  1.00  0.00    -0.339 OA
BRANCH  17  18
HETATM   18  C   UNL     1     -44.186  57.307 -59.069  1.00  0.00     0.278 C 
BRANCH  18  19
HETATM   19  C   UNL     1     -43.540  55.980 -59.456  1.00  0.00     0.239 C 
HETATM   20  N   UNL     1     -44.284  54.867 -59.178  1.00  0.00    -0.368 N 
HETATM   21  H   UNL     1     -45.079  54.950 -58.550  1.00  0.00     0.159 HD
HETATM   22  H   UNL     1     -43.872  53.961 -59.341  1.00  0.00     0.159 HD
HETATM   23  O   UNL     1     -42.460  55.894 -60.032  1.00  0.00    -0.271 OA
ENDBRANCH  18  19
ENDBRANCH  17  18
ENDBRANCH  14  17
BRANCH  15  24
HETATM   24  O   UNL     1     -41.469  59.902 -57.509  1.00  0.00    -0.349 OA
BRANCH  24  25
HETATM   25  C   UNL     1     -41.786  61.195 -58.023  1.00  0.00     0.171 C 
HETATM   26  C   UNL     1     -40.528  61.954 -58.414  1.00  0.00     0.034 C 
ENDBRANCH  24  25
ENDBRANCH  15  24
ENDBRANCH   1  11
BRANCH   8  27
HETATM   27  C   UNL     1     -42.042  56.817 -52.429  1.00  0.00     0.256 C 
HETATM   28  N   UNL     1     -42.410  55.568 -52.884  1.00  0.00    -0.323 N 
HETATM   29  H   UNL     1     -43.392  55.431 -53.082  1.00  0.00     0.169 HD
HETATM   30  O   UNL     1     -40.917  57.256 -52.242  1.00  0.00    -0.267 OA
BRANCH  28  31
HETATM   31  C   UNL     1     -41.561  54.468 -53.155  1.00  0.00     0.041 A 
HETATM   32  C   UNL     1     -41.244  54.165 -54.498  1.00  0.00    -0.035 A 
HETATM   33  C   UNL     1     -41.764  54.975 -55.655  1.00  0.00     0.050 C 
HETATM   34  C   UNL     1     -40.405  53.070 -54.779  1.00  0.00     0.009 A 
HETATM   35  C   UNL     1     -39.890  52.282 -53.754  1.00  0.00     0.001 A 
HETATM   36  C   UNL     1     -40.207  52.576 -52.435  1.00  0.00     0.002 A 
HETATM   37  C   UNL     1     -41.037  53.660 -52.138  1.00  0.00     0.030 A 
ENDBRANCH  28  31
ENDBRANCH   8  27
TORSDOF 8
ENDMDL
MODEL 7
REMARK VINA RESULT:      -7.6      2.273      3.261
REMARK  8 active torsions:
REMARK  status: ('A' for Active; 'I' for Inactive)
REMARK    1  A    between atoms: C_2  and  O_3 
REMARK    2  A    between atoms: O_3  and  C_4 
REMARK    3  A    between atoms: C_5  and  O_6 
REMARK    4  A    between atoms: O_6  and  C_7 
REMARK    5  A    between atoms: C_7  and  C_8 
REMARK       I    between atoms: C_8  and  N_9 
REMARK    6  A    between atoms: C_13  and  C_14 
REMARK    7  A    between atoms: C_21  and  C_22 
REMARK       I    between atoms: C_22  and  N_23 
REMARK    8  A    between atoms: N_23  and  C_24 
ROOT
HETATM    1  C   UNL     1     -42.080  60.326 -54.919  1.00  0.00     0.160 C 
HETATM    2  N   UNL     1     -42.764  61.598 -54.780  1.00  0.00    -0.330 N 
HETATM    3  C   UNL     1     -43.369  62.034 -53.646  1.00  0.00     0.321 C 
HETATM    4  O   UNL     1     -44.057  63.049 -53.637  1.00  0.00    -0.247 OA
HETATM    5  N   UNL     1     -43.150  61.300 -52.518  1.00  0.00    -0.312 N 
HETATM    6  C   UNL     1     -42.377  60.165 -52.445  1.00  0.00     0.024 C 
HETATM    7  C   UNL     1     -42.222  59.559 -51.080  1.00  0.00     0.069 C 
HETATM    8  C   UNL     1     -41.833  59.698 -53.581  1.00  0.00     0.059 C 
HETATM    9  H   UNL     1     -42.988  62.128 -55.611  1.00  0.00     0.165 HD
HETATM   10  H   UNL     1     -43.599  61.664 -51.685  1.00  0.00     0.170 HD
ENDROOT
BRANCH   1  11
HETATM   11  C   UNL     1     -42.822  59.412 -55.883  1.00  0.00    -0.028 A 
HETATM   12  C   UNL     1     -44.122  58.961 -55.609  1.00  0.00     0.012 A 
HETATM   13  C   UNL     1     -44.762  58.077 -56.476  1.00  0.00     0.040 A 
HETATM   14  C   UNL     1     -44.096  57.612 -57.613  1.00  0.00     0.102 A 
HETATM   15  C   UNL     1     -42.801  58.058 -57.919  1.00  0.00     0.102 A 
HETATM   16  C   UNL     1     -42.174  58.954 -57.048  1.00  0.00     0.049 A 
BRANCH  14  17
HETATM   17  O   UNL     1     -44.703  56.752 -58.494  1.00  0.00    -0.339 OA
BRANCH  17  18
HETATM   18  C   UNL     1     -45.930  57.267 -59.018  1.00  0.00     0.278 C 
BRANCH  18  19
HETATM   19  C   UNL     1     -46.351  56.434 -60.225  1.00  0.00     0.239 C 
HETATM   20  N   UNL     1     -45.335  56.072 -61.066  1.00  0.00    -0.368 N 
HETATM   21  H   UNL     1     -44.438  56.543 -60.986  1.00  0.00     0.159 HD
HETATM   22  H   UNL     1     -45.569  55.587 -61.919  1.00  0.00     0.159 HD
HETATM   23  O   UNL     1     -47.501  56.050 -60.416  1.00  0.00    -0.271 OA
ENDBRANCH  18  19
ENDBRANCH  17  18
ENDBRANCH  14  17
BRANCH  15  24
HETATM   24  O   UNL     1     -42.242  57.533 -59.056  1.00  0.00    -0.349 OA
BRANCH  24  25
HETATM   25  C   UNL     1     -41.912  58.401 -60.139  1.00  0.00     0.171 C 
HETATM   26  C   UNL     1     -43.130  59.175 -60.614  1.00  0.00     0.034 C 
ENDBRANCH  24  25
ENDBRANCH  15  24
ENDBRANCH   1  11
BRANCH   8  27
HETATM   27  C   UNL     1     -40.999  58.472 -53.570  1.00  0.00     0.256 C 
HETATM   28  N   UNL     1     -41.756  57.337 -53.774  1.00  0.00    -0.323 N 
HETATM   29  H   UNL     1     -42.733  57.480 -53.994  1.00  0.00     0.169 HD
HETATM   30  O   UNL     1     -39.790  58.561 -53.416  1.00  0.00    -0.267 OA
BRANCH  28  31
HETATM   31  C   UNL     1     -41.311  55.993 -53.761  1.00  0.00     0.041 A 
HETATM   32  C   UNL     1     -41.408  55.254 -52.560  1.00  0.00    -0.035 A 
HETATM   33  C   UNL     1     -41.978  55.836 -51.295  1.00  0.00     0.050 C 
HETATM   34  C   UNL     1     -40.962  53.919 -52.535  1.00  0.00     0.009 A 
HETATM   35  C   UNL     1     -40.426  53.321 -53.671  1.00  0.00     0.001 A 
HETATM   36  C   UNL     1     -40.326  54.050 -54.849  1.00  0.00     0.002 A 
HETATM   37  C   UNL     1     -40.764  55.376 -54.892  1.00  0.00     0.030 A 
ENDBRANCH  28  31
ENDBRANCH   8  27
TORSDOF 8
ENDMDL
MODEL 8
REMARK VINA RESULT:      -7.6      2.160      2.874
REMARK  8 active torsions:
REMARK  status: ('A' for Active; 'I' for Inactive)
REMARK    1  A    between atoms: C_2  and  O_3 
REMARK    2  A    between atoms: O_3  and  C_4 
REMARK    3  A    between atoms: C_5  and  O_6 
REMARK    4  A    between atoms: O_6  and  C_7 
REMARK    5  A    between atoms: C_7  and  C_8 
REMARK       I    between atoms: C_8  and  N_9 
REMARK    6  A    between atoms: C_13  and  C_14 
REMARK    7  A    between atoms: C_21  and  C_22 
REMARK       I    between atoms: C_22  and  N_23 
REMARK    8  A    between atoms: N_23  and  C_24 
ROOT
HETATM    1  C   UNL     1     -42.321  58.684 -54.780  1.00  0.00     0.160 C 
HETATM    2  N   UNL     1     -42.212  60.103 -54.498  1.00  0.00    -0.330 N 
HETATM    3  C   UNL     1     -42.527  60.685 -53.313  1.00  0.00     0.321 C 
HETATM    4  O   UNL     1     -42.557  61.905 -53.186  1.00  0.00    -0.247 OA
HETATM    5  N   UNL     1     -42.785  59.845 -52.270  1.00  0.00    -0.312 N 
HETATM    6  C   UNL     1     -42.753  58.471 -52.329  1.00  0.00     0.024 C 
HETATM    7  C   UNL     1     -43.004  57.749 -51.037  1.00  0.00     0.069 C 
HETATM    8  C   UNL     1     -42.504  57.896 -53.518  1.00  0.00     0.059 C 
HETATM    9  H   UNL     1     -42.081  60.747 -55.265  1.00  0.00     0.165 HD
HETATM   10  H   UNL     1     -42.998  60.311 -51.396  1.00  0.00     0.170 HD
ENDROOT
BRANCH   1  11
HETATM   11  C   UNL     1     -43.401  58.417 -55.817  1.00  0.00    -0.028 A 
HETATM   12  C   UNL     1     -44.758  58.623 -55.528  1.00  0.00     0.012 A 
HETATM   13  C   UNL     1     -45.737  58.316 -56.473  1.00  0.00     0.040 A 
HETATM   14  C   UNL     1     -45.369  57.773 -57.706  1.00  0.00     0.102 A 
HETATM   15  C   UNL     1     -44.017  57.570 -58.027  1.00  0.00     0.102 A 
HETATM   16  C   UNL     1     -43.044  57.892 -57.076  1.00  0.00     0.049 A 
BRANCH  14  17
HETATM   17  O   UNL     1     -46.306  57.473 -58.662  1.00  0.00    -0.339 OA
BRANCH  17  18
HETATM   18  C   UNL     1     -46.974  58.631 -59.170  1.00  0.00     0.278 C 
BRANCH  18  19
HETATM   19  C   UNL     1     -46.779  58.702 -60.681  1.00  0.00     0.239 C 
HETATM   20  N   UNL     1     -45.500  58.960 -61.092  1.00  0.00    -0.368 N 
HETATM   21  H   UNL     1     -44.826  59.307 -60.416  1.00  0.00     0.159 HD
HETATM   22  H   UNL     1     -45.331  59.095 -62.078  1.00  0.00     0.159 HD
HETATM   23  O   UNL     1     -47.674  58.486 -61.492  1.00  0.00    -0.271 OA
ENDBRANCH  18  19
ENDBRANCH  17  18
ENDBRANCH  14  17
BRANCH  15  24
HETATM   24  O   UNL     1     -43.772  57.027 -59.262  1.00  0.00    -0.349 OA
BRANCH  24  25
HETATM   25  C   UNL     1     -43.283  55.689 -59.353  1.00  0.00     0.171 C 
HETATM   26  C   UNL     1     -44.345  54.753 -59.905  1.00  0.00     0.034 C 
ENDBRANCH  24  25
ENDBRANCH  15  24
ENDBRANCH   1  11
BRANCH   8  27
HETATM   27  C   UNL     1     -42.468  56.420 -53.650  1.00  0.00     0.256 C 
HETATM   28  N   UNL     1     -41.213  55.914 -53.386  1.00  0.00    -0.323 N 
HETATM   29  H   UNL     1     -40.522  56.572 -53.053  1.00  0.00     0.169 HD
HETATM   30  O   UNL     1     -43.488  55.811 -53.938  1.00  0.00    -0.267 OA
BRANCH  28  31
HETATM   31  C   UNL     1     -40.794  54.565 -53.478  1.00  0.00     0.041 A 
HETATM   32  C   UNL     1     -40.599  53.827 -52.289  1.00  0.00    -0.035 A 
HETATM   33  C   UNL     1     -40.832  54.417 -50.923  1.00  0.00     0.050 C 
HETATM   34  C   UNL     1     -40.176  52.487 -52.369  1.00  0.00     0.009 A 
HETATM   35  C   UNL     1     -39.945  51.882 -53.601  1.00  0.00     0.001 A 
HETATM   36  C   UNL     1     -40.130  52.609 -54.769  1.00  0.00     0.002 A 
HETATM   37  C   UNL     1     -40.550  53.940 -54.708  1.00  0.00     0.030 A 
ENDBRANCH  28  31
ENDBRANCH   8  27
TORSDOF 8
ENDMDL
MODEL 9
REMARK VINA RESULT:      -7.6      2.985      6.431
REMARK  8 active torsions:
REMARK  status: ('A' for Active; 'I' for Inactive)
REMARK    1  A    between atoms: C_2  and  O_3 
REMARK    2  A    between atoms: O_3  and  C_4 
REMARK    3  A    between atoms: C_5  and  O_6 
REMARK    4  A    between atoms: O_6  and  C_7 
REMARK    5  A    between atoms: C_7  and  C_8 
REMARK       I    between atoms: C_8  and  N_9 
REMARK    6  A    between atoms: C_13  and  C_14 
REMARK    7  A    between atoms: C_21  and  C_22 
REMARK       I    between atoms: C_22  and  N_23 
REMARK    8  A    between atoms: N_23  and  C_24 
ROOT
HETATM    1  C   UNL     1     -44.005  56.445 -54.555  1.00  0.00     0.160 C 
HETATM    2  N   UNL     1     -44.094  56.959 -55.908  1.00  0.00    -0.330 N 
HETATM    3  C   UNL     1     -43.109  56.871 -56.838  1.00  0.00     0.321 C 
HETATM    4  O   UNL     1     -43.189  57.457 -57.913  1.00  0.00    -0.247 OA
HETATM    5  N   UNL     1     -42.043  56.082 -56.524  1.00  0.00    -0.312 N 
HETATM    6  C   UNL     1     -41.891  55.380 -55.351  1.00  0.00     0.024 C 
HETATM    7  C   UNL     1     -40.665  54.519 -55.252  1.00  0.00     0.069 C 
HETATM    8  C   UNL     1     -42.835  55.519 -54.406  1.00  0.00     0.059 C 
HETATM    9  H   UNL     1     -44.844  57.594 -56.144  1.00  0.00     0.165 HD
HETATM   10  H   UNL     1     -41.336  56.022 -57.248  1.00  0.00     0.170 HD
ENDROOT
BRANCH   1  11
HETATM   11  C   UNL     1     -44.006  57.579 -53.541  1.00  0.00    -0.028 A 
HETATM   12  C   UNL     1     -44.732  57.489 -52.344  1.00  0.00     0.012 A 
HETATM   13  C   UNL     1     -44.767  58.563 -51.455  1.00  0.00     0.040 A 
HETATM   14  C   UNL     1     -44.100  59.749 -51.770  1.00  0.00     0.102 A 
HETATM   15  C   UNL     1     -43.354  59.862 -52.954  1.00  0.00     0.102 A 
HETATM   16  C   UNL     1     -43.316  58.774 -53.831  1.00  0.00     0.049 A 
BRANCH  14  17
HETATM   17  O   UNL     1     -44.104  60.819 -50.910  1.00  0.00    -0.339 OA
BRANCH  17  18
HETATM   18  C   UNL     1     -45.422  61.245 -50.557  1.00  0.00     0.278 C 
BRANCH  18  19
HETATM   19  C   UNL     1     -45.551  61.275 -49.037  1.00  0.00     0.239 C 
HETATM   20  N   UNL     1     -44.431  60.898 -48.350  1.00  0.00    -0.368 N 
HETATM   21  H   UNL     1     -43.687  60.417 -48.847  1.00  0.00     0.159 HD
HETATM   22  H   UNL     1     -44.487  60.825 -47.345  1.00  0.00     0.159 HD
HETATM   23  O   UNL     1     -46.556  61.665 -48.450  1.00  0.00    -0.271 OA
ENDBRANCH  18  19
ENDBRANCH  17  18
ENDBRANCH  14  17
BRANCH  15  24
HETATM   24  O   UNL     1     -42.744  61.072 -53.162  1.00  0.00    -0.349 OA
BRANCH  24  25
HETATM   25  C   UNL     1     -43.127  61.864 -54.285  1.00  0.00     0.171 C 
HETATM   26  C   UNL     1     -44.411  62.627 -54.007  1.00  0.00     0.034 C 
ENDBRANCH  24  25
ENDBRANCH  15  24
ENDBRANCH   1  11
BRANCH   8  27
HETATM   27  C   UNL     1     -42.723  54.799 -53.115  1.00  0.00     0.256 C 
HETATM   28  N   UNL     1     -41.684  55.283 -52.348  1.00  0.00    -0.323 N 
HETATM   29  H   UNL     1     -41.205  56.101 -52.701  1.00  0.00     0.169 HD
HETATM   30  O   UNL     1     -43.519  53.913 -52.843  1.00  0.00    -0.267 OA
BRANCH  28  31
HETATM   31  C   UNL     1     -41.241  54.796 -51.095  1.00  0.00     0.041 A 
HETATM   32  C   UNL     1     -40.516  53.584 -51.051  1.00  0.00    -0.035 A 
HETATM   33  C   UNL     1     -40.183  52.794 -52.288  1.00  0.00     0.050 C 
HETATM   34  C   UNL     1     -40.076  53.088 -49.809  1.00  0.00     0.009 A 
HETATM   35  C   UNL     1     -40.350  53.770 -48.628  1.00  0.00     0.001 A 
HETATM   36  C   UNL     1     -41.068  54.958 -48.671  1.00  0.00     0.002 A 
HETATM   37  C   UNL     1     -41.511  55.465 -49.895  1.00  0.00     0.030 A 
ENDBRANCH  28  31
ENDBRANCH   8  27
TORSDOF 8
ENDMDL
MODEL 10
REMARK VINA RESULT:      -7.4      2.919      6.554
REMARK  8 active torsions:
REMARK  status: ('A' for Active; 'I' for Inactive)
REMARK    1  A    between atoms: C_2  and  O_3 
REMARK    2  A    between atoms: O_3  and  C_4 
REMARK    3  A    between atoms: C_5  and  O_6 
REMARK    4  A    between atoms: O_6  and  C_7 
REMARK    5  A    between atoms: C_7  and  C_8 
REMARK       I    between atoms: C_8  and  N_9 
REMARK    6  A    between atoms: C_13  and  C_14 
REMARK    7  A    between atoms: C_21  and  C_22 
REMARK       I    between atoms: C_22  and  N_23 
REMARK    8  A    between atoms: N_23  and  C_24 
ROOT
HETATM    1  C   UNL     1     -43.819  56.368 -54.860  1.00  0.00     0.160 C 
HETATM    2  N   UNL     1     -43.837  56.669 -56.279  1.00  0.00    -0.330 N 
HETATM    3  C   UNL     1     -42.877  56.297 -57.164  1.00  0.00     0.321 C 
HETATM    4  O   UNL     1     -42.876  56.711 -58.319  1.00  0.00    -0.247 OA
HETATM    5  N   UNL     1     -41.933  55.426 -56.709  1.00  0.00    -0.312 N 
HETATM    6  C   UNL     1     -41.879  54.903 -55.437  1.00  0.00     0.024 C 
HETATM    7  C   UNL     1     -40.788  53.906 -55.179  1.00  0.00     0.069 C 
HETATM    8  C   UNL     1     -42.792  55.322 -54.545  1.00  0.00     0.059 C 
HETATM    9  H   UNL     1     -44.490  57.357 -56.626  1.00  0.00     0.165 HD
HETATM   10  H   UNL     1     -41.243  55.153 -57.400  1.00  0.00     0.170 HD
ENDROOT
BRANCH   1  11
HETATM   11  C   UNL     1     -43.656  57.636 -54.037  1.00  0.00    -0.028 A 
HETATM   12  C   UNL     1     -42.419  58.291 -53.939  1.00  0.00     0.012 A 
HETATM   13  C   UNL     1     -42.277  59.419 -53.132  1.00  0.00     0.040 A 
HETATM   14  C   UNL     1     -43.366  59.886 -52.392  1.00  0.00     0.102 A 
HETATM   15  C   UNL     1     -44.618  59.259 -52.481  1.00  0.00     0.102 A 
HETATM   16  C   UNL     1     -44.751  58.136 -53.303  1.00  0.00     0.049 A 
BRANCH  14  17
HETATM   17  O   UNL     1     -43.263  61.002 -51.598  1.00  0.00    -0.339 OA
BRANCH  17  18
HETATM   18  C   UNL     1     -42.918  60.694 -50.246  1.00  0.00     0.278 C 
BRANCH  18  19
HETATM   19  C   UNL     1     -43.815  61.489 -49.303  1.00  0.00     0.239 C 
HETATM   20  N   UNL     1     -44.405  60.760 -48.308  1.00  0.00    -0.368 N 
HETATM   21  H   UNL     1     -44.410  59.747 -48.376  1.00  0.00     0.159 HD
HETATM   22  H   UNL     1     -45.070  61.222 -47.705  1.00  0.00     0.159 HD
HETATM   23  O   UNL     1     -43.965  62.705 -49.375  1.00  0.00    -0.271 OA
ENDBRANCH  18  19
ENDBRANCH  17  18
ENDBRANCH  14  17
BRANCH  15  24
HETATM   24  O   UNL     1     -45.613  59.799 -51.707  1.00  0.00    -0.349 OA
BRANCH  24  25
HETATM   25  C   UNL     1     -46.583  60.654 -52.310  1.00  0.00     0.171 C 
HETATM   26  C   UNL     1     -46.757  61.936 -51.512  1.00  0.00     0.034 C 
ENDBRANCH  24  25
ENDBRANCH  15  24
ENDBRANCH   1  11
BRANCH   8  27
HETATM   27  C   UNL     1     -42.780  54.806 -53.154  1.00  0.00     0.256 C 
HETATM   28  N   UNL     1     -41.568  55.031 -52.536  1.00  0.00    -0.323 N 
HETATM   29  H   UNL     1     -40.895  55.584 -53.050  1.00  0.00     0.169 HD
HETATM   30  O   UNL     1     -43.782  54.281 -52.693  1.00  0.00    -0.267 OA
BRANCH  28  31
HETATM   31  C   UNL     1     -41.175  54.619 -51.240  1.00  0.00     0.041 A 
HETATM   32  C   UNL     1     -41.215  55.557 -50.184  1.00  0.00    -0.035 A 
HETATM   33  C   UNL     1     -41.672  56.978 -50.380  1.00  0.00     0.050 C 
HETATM   34  C   UNL     1     -40.821  55.160 -48.893  1.00  0.00     0.009 A 
HETATM   35  C   UNL     1     -40.389  53.860 -48.644  1.00  0.00     0.001 A 
HETATM   36  C   UNL     1     -40.344  52.940 -49.683  1.00  0.00     0.002 A 
HETATM   37  C   UNL     1     -40.733  53.318 -50.971  1.00  0.00     0.030 A 
ENDBRANCH  28  31
ENDBRANCH   8  27
TORSDOF 8
ENDMDL
