MODEL 1
REMARK VINA RESULT:      -7.5      0.000      0.000
REMARK  7 active torsions:
REMARK  status: ('A' for Active; 'I' for Inactive)
REMARK    1  A    between atoms: C_2  and  N_3 
REMARK    2  A    between atoms: C_2  and  C_10 
REMARK    3  A    between atoms: C_10  and  N_11 
REMARK       I    between atoms: N_11  and  C_12 
REMARK       I    between atoms: C_12  and  N_13 
REMARK    4  A    between atoms: N_13  and  C_14 
REMARK    5  A    between atoms: C_14  and  C_15 
REMARK    6  A    between atoms: C_18  and  N_19 
REMARK       I    between atoms: N_19  and  C_20 
REMARK    7  A    between atoms: C_20  and  C_21 
ROOT
HETATM    1  N   UNL     1     -46.964  58.070 -57.282  1.00  0.00    -0.341 N 
HETATM    2  C   UNL     1     -45.909  58.424 -56.481  1.00  0.00     0.316 C 
HETATM    3  N   UNL     1     -45.822  57.656 -55.358  1.00  0.00    -0.339 N 
HETATM    4  O   UNL     1     -45.176  59.367 -56.744  1.00  0.00    -0.248 OA
HETATM    5  H   UNL     1     -47.324  57.132 -57.163  1.00  0.00     0.164 HD
HETATM    6  H   UNL     1     -46.350  56.802 -55.282  1.00  0.00     0.164 HD
ENDROOT
BRANCH   3   7
HETATM    7  C   UNL     1     -44.804  57.893 -54.355  1.00  0.00     0.162 C 
BRANCH   7   8
HETATM    8  C   UNL     1     -43.928  56.701 -54.051  1.00  0.00    -0.040 A 
HETATM    9  C   UNL     1     -43.217  56.548 -52.855  1.00  0.00     0.011 A 
HETATM   10  C   UNL     1     -42.459  55.395 -52.607  1.00  0.00     0.030 A 
HETATM   11  C   UNL     1     -42.411  54.362 -53.542  1.00  0.00     0.035 A 
HETATM   12  C   UNL     1     -43.119  54.506 -54.738  1.00  0.00     0.030 A 
HETATM   13  C   UNL     1     -43.869  55.660 -54.989  1.00  0.00     0.011 A 
BRANCH  11  14
HETATM   14  N   UNL     1     -41.709  53.158 -53.353  1.00  0.00    -0.321 N 
HETATM   15  C   UNL     1     -40.534  52.741 -53.952  1.00  0.00     0.279 C 
HETATM   16  O   UNL     1     -39.918  53.354 -54.818  1.00  0.00    -0.265 OA
HETATM   17  H   UNL     1     -42.087  52.505 -52.674  1.00  0.00     0.169 HD
BRANCH  15  18
HETATM   18  C   UNL     1     -40.077  51.460 -53.439  1.00  0.00     0.142 A 
HETATM   19  O   UNL     1     -39.813  51.328 -52.098  1.00  0.00    -0.317 OA
HETATM   20  C   UNL     1     -39.391  50.052 -51.897  1.00  0.00     0.143 A 
HETATM   21  C   UNL     1     -39.382  49.354 -53.081  1.00  0.00     0.027 A 
HETATM   22  C   UNL     1     -39.824  50.259 -54.076  1.00  0.00     0.045 A 
ENDBRANCH  15  18
ENDBRANCH  11  14
ENDBRANCH   7   8
ENDBRANCH   3   7
BRANCH   1  23
HETATM   23  C   UNL     1     -47.179  58.747 -58.550  1.00  0.00     0.162 C 
BRANCH  23  24
HETATM   24  C   UNL     1     -46.559  58.045 -59.817  1.00  0.00     0.136 C 
HETATM   25  C   UNL     1     -46.943  58.728 -61.136  1.00  0.00     0.048 C 
HETATM   26  C   UNL     1     -47.032  56.576 -59.833  1.00  0.00     0.048 C 
BRANCH  24  27
HETATM   27  N   UNL     1     -44.977  58.043 -59.674  1.00  0.00    -0.061 N 
HETATM   28  H   UNL     1     -44.797  58.292 -58.692  1.00  0.00     0.280 HD
HETATM   29  C   UNL     1     -44.316  56.685 -59.888  1.00  0.00     0.236 C 
HETATM   30  C   UNL     1     -42.846  56.755 -59.492  1.00  0.00     0.028 C 
HETATM   31  C   UNL     1     -42.104  57.831 -60.271  1.00  0.00     0.003 C 
HETATM   32  C   UNL     1     -42.801  59.175 -60.129  1.00  0.00     0.028 C 
HETATM   33  C   UNL     1     -44.271  59.098 -60.521  1.00  0.00     0.236 C 
ENDBRANCH  24  27
ENDBRANCH  23  24
ENDBRANCH   1  23
TORSDOF 7
ENDMDL
MODEL 2
REMARK VINA RESULT:      -7.5      2.894      8.453
REMARK  7 active torsions:
REMARK  status: ('A' for Active; 'I' for Inactive)
REMARK    1  A    between atoms: C_2  and  N_3 
REMARK    2  A    between atoms: C_2  and  C_10 
REMARK    3  A    between atoms: C_10  and  N_11 
REMARK       I    between atoms: N_11  and  C_12 
REMARK       I    between atoms: C_12  and  N_13 
REMARK    4  A    between atoms: N_13  and  C_14 
REMARK    5  A    between atoms: C_14  and  C_15 
REMARK    6  A    between atoms: C_18  and  N_19 
REMARK       I    between atoms: N_19  and  C_20 
REMARK    7  A    between atoms: C_20  and  C_21 
ROOT
HETATM    1  N   UNL     1     -41.635  56.896 -50.206  1.00  0.00    -0.341 N 
HETATM    2  C   UNL     1     -41.541  57.792 -51.241  1.00  0.00     0.316 C 
HETATM    3  N   UNL     1     -42.523  58.736 -51.207  1.00  0.00    -0.339 N 
HETATM    4  O   UNL     1     -40.692  57.694 -52.116  1.00  0.00    -0.248 OA
HETATM    5  H   UNL     1     -42.148  57.204 -49.391  1.00  0.00     0.164 HD
HETATM    6  H   UNL     1     -43.086  58.858 -50.381  1.00  0.00     0.164 HD
ENDROOT
BRANCH   3   7
HETATM    7  C   UNL     1     -42.634  59.752 -52.235  1.00  0.00     0.162 C 
BRANCH   7   8
HETATM    8  C   UNL     1     -42.980  59.226 -53.608  1.00  0.00    -0.040 A 
HETATM    9  C   UNL     1     -42.159  59.389 -54.729  1.00  0.00     0.011 A 
HETATM   10  C   UNL     1     -42.508  58.835 -55.969  1.00  0.00     0.030 A 
HETATM   11  C   UNL     1     -43.679  58.090 -56.108  1.00  0.00     0.035 A 
HETATM   12  C   UNL     1     -44.504  57.921 -54.993  1.00  0.00     0.030 A 
HETATM   13  C   UNL     1     -44.159  58.481 -53.758  1.00  0.00     0.011 A 
BRANCH  11  14
HETATM   14  N   UNL     1     -44.080  57.467 -57.303  1.00  0.00    -0.321 N 
HETATM   15  C   UNL     1     -43.629  56.280 -57.852  1.00  0.00     0.279 C 
HETATM   16  O   UNL     1     -42.734  55.578 -57.392  1.00  0.00    -0.265 OA
HETATM   17  H   UNL     1     -44.812  57.923 -57.839  1.00  0.00     0.169 HD
BRANCH  15  18
HETATM   18  C   UNL     1     -44.342  55.926 -59.067  1.00  0.00     0.142 A 
HETATM   19  O   UNL     1     -45.542  56.534 -59.345  1.00  0.00    -0.317 OA
HETATM   20  C   UNL     1     -45.993  56.013 -60.516  1.00  0.00     0.143 A 
HETATM   21  C   UNL     1     -45.107  55.084 -61.004  1.00  0.00     0.027 A 
HETATM   22  C   UNL     1     -44.042  55.026 -60.073  1.00  0.00     0.045 A 
ENDBRANCH  15  18
ENDBRANCH  11  14
ENDBRANCH   7   8
ENDBRANCH   3   7
BRANCH   1  23
HETATM   23  C   UNL     1     -40.637  55.850 -50.052  1.00  0.00     0.162 C 
BRANCH  23  24
HETATM   24  C   UNL     1     -41.169  54.371 -50.161  1.00  0.00     0.136 C 
HETATM   25  C   UNL     1     -42.700  54.281 -50.212  1.00  0.00     0.048 C 
HETATM   26  C   UNL     1     -40.640  53.580 -48.945  1.00  0.00     0.048 C 
BRANCH  24  27
HETATM   27  N   UNL     1     -40.564  53.707 -51.471  1.00  0.00    -0.061 N 
HETATM   28  H   UNL     1     -39.664  54.184 -51.620  1.00  0.00     0.280 HD
HETATM   29  C   UNL     1     -40.234  52.223 -51.345  1.00  0.00     0.236 C 
HETATM   30  C   UNL     1     -39.447  51.762 -52.564  1.00  0.00     0.028 C 
HETATM   31  C   UNL     1     -40.206  52.025 -53.857  1.00  0.00     0.003 C 
HETATM   32  C   UNL     1     -40.608  53.487 -53.955  1.00  0.00     0.028 C 
HETATM   33  C   UNL     1     -41.390  53.946 -52.731  1.00  0.00     0.236 C 
ENDBRANCH  24  27
ENDBRANCH  23  24
ENDBRANCH   1  23
TORSDOF 7
ENDMDL
MODEL 3
REMARK VINA RESULT:      -7.3      1.430      2.157
REMARK  7 active torsions:
REMARK  status: ('A' for Active; 'I' for Inactive)
REMARK    1  A    between atoms: C_2  and  N_3 
REMARK    2  A    between atoms: C_2  and  C_10 
REMARK    3  A    between atoms: C_10  and  N_11 
REMARK       I    between atoms: N_11  and  C_12 
REMARK       I    between atoms: C_12  and  N_13 
REMARK    4  A    between atoms: N_13  and  C_14 
REMARK    5  A    between atoms: C_14  and  C_15 
REMARK    6  A    between atoms: C_18  and  N_19 
REMARK       I    between atoms: N_19  and  C_20 
REMARK    7  A    between atoms: C_20  and  C_21 
ROOT
HETATM    1  N   UNL     1     -45.013  59.696 -57.517  1.00  0.00    -0.341 N 
HETATM    2  C   UNL     1     -44.355  59.507 -56.328  1.00  0.00     0.316 C 
HETATM    3  N   UNL     1     -45.101  58.817 -55.421  1.00  0.00    -0.339 N 
HETATM    4  O   UNL     1     -43.243  59.970 -56.116  1.00  0.00    -0.248 OA
HETATM    5  H   UNL     1     -45.768  59.053 -57.720  1.00  0.00     0.164 HD
HETATM    6  H   UNL     1     -45.934  58.329 -55.709  1.00  0.00     0.164 HD
ENDROOT
BRANCH   3   7
HETATM    7  C   UNL     1     -44.611  58.549 -54.084  1.00  0.00     0.162 C 
BRANCH   7   8
HETATM    8  C   UNL     1     -43.769  57.301 -53.959  1.00  0.00    -0.040 A 
HETATM    9  C   UNL     1     -42.480  57.289 -53.413  1.00  0.00     0.011 A 
HETATM   10  C   UNL     1     -41.764  56.091 -53.275  1.00  0.00     0.030 A 
HETATM   11  C   UNL     1     -42.330  54.878 -53.665  1.00  0.00     0.035 A 
HETATM   12  C   UNL     1     -43.616  54.881 -54.209  1.00  0.00     0.030 A 
HETATM   13  C   UNL     1     -44.328  56.077 -54.354  1.00  0.00     0.011 A 
BRANCH  11  14
HETATM   14  N   UNL     1     -41.696  53.630 -53.522  1.00  0.00    -0.321 N 
HETATM   15  C   UNL     1     -40.638  53.112 -54.247  1.00  0.00     0.279 C 
HETATM   16  O   UNL     1     -40.096  53.656 -55.204  1.00  0.00    -0.265 OA
HETATM   17  H   UNL     1     -42.030  53.024 -52.779  1.00  0.00     0.169 HD
BRANCH  15  18
HETATM   18  C   UNL     1     -40.211  51.815 -53.752  1.00  0.00     0.142 A 
HETATM   19  O   UNL     1     -39.840  51.686 -52.436  1.00  0.00    -0.317 OA
HETATM   20  C   UNL     1     -39.475  50.391 -52.248  1.00  0.00     0.143 A 
HETATM   21  C   UNL     1     -39.607  49.677 -53.415  1.00  0.00     0.027 A 
HETATM   22  C   UNL     1     -40.082  50.592 -54.385  1.00  0.00     0.045 A 
ENDBRANCH  15  18
ENDBRANCH  11  14
ENDBRANCH   7   8
ENDBRANCH   3   7
BRANCH   1  23
HETATM   23  C   UNL     1     -44.348  60.366 -58.622  1.00  0.00     0.162 C 
BRANCH  23  24
HETATM   24  C   UNL     1     -43.646  59.426 -59.674  1.00  0.00     0.136 C 
HETATM   25  C   UNL     1     -42.126  59.624 -59.744  1.00  0.00     0.048 C 
HETATM   26  C   UNL     1     -44.272  59.701 -61.058  1.00  0.00     0.048 C 
BRANCH  24  27
HETATM   27  N   UNL     1     -43.957  57.915 -59.294  1.00  0.00    -0.061 N 
HETATM   28  H   UNL     1     -44.644  57.969 -58.530  1.00  0.00     0.280 HD
HETATM   29  C   UNL     1     -44.624  57.101 -60.398  1.00  0.00     0.236 C 
HETATM   30  C   UNL     1     -45.087  55.759 -59.844  1.00  0.00     0.028 C 
HETATM   31  C   UNL     1     -43.936  54.975 -59.233  1.00  0.00     0.003 C 
HETATM   32  C   UNL     1     -43.215  55.807 -58.186  1.00  0.00     0.028 C 
HETATM   33  C   UNL     1     -42.758  57.150 -58.743  1.00  0.00     0.236 C 
ENDBRANCH  24  27
ENDBRANCH  23  24
ENDBRANCH   1  23
TORSDOF 7
ENDMDL
MODEL 4
REMARK VINA RESULT:      -7.2      6.458      9.688
REMARK  7 active torsions:
REMARK  status: ('A' for Active; 'I' for Inactive)
REMARK    1  A    between atoms: C_2  and  N_3 
REMARK    2  A    between atoms: C_2  and  C_10 
REMARK    3  A    between atoms: C_10  and  N_11 
REMARK       I    between atoms: N_11  and  C_12 
REMARK       I    between atoms: C_12  and  N_13 
REMARK    4  A    between atoms: N_13  and  C_14 
REMARK    5  A    between atoms: C_14  and  C_15 
REMARK    6  A    between atoms: C_18  and  N_19 
REMARK       I    between atoms: N_19  and  C_20 
REMARK    7  A    between atoms: C_20  and  C_21 
ROOT
HETATM    1  N   UNL     1     -44.744  60.587 -48.735  1.00  0.00    -0.341 N 
HETATM    2  C   UNL     1     -44.092  60.572 -49.941  1.00  0.00     0.316 C 
HETATM    3  N   UNL     1     -44.191  59.371 -50.576  1.00  0.00    -0.339 N 
HETATM    4  O   UNL     1     -43.452  61.531 -50.350  1.00  0.00    -0.248 OA
HETATM    5  H   UNL     1     -45.473  59.896 -48.610  1.00  0.00     0.164 HD
HETATM    6  H   UNL     1     -44.860  58.684 -50.268  1.00  0.00     0.164 HD
ENDROOT
BRANCH   3   7
HETATM    7  C   UNL     1     -43.536  59.128 -51.846  1.00  0.00     0.162 C 
BRANCH   7   8
HETATM    8  C   UNL     1     -43.022  57.720 -52.032  1.00  0.00    -0.040 A 
HETATM    9  C   UNL     1     -43.838  56.584 -51.970  1.00  0.00     0.011 A 
HETATM   10  C   UNL     1     -43.314  55.304 -52.202  1.00  0.00     0.030 A 
HETATM   11  C   UNL     1     -41.966  55.135 -52.517  1.00  0.00     0.035 A 
HETATM   12  C   UNL     1     -41.145  56.264 -52.581  1.00  0.00     0.030 A 
HETATM   13  C   UNL     1     -41.666  57.540 -52.343  1.00  0.00     0.011 A 
BRANCH  11  14
HETATM   14  N   UNL     1     -41.373  53.893 -52.803  1.00  0.00    -0.321 N 
HETATM   15  C   UNL     1     -40.334  53.260 -52.144  1.00  0.00     0.279 C 
HETATM   16  O   UNL     1     -39.703  53.723 -51.199  1.00  0.00    -0.265 OA
HETATM   17  H   UNL     1     -41.758  53.364 -53.579  1.00  0.00     0.169 HD
BRANCH  15  18
HETATM   18  C   UNL     1     -40.049  51.946 -52.693  1.00  0.00     0.142 A 
HETATM   19  O   UNL     1     -39.930  50.873 -51.844  1.00  0.00    -0.317 OA
HETATM   20  C   UNL     1     -39.650  49.786 -52.609  1.00  0.00     0.143 A 
HETATM   21  C   UNL     1     -39.591  50.133 -53.938  1.00  0.00     0.027 A 
HETATM   22  C   UNL     1     -39.848  51.523 -53.994  1.00  0.00     0.045 A 
ENDBRANCH  15  18
ENDBRANCH  11  14
ENDBRANCH   7   8
ENDBRANCH   3   7
BRANCH   1  23
HETATM   23  C   UNL     1     -44.789  61.805 -47.943  1.00  0.00     0.162 C 
BRANCH  23  24
HETATM   24  C   UNL     1     -45.695  61.754 -46.655  1.00  0.00     0.136 C 
HETATM   25  C   UNL     1     -46.134  60.333 -46.279  1.00  0.00     0.048 C 
HETATM   26  C   UNL     1     -46.937  62.635 -46.906  1.00  0.00     0.048 C 
BRANCH  24  27
HETATM   27  N   UNL     1     -44.890  62.389 -45.441  1.00  0.00    -0.061 N 
HETATM   28  H   UNL     1     -44.060  62.823 -45.869  1.00  0.00     0.280 HD
HETATM   29  C   UNL     1     -45.615  63.512 -44.707  1.00  0.00     0.236 C 
HETATM   30  C   UNL     1     -44.663  64.195 -43.734  1.00  0.00     0.028 C 
HETATM   31  C   UNL     1     -44.072  63.209 -42.737  1.00  0.00     0.003 C 
HETATM   32  C   UNL     1     -43.414  62.044 -43.459  1.00  0.00     0.028 C 
HETATM   33  C   UNL     1     -44.369  61.367 -44.434  1.00  0.00     0.236 C 
ENDBRANCH  24  27
ENDBRANCH  23  24
ENDBRANCH   1  23
TORSDOF 7
ENDMDL
MODEL 5
REMARK VINA RESULT:      -7.0      3.124      5.630
REMARK  7 active torsions:
REMARK  status: ('A' for Active; 'I' for Inactive)
REMARK    1  A    between atoms: C_2  and  N_3 
REMARK    2  A    between atoms: C_2  and  C_10 
REMARK    3  A    between atoms: C_10  and  N_11 
REMARK       I    between atoms: N_11  and  C_12 
REMARK       I    between atoms: C_12  and  N_13 
REMARK    4  A    between atoms: N_13  and  C_14 
REMARK    5  A    between atoms: C_14  and  C_15 
REMARK    6  A    between atoms: C_18  and  N_19 
REMARK       I    between atoms: N_19  and  C_20 
REMARK    7  A    between atoms: C_20  and  C_21 
ROOT
HETATM    1  N   UNL     1     -44.332  59.842 -54.055  1.00  0.00    -0.341 N 
HETATM    2  C   UNL     1     -44.234  58.609 -54.647  1.00  0.00     0.316 C 
HETATM    3  N   UNL     1     -43.264  58.562 -55.602  1.00  0.00    -0.339 N 
HETATM    4  O   UNL     1     -44.988  57.688 -54.367  1.00  0.00    -0.248 OA
HETATM    5  H   UNL     1     -43.515  60.435 -54.115  1.00  0.00     0.164 HD
HETATM    6  H   UNL     1     -42.577  59.295 -55.670  1.00  0.00     0.164 HD
ENDROOT
BRANCH   3   7
HETATM    7  C   UNL     1     -43.024  57.363 -56.381  1.00  0.00     0.162 C 
BRANCH   7   8
HETATM    8  C   UNL     1     -42.394  56.226 -55.612  1.00  0.00    -0.040 A 
HETATM    9  C   UNL     1     -41.185  56.340 -54.915  1.00  0.00     0.011 A 
HETATM   10  C   UNL     1     -40.673  55.264 -54.176  1.00  0.00     0.030 A 
HETATM   11  C   UNL     1     -41.368  54.057 -54.105  1.00  0.00     0.035 A 
HETATM   12  C   UNL     1     -42.576  53.936 -54.796  1.00  0.00     0.030 A 
HETATM   13  C   UNL     1     -43.083  55.007 -55.540  1.00  0.00     0.011 A 
BRANCH  11  14
HETATM   14  N   UNL     1     -40.944  52.946 -53.354  1.00  0.00    -0.321 N 
HETATM   15  C   UNL     1     -40.197  51.858 -53.769  1.00  0.00     0.279 C 
HETATM   16  O   UNL     1     -39.815  51.652 -54.916  1.00  0.00    -0.265 OA
HETATM   17  H   UNL     1     -41.190  52.933 -52.368  1.00  0.00     0.169 HD
BRANCH  15  18
HETATM   18  C   UNL     1     -39.895  50.947 -52.678  1.00  0.00     0.142 A 
HETATM   19  O   UNL     1     -39.690  49.617 -52.950  1.00  0.00    -0.317 OA
HETATM   20  C   UNL     1     -39.445  48.999 -51.764  1.00  0.00     0.143 A 
HETATM   21  C   UNL     1     -39.483  49.904 -50.731  1.00  0.00     0.027 A 
HETATM   22  C   UNL     1     -39.772  51.160 -51.317  1.00  0.00     0.045 A 
ENDBRANCH  15  18
ENDBRANCH  11  14
ENDBRANCH   7   8
ENDBRANCH   3   7
BRANCH   1  23
HETATM   23  C   UNL     1     -45.279  60.062 -52.974  1.00  0.00     0.162 C 
BRANCH  23  24
HETATM   24  C   UNL     1     -44.760  59.724 -51.526  1.00  0.00     0.136 C 
HETATM   25  C   UNL     1     -45.886  59.377 -50.544  1.00  0.00     0.048 C 
HETATM   26  C   UNL     1     -43.969  60.942 -51.002  1.00  0.00     0.048 C 
BRANCH  24  27
HETATM   27  N   UNL     1     -43.754  58.498 -51.619  1.00  0.00    -0.061 N 
HETATM   28  H   UNL     1     -43.625  58.335 -52.627  1.00  0.00     0.280 HD
HETATM   29  C   UNL     1     -42.361  58.768 -51.059  1.00  0.00     0.236 C 
HETATM   30  C   UNL     1     -41.426  57.619 -51.418  1.00  0.00     0.028 C 
HETATM   31  C   UNL     1     -41.951  56.286 -50.907  1.00  0.00     0.003 C 
HETATM   32  C   UNL     1     -43.370  56.043 -51.395  1.00  0.00     0.028 C 
HETATM   33  C   UNL     1     -44.299  57.197 -51.038  1.00  0.00     0.236 C 
ENDBRANCH  24  27
ENDBRANCH  23  24
ENDBRANCH   1  23
TORSDOF 7
ENDMDL
MODEL 6
REMARK VINA RESULT:      -6.8      5.476     10.008
REMARK  7 active torsions:
REMARK  status: ('A' for Active; 'I' for Inactive)
REMARK    1  A    between atoms: C_2  and  N_3 
REMARK    2  A    between atoms: C_2  and  C_10 
REMARK    3  A    between atoms: C_10  and  N_11 
REMARK       I    between atoms: N_11  and  C_12 
REMARK       I    between atoms: C_12  and  N_13 
REMARK    4  A    between atoms: N_13  and  C_14 
REMARK    5  A    between atoms: C_14  and  C_15 
REMARK    6  A    between atoms: C_18  and  N_19 
REMARK       I    between atoms: N_19  and  C_20 
REMARK    7  A    between atoms: C_20  and  C_21 
ROOT
HETATM    1  N   UNL     1     -41.653  56.546 -54.361  1.00  0.00    -0.341 N 
HETATM    2  C   UNL     1     -41.303  57.825 -54.012  1.00  0.00     0.316 C 
HETATM    3  N   UNL     1     -42.193  58.754 -54.463  1.00  0.00    -0.339 N 
HETATM    4  O   UNL     1     -40.269  58.079 -53.410  1.00  0.00    -0.248 OA
HETATM    5  H   UNL     1     -42.629  56.391 -54.579  1.00  0.00     0.164 HD
HETATM    6  H   UNL     1     -43.096  58.471 -54.806  1.00  0.00     0.164 HD
ENDROOT
BRANCH   3   7
HETATM    7  C   UNL     1     -41.988  60.171 -54.241  1.00  0.00     0.162 C 
BRANCH   7   8
HETATM    8  C   UNL     1     -42.720  60.736 -53.047  1.00  0.00    -0.040 A 
HETATM    9  C   UNL     1     -43.879  61.515 -53.148  1.00  0.00     0.011 A 
HETATM   10  C   UNL     1     -44.546  61.970 -52.002  1.00  0.00     0.030 A 
HETATM   11  C   UNL     1     -44.078  61.642 -50.731  1.00  0.00     0.035 A 
HETATM   12  C   UNL     1     -42.923  60.864 -50.621  1.00  0.00     0.030 A 
HETATM   13  C   UNL     1     -42.252  60.415 -51.765  1.00  0.00     0.011 A 
BRANCH  11  14
HETATM   14  N   UNL     1     -44.711  62.023 -49.534  1.00  0.00    -0.321 N 
HETATM   15  C   UNL     1     -45.534  61.272 -48.715  1.00  0.00     0.279 C 
HETATM   16  O   UNL     1     -45.902  60.122 -48.937  1.00  0.00    -0.265 OA
HETATM   17  H   UNL     1     -44.535  62.965 -49.198  1.00  0.00     0.169 HD
BRANCH  15  18
HETATM   18  C   UNL     1     -45.936  61.995 -47.522  1.00  0.00     0.142 A 
HETATM   19  O   UNL     1     -47.192  61.794 -47.003  1.00  0.00    -0.317 OA
HETATM   20  C   UNL     1     -47.309  62.597 -45.913  1.00  0.00     0.143 A 
HETATM   21  C   UNL     1     -46.152  63.311 -45.713  1.00  0.00     0.027 A 
HETATM   22  C   UNL     1     -45.266  62.925 -46.748  1.00  0.00     0.045 A 
ENDBRANCH  15  18
ENDBRANCH  11  14
ENDBRANCH   7   8
ENDBRANCH   3   7
BRANCH   1  23
HETATM   23  C   UNL     1     -40.847  55.421 -53.917  1.00  0.00     0.162 C 
BRANCH  23  24
HETATM   24  C   UNL     1     -41.645  54.168 -53.391  1.00  0.00     0.136 C 
HETATM   25  C   UNL     1     -41.251  52.862 -54.092  1.00  0.00     0.048 C 
HETATM   26  C   UNL     1     -43.151  54.437 -53.596  1.00  0.00     0.048 C 
BRANCH  24  27
HETATM   27  N   UNL     1     -41.388  54.020 -51.830  1.00  0.00    -0.061 N 
HETATM   28  H   UNL     1     -42.246  53.591 -51.458  1.00  0.00     0.280 HD
HETATM   29  C   UNL     1     -40.252  53.075 -51.454  1.00  0.00     0.236 C 
HETATM   30  C   UNL     1     -40.258  52.829 -49.950  1.00  0.00     0.028 C 
HETATM   31  C   UNL     1     -40.143  54.129 -49.167  1.00  0.00     0.003 C 
HETATM   32  C   UNL     1     -41.225  55.109 -49.592  1.00  0.00     0.028 C 
HETATM   33  C   UNL     1     -41.218  55.347 -51.097  1.00  0.00     0.236 C 
ENDBRANCH  24  27
ENDBRANCH  23  24
ENDBRANCH   1  23
TORSDOF 7
ENDMDL
MODEL 7
REMARK VINA RESULT:      -6.8      3.026     10.483
REMARK  7 active torsions:
REMARK  status: ('A' for Active; 'I' for Inactive)
REMARK    1  A    between atoms: C_2  and  N_3 
REMARK    2  A    between atoms: C_2  and  C_10 
REMARK    3  A    between atoms: C_10  and  N_11 
REMARK       I    between atoms: N_11  and  C_12 
REMARK       I    between atoms: C_12  and  N_13 
REMARK    4  A    between atoms: N_13  and  C_14 
REMARK    5  A    between atoms: C_14  and  C_15 
REMARK    6  A    between atoms: C_18  and  N_19 
REMARK       I    between atoms: N_19  and  C_20 
REMARK    7  A    between atoms: C_20  and  C_21 
ROOT
HETATM    1  N   UNL     1     -43.261  55.791 -54.555  1.00  0.00    -0.341 N 
HETATM    2  C   UNL     1     -43.274  55.090 -55.734  1.00  0.00     0.316 C 
HETATM    3  N   UNL     1     -43.213  55.901 -56.827  1.00  0.00    -0.339 N 
HETATM    4  O   UNL     1     -43.388  53.872 -55.769  1.00  0.00    -0.248 OA
HETATM    5  H   UNL     1     -42.874  56.725 -54.593  1.00  0.00     0.164 HD
HETATM    6  H   UNL     1     -42.959  56.870 -56.730  1.00  0.00     0.164 HD
ENDROOT
BRANCH   3   7
HETATM    7  C   UNL     1     -43.260  55.364 -58.172  1.00  0.00     0.162 C 
BRANCH   7   8
HETATM    8  C   UNL     1     -44.326  55.968 -59.056  1.00  0.00    -0.040 A 
HETATM    9  C   UNL     1     -44.985  55.259 -60.067  1.00  0.00     0.011 A 
HETATM   10  C   UNL     1     -46.003  55.857 -60.823  1.00  0.00     0.030 A 
HETATM   11  C   UNL     1     -46.396  57.171 -60.571  1.00  0.00     0.035 A 
HETATM   12  C   UNL     1     -45.744  57.885 -59.563  1.00  0.00     0.030 A 
HETATM   13  C   UNL     1     -44.722  57.291 -58.813  1.00  0.00     0.011 A 
BRANCH  11  14
HETATM   14  N   UNL     1     -47.434  57.829 -61.255  1.00  0.00    -0.321 N 
HETATM   15  C   UNL     1     -48.280  57.328 -62.228  1.00  0.00     0.279 C 
HETATM   16  O   UNL     1     -48.225  56.200 -62.708  1.00  0.00    -0.265 OA
HETATM   17  H   UNL     1     -47.617  58.795 -60.999  1.00  0.00     0.169 HD
BRANCH  15  18
HETATM   18  C   UNL     1     -49.280  58.297 -62.643  1.00  0.00     0.142 A 
HETATM   19  O   UNL     1     -50.610  57.965 -62.568  1.00  0.00    -0.317 OA
HETATM   20  C   UNL     1     -51.315  59.032 -63.028  1.00  0.00     0.143 A 
HETATM   21  C   UNL     1     -50.468  60.049 -63.394  1.00  0.00     0.027 A 
HETATM   22  C   UNL     1     -49.156  59.579 -63.147  1.00  0.00     0.045 A 
ENDBRANCH  15  18
ENDBRANCH  11  14
ENDBRANCH   7   8
ENDBRANCH   3   7
BRANCH   1  23
HETATM   23  C   UNL     1     -43.265  55.086 -53.284  1.00  0.00     0.162 C 
BRANCH  23  24
HETATM   24  C   UNL     1     -41.911  55.109 -52.479  1.00  0.00     0.136 C 
HETATM   25  C   UNL     1     -42.091  55.488 -51.004  1.00  0.00     0.048 C 
HETATM   26  C   UNL     1     -40.962  56.115 -53.165  1.00  0.00     0.048 C 
BRANCH  24  27
HETATM   27  N   UNL     1     -41.241  53.672 -52.570  1.00  0.00    -0.061 N 
HETATM   28  H   UNL     1     -42.024  53.008 -52.510  1.00  0.00     0.280 HD
HETATM   29  C   UNL     1     -40.541  53.373 -53.892  1.00  0.00     0.236 C 
HETATM   30  C   UNL     1     -40.153  51.901 -53.952  1.00  0.00     0.028 C 
HETATM   31  C   UNL     1     -39.262  51.506 -52.784  1.00  0.00     0.003 C 
HETATM   32  C   UNL     1     -39.917  51.872 -51.461  1.00  0.00     0.028 C 
HETATM   33  C   UNL     1     -40.308  53.343 -51.408  1.00  0.00     0.236 C 
ENDBRANCH  24  27
ENDBRANCH  23  24
ENDBRANCH   1  23
TORSDOF 7
ENDMDL
MODEL 8
REMARK VINA RESULT:      -6.8     16.484     20.161
REMARK  7 active torsions:
REMARK  status: ('A' for Active; 'I' for Inactive)
REMARK    1  A    between atoms: C_2  and  N_3 
REMARK    2  A    between atoms: C_2  and  C_10 
REMARK    3  A    between atoms: C_10  and  N_11 
REMARK       I    between atoms: N_11  and  C_12 
REMARK       I    between atoms: C_12  and  N_13 
REMARK    4  A    between atoms: N_13  and  C_14 
REMARK    5  A    between atoms: C_14  and  C_15 
REMARK    6  A    between atoms: C_18  and  N_19 
REMARK       I    between atoms: N_19  and  C_20 
REMARK    7  A    between atoms: C_20  and  C_21 
ROOT
HETATM    1  N   UNL     1     -34.924  40.500 -53.496  1.00  0.00    -0.341 N 
HETATM    2  C   UNL     1     -34.484  40.829 -54.753  1.00  0.00     0.316 C 
HETATM    3  N   UNL     1     -35.336  41.670 -55.403  1.00  0.00    -0.339 N 
HETATM    4  O   UNL     1     -33.462  40.357 -55.232  1.00  0.00    -0.248 OA
HETATM    5  H   UNL     1     -35.585  41.137 -53.071  1.00  0.00     0.164 HD
HETATM    6  H   UNL     1     -36.067  42.145 -54.900  1.00  0.00     0.164 HD
ENDROOT
BRANCH   3   7
HETATM    7  C   UNL     1     -35.081  42.106 -56.762  1.00  0.00     0.162 C 
BRANCH   7   8
HETATM    8  C   UNL     1     -35.826  41.331 -57.823  1.00  0.00    -0.040 A 
HETATM    9  C   UNL     1     -35.630  39.966 -58.065  1.00  0.00     0.011 A 
HETATM   10  C   UNL     1     -36.388  39.287 -59.030  1.00  0.00     0.030 A 
HETATM   11  C   UNL     1     -37.369  39.956 -59.762  1.00  0.00     0.035 A 
HETATM   12  C   UNL     1     -37.571  41.318 -59.526  1.00  0.00     0.030 A 
HETATM   13  C   UNL     1     -36.810  41.997 -58.568  1.00  0.00     0.011 A 
BRANCH  11  14
HETATM   14  N   UNL     1     -38.197  39.340 -60.717  1.00  0.00    -0.321 N 
HETATM   15  C   UNL     1     -39.106  38.312 -60.537  1.00  0.00     0.279 C 
HETATM   16  O   UNL     1     -39.304  37.713 -59.485  1.00  0.00    -0.265 OA
HETATM   17  H   UNL     1     -38.154  39.698 -61.666  1.00  0.00     0.169 HD
BRANCH  15  18
HETATM   18  C   UNL     1     -39.832  37.997 -61.755  1.00  0.00     0.142 A 
HETATM   19  O   UNL     1     -41.183  38.237 -61.814  1.00  0.00    -0.317 OA
HETATM   20  C   UNL     1     -41.607  37.841 -63.043  1.00  0.00     0.143 A 
HETATM   21  C   UNL     1     -40.555  37.353 -63.782  1.00  0.00     0.027 A 
HETATM   22  C   UNL     1     -39.411  37.453 -62.955  1.00  0.00     0.045 A 
ENDBRANCH  15  18
ENDBRANCH  11  14
ENDBRANCH   7   8
ENDBRANCH   3   7
BRANCH   1  23
HETATM   23  C   UNL     1     -34.114  39.654 -52.636  1.00  0.00     0.162 C 
BRANCH  23  24
HETATM   24  C   UNL     1     -33.385  40.382 -51.444  1.00  0.00     0.136 C 
HETATM   25  C   UNL     1     -34.113  41.646 -50.970  1.00  0.00     0.048 C 
HETATM   26  C   UNL     1     -31.956  40.744 -51.903  1.00  0.00     0.048 C 
BRANCH  24  27
HETATM   27  N   UNL     1     -33.259  39.367 -50.228  1.00  0.00    -0.061 N 
HETATM   28  H   UNL     1     -32.858  38.512 -50.635  1.00  0.00     0.280 HD
HETATM   29  C   UNL     1     -32.294  39.799 -49.129  1.00  0.00     0.236 C 
HETATM   30  C   UNL     1     -32.076  38.652 -48.150  1.00  0.00     0.028 C 
HETATM   31  C   UNL     1     -33.387  38.174 -47.542  1.00  0.00     0.003 C 
HETATM   32  C   UNL     1     -34.385  37.815 -48.632  1.00  0.00     0.028 C 
HETATM   33  C   UNL     1     -34.595  38.963 -49.611  1.00  0.00     0.236 C 
ENDBRANCH  24  27
ENDBRANCH  23  24
ENDBRANCH   1  23
TORSDOF 7
ENDMDL
MODEL 9
REMARK VINA RESULT:      -6.7      5.227      8.098
REMARK  7 active torsions:
REMARK  status: ('A' for Active; 'I' for Inactive)
REMARK    1  A    between atoms: C_2  and  N_3 
REMARK    2  A    between atoms: C_2  and  C_10 
REMARK    3  A    between atoms: C_10  and  N_11 
REMARK       I    between atoms: N_11  and  C_12 
REMARK       I    between atoms: C_12  and  N_13 
REMARK    4  A    between atoms: N_13  and  C_14 
REMARK    5  A    between atoms: C_14  and  C_15 
REMARK    6  A    between atoms: C_18  and  N_19 
REMARK       I    between atoms: N_19  and  C_20 
REMARK    7  A    between atoms: C_20  and  C_21 
ROOT
HETATM    1  N   UNL     1     -45.154  60.095 -50.504  1.00  0.00    -0.341 N 
HETATM    2  C   UNL     1     -44.360  59.927 -51.609  1.00  0.00     0.316 C 
HETATM    3  N   UNL     1     -44.878  59.032 -52.496  1.00  0.00    -0.339 N 
HETATM    4  O   UNL     1     -43.281  60.490 -51.731  1.00  0.00    -0.248 OA
HETATM    5  H   UNL     1     -46.129  59.844 -50.609  1.00  0.00     0.164 HD
HETATM    6  H   UNL     1     -45.836  58.730 -52.416  1.00  0.00     0.164 HD
ENDROOT
BRANCH   3   7
HETATM    7  C   UNL     1     -44.175  58.674 -53.711  1.00  0.00     0.162 C 
BRANCH   7   8
HETATM    8  C   UNL     1     -43.392  57.386 -53.632  1.00  0.00    -0.040 A 
HETATM    9  C   UNL     1     -42.117  57.289 -53.061  1.00  0.00     0.011 A 
HETATM   10  C   UNL     1     -41.458  56.054 -52.969  1.00  0.00     0.030 A 
HETATM   11  C   UNL     1     -42.067  54.888 -53.431  1.00  0.00     0.035 A 
HETATM   12  C   UNL     1     -43.340  54.976 -54.001  1.00  0.00     0.030 A 
HETATM   13  C   UNL     1     -43.995  56.209 -54.100  1.00  0.00     0.011 A 
BRANCH  11  14
HETATM   14  N   UNL     1     -41.492  53.608 -53.339  1.00  0.00    -0.321 N 
HETATM   15  C   UNL     1     -40.555  53.021 -54.169  1.00  0.00     0.279 C 
HETATM   16  O   UNL     1     -40.096  53.522 -55.191  1.00  0.00    -0.265 OA
HETATM   17  H   UNL     1     -41.773  53.031 -52.551  1.00  0.00     0.169 HD
BRANCH  15  18
HETATM   18  C   UNL     1     -40.147  51.707 -53.702  1.00  0.00     0.142 A 
HETATM   19  O   UNL     1     -39.850  51.529 -52.373  1.00  0.00    -0.317 OA
HETATM   20  C   UNL     1     -39.487  50.229 -52.215  1.00  0.00     0.143 A 
HETATM   21  C   UNL     1     -39.549  49.561 -53.415  1.00  0.00     0.027 A 
HETATM   22  C   UNL     1     -39.974  50.512 -54.374  1.00  0.00     0.045 A 
ENDBRANCH  15  18
ENDBRANCH  11  14
ENDBRANCH   7   8
ENDBRANCH   3   7
BRANCH   1  23
HETATM   23  C   UNL     1     -44.784  61.054 -49.476  1.00  0.00     0.162 C 
BRANCH  23  24
HETATM   24  C   UNL     1     -45.369  62.506 -49.648  1.00  0.00     0.136 C 
HETATM   25  C   UNL     1     -46.564  62.568 -50.608  1.00  0.00     0.048 C 
HETATM   26  C   UNL     1     -44.238  63.422 -50.163  1.00  0.00     0.048 C 
BRANCH  24  27
HETATM   27  N   UNL     1     -45.817  63.046 -48.223  1.00  0.00    -0.061 N 
HETATM   28  H   UNL     1     -45.405  63.986 -48.152  1.00  0.00     0.280 HD
HETATM   29  C   UNL     1     -47.321  63.235 -48.052  1.00  0.00     0.236 C 
HETATM   30  C   UNL     1     -47.607  63.975 -46.751  1.00  0.00     0.028 C 
HETATM   31  C   UNL     1     -47.028  63.243 -45.549  1.00  0.00     0.003 C 
HETATM   32  C   UNL     1     -45.544  62.980 -45.744  1.00  0.00     0.028 C 
HETATM   33  C   UNL     1     -45.263  62.244 -47.048  1.00  0.00     0.236 C 
ENDBRANCH  24  27
ENDBRANCH  23  24
ENDBRANCH   1  23
TORSDOF 7
ENDMDL
MODEL 10
REMARK VINA RESULT:      -6.7      2.512      3.455
REMARK  7 active torsions:
REMARK  status: ('A' for Active; 'I' for Inactive)
REMARK    1  A    between atoms: C_2  and  N_3 
REMARK    2  A    between atoms: C_2  and  C_10 
REMARK    3  A    between atoms: C_10  and  N_11 
REMARK       I    between atoms: N_11  and  C_12 
REMARK       I    between atoms: C_12  and  N_13 
REMARK    4  A    between atoms: N_13  and  C_14 
REMARK    5  A    between atoms: C_14  and  C_15 
REMARK    6  A    between atoms: C_18  and  N_19 
REMARK       I    between atoms: N_19  and  C_20 
REMARK    7  A    between atoms: C_20  and  C_21 
ROOT
HETATM    1  N   UNL     1     -42.867  61.193 -55.051  1.00  0.00    -0.341 N 
HETATM    2  C   UNL     1     -43.170  60.399 -53.976  1.00  0.00     0.316 C 
HETATM    3  N   UNL     1     -42.153  60.327 -53.073  1.00  0.00    -0.339 N 
HETATM    4  O   UNL     1     -44.227  59.788 -53.892  1.00  0.00    -0.248 OA
HETATM    5  H   UNL     1     -42.134  61.877 -54.912  1.00  0.00     0.164 HD
HETATM    6  H   UNL     1     -41.383  60.975 -53.118  1.00  0.00     0.164 HD
ENDROOT
BRANCH   3   7
HETATM    7  C   UNL     1     -42.250  59.504 -51.884  1.00  0.00     0.162 C 
BRANCH   7   8
HETATM    8  C   UNL     1     -41.825  58.067 -52.074  1.00  0.00    -0.040 A 
HETATM    9  C   UNL     1     -41.897  57.099 -51.066  1.00  0.00     0.011 A 
HETATM   10  C   UNL     1     -41.537  55.767 -51.315  1.00  0.00     0.030 A 
HETATM   11  C   UNL     1     -41.112  55.372 -52.583  1.00  0.00     0.035 A 
HETATM   12  C   UNL     1     -41.038  56.333 -53.596  1.00  0.00     0.030 A 
HETATM   13  C   UNL     1     -41.391  57.663 -53.345  1.00  0.00     0.011 A 
BRANCH  11  14
HETATM   14  N   UNL     1     -40.772  54.052 -52.925  1.00  0.00    -0.321 N 
HETATM   15  C   UNL     1     -40.180  53.081 -52.137  1.00  0.00     0.279 C 
HETATM   16  O   UNL     1     -39.793  53.238 -50.983  1.00  0.00    -0.265 OA
HETATM   17  H   UNL     1     -41.003  53.743 -53.865  1.00  0.00     0.169 HD
BRANCH  15  18
HETATM   18  C   UNL     1     -40.056  51.808 -52.827  1.00  0.00     0.142 A 
HETATM   19  O   UNL     1     -39.582  50.716 -52.144  1.00  0.00    -0.317 OA
HETATM   20  C   UNL     1     -39.553  49.677 -53.019  1.00  0.00     0.143 A 
HETATM   21  C   UNL     1     -40.004  50.075 -54.255  1.00  0.00     0.027 A 
HETATM   22  C   UNL     1     -40.329  51.447 -54.134  1.00  0.00     0.045 A 
ENDBRANCH  15  18
ENDBRANCH  11  14
ENDBRANCH   7   8
ENDBRANCH   3   7
BRANCH   1  23
HETATM   23  C   UNL     1     -43.856  61.429 -56.090  1.00  0.00     0.162 C 
BRANCH  23  24
HETATM   24  C   UNL     1     -43.483  60.903 -57.527  1.00  0.00     0.136 C 
HETATM   25  C   UNL     1     -42.007  61.114 -57.885  1.00  0.00     0.048 C 
HETATM   26  C   UNL     1     -44.378  61.632 -58.552  1.00  0.00     0.048 C 
BRANCH  24  27
HETATM   27  N   UNL     1     -43.822  59.353 -57.606  1.00  0.00    -0.061 N 
HETATM   28  H   UNL     1     -44.563  59.206 -56.907  1.00  0.00     0.280 HD
HETATM   29  C   UNL     1     -44.406  58.891 -58.937  1.00  0.00     0.236 C 
HETATM   30  C   UNL     1     -44.909  57.458 -58.813  1.00  0.00     0.028 C 
HETATM   31  C   UNL     1     -43.806  56.511 -58.364  1.00  0.00     0.003 C 
HETATM   32  C   UNL     1     -43.163  57.005 -57.078  1.00  0.00     0.028 C 
HETATM   33  C   UNL     1     -42.667  58.440 -57.206  1.00  0.00     0.236 C 
ENDBRANCH  24  27
ENDBRANCH  23  24
ENDBRANCH   1  23
TORSDOF 7
ENDMDL
