MODEL 1
REMARK VINA RESULT:      -8.7      0.000      0.000
REMARK  5 active torsions:
REMARK  status: ('A' for Active; 'I' for Inactive)
REMARK    1  A    between atoms: C_7  and  S_8 
REMARK    2  A    between atoms: S_8  and  C_9 
REMARK    3  A    between atoms: C_9  and  C_10 
REMARK       I    between atoms: C_10  and  N_11 
REMARK    4  A    between atoms: N_11  and  N_12 
REMARK       I    between atoms: N_12  and  C_13 
REMARK       I    between atoms: C_13  and  N_14 
REMARK    5  A    between atoms: N_14  and  C_15 
ROOT
HETATM    1  C   UNL     1     -43.348  54.826 -54.633  1.00  0.00     0.245 C 
HETATM    2  N   UNL     1     -43.756  56.093 -54.983  1.00  0.00    -0.265 N 
HETATM    3  O   UNL     1     -43.262  53.925 -55.473  1.00  0.00    -0.271 OA
HETATM    4  H   UNL     1     -43.763  56.886 -54.342  1.00  0.00     0.190 HD
ENDROOT
BRANCH   1   5
HETATM    5  C   UNL     1     -42.889  54.617 -53.206  1.00  0.00     0.184 C 
BRANCH   5   6
HETATM    6  S   UNL     1     -41.189  55.176 -52.898  1.00  0.00    -0.118 SA
BRANCH   6   7
HETATM    7  C   UNL     1     -40.557  53.728 -52.139  1.00  0.00     0.035 A 
HETATM    8  C   UNL     1     -40.252  53.596 -50.801  1.00  0.00     0.023 A 
HETATM    9  C   UNL     1     -40.320  54.562 -49.675  1.00  0.00     0.069 C 
HETATM   10  N   UNL     1     -39.833  52.301 -50.613  1.00  0.00    -0.358 N 
HETATM   11  H   UNL     1     -39.546  51.905 -49.729  1.00  0.00     0.166 HD
HETATM   12  C   UNL     1     -39.862  51.602 -51.799  1.00  0.00     0.044 A 
HETATM   13  C   UNL     1     -40.297  52.486 -52.789  1.00  0.00     0.009 A 
HETATM   14  C   UNL     1     -39.537  50.267 -52.065  1.00  0.00     0.030 A 
HETATM   15  C   UNL     1     -40.392  52.011 -54.115  1.00  0.00     0.015 A 
HETATM   16  C   UNL     1     -40.070  50.678 -54.397  1.00  0.00     0.001 A 
HETATM   17  C   UNL     1     -39.652  49.820 -53.384  1.00  0.00     0.002 A 
ENDBRANCH   6   7
ENDBRANCH   5   6
ENDBRANCH   1   5
BRANCH   2  18
HETATM   18  N   UNL     1     -44.012  56.348 -56.341  1.00  0.00    -0.249 N 
HETATM   19  C   UNL     1     -43.137  57.153 -57.017  1.00  0.00     0.339 C 
HETATM   20  N   UNL     1     -43.265  57.230 -58.374  1.00  0.00    -0.308 N 
HETATM   21  O   UNL     1     -42.225  57.758 -56.449  1.00  0.00    -0.245 OA
HETATM   22  H   UNL     1     -42.460  57.682 -58.791  1.00  0.00     0.170 HD
HETATM   23  H   UNL     1     -44.368  55.535 -56.841  1.00  0.00     0.192 HD
BRANCH  20  24
HETATM   24  C   UNL     1     -44.262  56.775 -59.258  1.00  0.00     0.036 A 
HETATM   25  C   UNL     1     -45.491  57.411 -59.460  1.00  0.00     0.029 A 
HETATM   26  C   UNL     1     -46.438  56.865 -60.333  1.00  0.00     0.002 A 
HETATM   27  C   UNL     1     -46.157  55.694 -61.029  1.00  0.00     0.000 A 
HETATM   28  C   UNL     1     -44.920  55.076 -60.870  1.00  0.00     0.002 A 
HETATM   29  C   UNL     1     -43.974  55.622 -59.998  1.00  0.00     0.029 A 
ENDBRANCH  20  24
ENDBRANCH   2  18
TORSDOF 5
ENDMDL
MODEL 2
REMARK VINA RESULT:      -8.2      1.825      2.335
REMARK  5 active torsions:
REMARK  status: ('A' for Active; 'I' for Inactive)
REMARK    1  A    between atoms: C_7  and  S_8 
REMARK    2  A    between atoms: S_8  and  C_9 
REMARK    3  A    between atoms: C_9  and  C_10 
REMARK       I    between atoms: C_10  and  N_11 
REMARK    4  A    between atoms: N_11  and  N_12 
REMARK       I    between atoms: N_12  and  C_13 
REMARK       I    between atoms: C_13  and  N_14 
REMARK    5  A    between atoms: N_14  and  C_15 
ROOT
HETATM    1  C   UNL     1     -41.865  57.140 -53.899  1.00  0.00     0.245 C 
HETATM    2  N   UNL     1     -41.571  56.250 -54.906  1.00  0.00    -0.265 N 
HETATM    3  O   UNL     1     -42.492  58.180 -54.124  1.00  0.00    -0.271 OA
HETATM    4  H   UNL     1     -41.129  55.343 -54.754  1.00  0.00     0.190 HD
ENDROOT
BRANCH   1   5
HETATM    5  C   UNL     1     -41.502  56.731 -52.487  1.00  0.00     0.184 C 
BRANCH   5   6
HETATM    6  S   UNL     1     -42.614  55.482 -51.781  1.00  0.00    -0.118 SA
BRANCH   6   7
HETATM    7  C   UNL     1     -41.432  54.245 -51.402  1.00  0.00     0.035 A 
HETATM    8  C   UNL     1     -40.870  54.030 -50.161  1.00  0.00     0.023 A 
HETATM    9  C   UNL     1     -41.042  54.739 -48.866  1.00  0.00     0.069 C 
HETATM   10  N   UNL     1     -40.036  52.945 -50.281  1.00  0.00    -0.358 N 
HETATM   11  H   UNL     1     -39.487  52.547 -49.533  1.00  0.00     0.166 HD
HETATM   12  C   UNL     1     -40.051  52.461 -51.570  1.00  0.00     0.044 A 
HETATM   13  C   UNL     1     -40.910  53.276 -52.309  1.00  0.00     0.009 A 
HETATM   14  C   UNL     1     -39.371  51.372 -52.130  1.00  0.00     0.030 A 
HETATM   15  C   UNL     1     -41.082  52.997 -53.682  1.00  0.00     0.015 A 
HETATM   16  C   UNL     1     -40.409  51.912 -54.257  1.00  0.00     0.001 A 
HETATM   17  C   UNL     1     -39.569  51.111 -53.488  1.00  0.00     0.002 A 
ENDBRANCH   6   7
ENDBRANCH   5   6
ENDBRANCH   1   5
BRANCH   2  18
HETATM   18  N   UNL     1     -42.062  56.531 -56.193  1.00  0.00    -0.249 N 
HETATM   19  C   UNL     1     -42.866  55.598 -56.788  1.00  0.00     0.339 C 
HETATM   20  N   UNL     1     -43.509  55.957 -57.938  1.00  0.00    -0.308 N 
HETATM   21  O   UNL     1     -43.059  54.485 -56.297  1.00  0.00    -0.245 OA
HETATM   22  H   UNL     1     -44.222  55.281 -58.184  1.00  0.00     0.170 HD
HETATM   23  H   UNL     1     -42.320  57.508 -56.319  1.00  0.00     0.192 HD
BRANCH  20  24
HETATM   24  C   UNL     1     -43.382  57.076 -58.784  1.00  0.00     0.036 A 
HETATM   25  C   UNL     1     -44.262  58.162 -58.797  1.00  0.00     0.029 A 
HETATM   26  C   UNL     1     -44.077  59.215 -59.700  1.00  0.00     0.002 A 
HETATM   27  C   UNL     1     -43.000  59.203 -60.580  1.00  0.00     0.000 A 
HETATM   28  C   UNL     1     -42.092  58.149 -60.546  1.00  0.00     0.002 A 
HETATM   29  C   UNL     1     -42.277  57.098 -59.644  1.00  0.00     0.029 A 
ENDBRANCH  20  24
ENDBRANCH   2  18
TORSDOF 5
ENDMDL
MODEL 3
REMARK VINA RESULT:      -7.9      3.780      7.601
REMARK  5 active torsions:
REMARK  status: ('A' for Active; 'I' for Inactive)
REMARK    1  A    between atoms: C_7  and  S_8 
REMARK    2  A    between atoms: S_8  and  C_9 
REMARK    3  A    between atoms: C_9  and  C_10 
REMARK       I    between atoms: C_10  and  N_11 
REMARK    4  A    between atoms: N_11  and  N_12 
REMARK       I    between atoms: N_12  and  C_13 
REMARK       I    between atoms: C_13  and  N_14 
REMARK    5  A    between atoms: N_14  and  C_15 
ROOT
HETATM    1  C   UNL     1     -43.598  56.182 -53.993  1.00  0.00     0.245 C 
HETATM    2  N   UNL     1     -43.472  55.372 -52.888  1.00  0.00    -0.265 N 
HETATM    3  O   UNL     1     -42.771  56.151 -54.909  1.00  0.00    -0.271 OA
HETATM    4  H   UNL     1     -44.172  55.305 -52.148  1.00  0.00     0.190 HD
ENDROOT
BRANCH   1   5
HETATM    5  C   UNL     1     -44.857  57.017 -54.098  1.00  0.00     0.184 C 
BRANCH   5   6
HETATM    6  S   UNL     1     -44.541  58.800 -54.230  1.00  0.00    -0.118 SA
BRANCH   6   7
HETATM    7  C   UNL     1     -43.755  59.054 -52.683  1.00  0.00     0.035 A 
HETATM    8  C   UNL     1     -44.402  59.251 -51.482  1.00  0.00     0.023 A 
HETATM    9  C   UNL     1     -45.846  59.339 -51.143  1.00  0.00     0.069 C 
HETATM   10  N   UNL     1     -43.430  59.362 -50.518  1.00  0.00    -0.358 N 
HETATM   11  H   UNL     1     -43.601  59.507 -49.532  1.00  0.00     0.166 HD
HETATM   12  C   UNL     1     -42.176  59.240 -51.074  1.00  0.00     0.044 A 
HETATM   13  C   UNL     1     -42.349  59.066 -52.448  1.00  0.00     0.009 A 
HETATM   14  C   UNL     1     -40.915  59.275 -50.467  1.00  0.00     0.030 A 
HETATM   15  C   UNL     1     -41.198  58.937 -53.256  1.00  0.00     0.015 A 
HETATM   16  C   UNL     1     -39.930  58.970 -52.664  1.00  0.00     0.001 A 
HETATM   17  C   UNL     1     -39.794  59.132 -51.288  1.00  0.00     0.002 A 
ENDBRANCH   6   7
ENDBRANCH   5   6
ENDBRANCH   1   5
BRANCH   2  18
HETATM   18  N   UNL     1     -42.404  54.461 -52.861  1.00  0.00    -0.249 N 
HETATM   19  C   UNL     1     -41.327  54.760 -52.072  1.00  0.00     0.339 C 
HETATM   20  N   UNL     1     -40.390  53.785 -51.882  1.00  0.00    -0.308 N 
HETATM   21  O   UNL     1     -41.210  55.845 -51.501  1.00  0.00    -0.245 OA
HETATM   22  H   UNL     1     -39.752  54.033 -51.135  1.00  0.00     0.170 HD
HETATM   23  H   UNL     1     -42.705  53.488 -52.877  1.00  0.00     0.192 HD
BRANCH  20  24
HETATM   24  C   UNL     1     -40.190  52.532 -52.494  1.00  0.00     0.036 A 
HETATM   25  C   UNL     1     -40.398  52.272 -53.851  1.00  0.00     0.029 A 
HETATM   26  C   UNL     1     -40.208  50.985 -54.365  1.00  0.00     0.002 A 
HETATM   27  C   UNL     1     -39.786  49.953 -53.533  1.00  0.00     0.000 A 
HETATM   28  C   UNL     1     -39.532  50.211 -52.188  1.00  0.00     0.002 A 
HETATM   29  C   UNL     1     -39.722  51.496 -51.676  1.00  0.00     0.029 A 
ENDBRANCH  20  24
ENDBRANCH   2  18
TORSDOF 5
ENDMDL
MODEL 4
REMARK VINA RESULT:      -7.8      5.136      6.833
REMARK  5 active torsions:
REMARK  status: ('A' for Active; 'I' for Inactive)
REMARK    1  A    between atoms: C_7  and  S_8 
REMARK    2  A    between atoms: S_8  and  C_9 
REMARK    3  A    between atoms: C_9  and  C_10 
REMARK       I    between atoms: C_10  and  N_11 
REMARK    4  A    between atoms: N_11  and  N_12 
REMARK       I    between atoms: N_12  and  C_13 
REMARK       I    between atoms: C_13  and  N_14 
REMARK    5  A    between atoms: N_14  and  C_15 
ROOT
HETATM    1  C   UNL     1     -43.604  56.555 -51.108  1.00  0.00     0.245 C 
HETATM    2  N   UNL     1     -42.737  57.623 -51.160  1.00  0.00    -0.265 N 
HETATM    3  O   UNL     1     -44.727  56.665 -50.606  1.00  0.00    -0.271 OA
HETATM    4  H   UNL     1     -41.834  57.600 -51.636  1.00  0.00     0.190 HD
ENDROOT
BRANCH   1   5
HETATM    5  C   UNL     1     -43.174  55.281 -51.802  1.00  0.00     0.184 C 
BRANCH   5   6
HETATM    6  S   UNL     1     -41.607  55.435 -52.705  1.00  0.00    -0.118 SA
BRANCH   6   7
HETATM    7  C   UNL     1     -40.773  54.040 -52.049  1.00  0.00     0.035 A 
HETATM    8  C   UNL     1     -40.309  53.923 -50.756  1.00  0.00     0.023 A 
HETATM    9  C   UNL     1     -40.331  54.869 -49.611  1.00  0.00     0.069 C 
HETATM   10  N   UNL     1     -39.763  52.667 -50.640  1.00  0.00    -0.358 N 
HETATM   11  H   UNL     1     -39.346  52.289 -49.801  1.00  0.00     0.166 HD
HETATM   12  C   UNL     1     -39.867  51.979 -51.828  1.00  0.00     0.044 A 
HETATM   13  C   UNL     1     -40.484  52.831 -52.747  1.00  0.00     0.009 A 
HETATM   14  C   UNL     1     -39.462  50.679 -52.153  1.00  0.00     0.030 A 
HETATM   15  C   UNL     1     -40.688  52.361 -54.062  1.00  0.00     0.015 A 
HETATM   16  C   UNL     1     -40.288  51.063 -54.404  1.00  0.00     0.001 A 
HETATM   17  C   UNL     1     -39.688  50.236 -53.459  1.00  0.00     0.002 A 
ENDBRANCH   6   7
ENDBRANCH   5   6
ENDBRANCH   1   5
BRANCH   2  18
HETATM   18  N   UNL     1     -43.192  58.862 -50.681  1.00  0.00    -0.249 N 
HETATM   19  C   UNL     1     -42.309  59.906 -50.666  1.00  0.00     0.339 C 
HETATM   20  N   UNL     1     -42.803  61.151 -50.402  1.00  0.00    -0.308 N 
HETATM   21  O   UNL     1     -41.114  59.762 -50.928  1.00  0.00    -0.245 OA
HETATM   22  H   UNL     1     -42.118  61.868 -50.611  1.00  0.00     0.170 HD
HETATM   23  H   UNL     1     -44.149  59.074 -50.961  1.00  0.00     0.192 HD
BRANCH  20  24
HETATM   24  C   UNL     1     -44.060  61.594 -49.946  1.00  0.00     0.036 A 
HETATM   25  C   UNL     1     -44.461  61.596 -48.607  1.00  0.00     0.029 A 
HETATM   26  C   UNL     1     -45.745  62.020 -48.250  1.00  0.00     0.002 A 
HETATM   27  C   UNL     1     -46.632  62.468 -49.224  1.00  0.00     0.000 A 
HETATM   28  C   UNL     1     -46.229  62.513 -50.556  1.00  0.00     0.002 A 
HETATM   29  C   UNL     1     -44.946  62.089 -50.911  1.00  0.00     0.029 A 
ENDBRANCH  20  24
ENDBRANCH   2  18
TORSDOF 5
ENDMDL
MODEL 5
REMARK VINA RESULT:      -7.7      2.021      2.566
REMARK  5 active torsions:
REMARK  status: ('A' for Active; 'I' for Inactive)
REMARK    1  A    between atoms: C_7  and  S_8 
REMARK    2  A    between atoms: S_8  and  C_9 
REMARK    3  A    between atoms: C_9  and  C_10 
REMARK       I    between atoms: C_10  and  N_11 
REMARK    4  A    between atoms: N_11  and  N_12 
REMARK       I    between atoms: N_12  and  C_13 
REMARK       I    between atoms: C_13  and  N_14 
REMARK    5  A    between atoms: N_14  and  C_15 
ROOT
HETATM    1  C   UNL     1     -42.424  57.226 -52.745  1.00  0.00     0.245 C 
HETATM    2  N   UNL     1     -41.512  57.563 -53.719  1.00  0.00    -0.265 N 
HETATM    3  O   UNL     1     -43.626  57.105 -53.005  1.00  0.00    -0.271 OA
HETATM    4  H   UNL     1     -40.503  57.593 -53.569  1.00  0.00     0.190 HD
ENDROOT
BRANCH   1   5
HETATM    5  C   UNL     1     -41.878  56.886 -51.375  1.00  0.00     0.184 C 
BRANCH   5   6
HETATM    6  S   UNL     1     -42.724  55.491 -50.579  1.00  0.00    -0.118 SA
BRANCH   6   7
HETATM    7  C   UNL     1     -41.499  54.259 -50.813  1.00  0.00     0.035 A 
HETATM    8  C   UNL     1     -40.668  53.763 -49.830  1.00  0.00     0.023 A 
HETATM    9  C   UNL     1     -40.528  54.107 -48.392  1.00  0.00     0.069 C 
HETATM   10  N   UNL     1     -39.895  52.788 -50.415  1.00  0.00    -0.358 N 
HETATM   11  H   UNL     1     -39.192  52.240 -49.940  1.00  0.00     0.166 HD
HETATM   12  C   UNL     1     -40.213  52.649 -51.748  1.00  0.00     0.044 A 
HETATM   13  C   UNL     1     -41.211  53.582 -52.034  1.00  0.00     0.009 A 
HETATM   14  C   UNL     1     -39.693  51.776 -52.710  1.00  0.00     0.030 A 
HETATM   15  C   UNL     1     -41.699  53.655 -53.357  1.00  0.00     0.015 A 
HETATM   16  C   UNL     1     -41.189  52.788 -54.332  1.00  0.00     0.001 A 
HETATM   17  C   UNL     1     -40.202  51.861 -54.008  1.00  0.00     0.002 A 
ENDBRANCH   6   7
ENDBRANCH   5   6
ENDBRANCH   1   5
BRANCH   2  18
HETATM   18  N   UNL     1     -41.981  57.704 -55.036  1.00  0.00    -0.249 N 
HETATM   19  C   UNL     1     -42.134  58.971 -55.528  1.00  0.00     0.339 C 
HETATM   20  N   UNL     1     -42.385  59.107 -56.863  1.00  0.00    -0.308 N 
HETATM   21  O   UNL     1     -42.004  59.972 -54.822  1.00  0.00    -0.245 OA
HETATM   22  H   UNL     1     -42.281  60.070 -57.158  1.00  0.00     0.170 HD
HETATM   23  H   UNL     1     -41.602  57.006 -55.674  1.00  0.00     0.192 HD
BRANCH  20  24
HETATM   24  C   UNL     1     -42.711  58.172 -57.865  1.00  0.00     0.036 A 
HETATM   25  C   UNL     1     -43.833  57.338 -57.835  1.00  0.00     0.029 A 
HETATM   26  C   UNL     1     -44.057  56.412 -58.859  1.00  0.00     0.002 A 
HETATM   27  C   UNL     1     -43.178  56.327 -59.933  1.00  0.00     0.000 A 
HETATM   28  C   UNL     1     -42.082  57.184 -59.997  1.00  0.00     0.002 A 
HETATM   29  C   UNL     1     -41.858  58.108 -58.974  1.00  0.00     0.029 A 
ENDBRANCH  20  24
ENDBRANCH   2  18
TORSDOF 5
ENDMDL
MODEL 6
REMARK VINA RESULT:      -7.7      5.542      7.854
REMARK  5 active torsions:
REMARK  status: ('A' for Active; 'I' for Inactive)
REMARK    1  A    between atoms: C_7  and  S_8 
REMARK    2  A    between atoms: S_8  and  C_9 
REMARK    3  A    between atoms: C_9  and  C_10 
REMARK       I    between atoms: C_10  and  N_11 
REMARK    4  A    between atoms: N_11  and  N_12 
REMARK       I    between atoms: N_12  and  C_13 
REMARK       I    between atoms: C_13  and  N_14 
REMARK    5  A    between atoms: N_14  and  C_15 
ROOT
HETATM    1  C   UNL     1     -42.417  58.227 -51.355  1.00  0.00     0.245 C 
HETATM    2  N   UNL     1     -43.769  58.229 -51.094  1.00  0.00    -0.265 N 
HETATM    3  O   UNL     1     -41.688  59.146 -50.970  1.00  0.00    -0.271 OA
HETATM    4  H   UNL     1     -44.393  57.455 -51.319  1.00  0.00     0.190 HD
ENDROOT
BRANCH   1   5
HETATM    5  C   UNL     1     -41.843  56.993 -52.018  1.00  0.00     0.184 C 
BRANCH   5   6
HETATM    6  S   UNL     1     -42.857  55.504 -51.788  1.00  0.00    -0.118 SA
BRANCH   6   7
HETATM    7  C   UNL     1     -41.580  54.353 -51.445  1.00  0.00     0.035 A 
HETATM    8  C   UNL     1     -40.947  54.201 -50.230  1.00  0.00     0.023 A 
HETATM    9  C   UNL     1     -41.103  54.924 -48.941  1.00  0.00     0.069 C 
HETATM   10  N   UNL     1     -40.050  53.170 -50.372  1.00  0.00    -0.358 N 
HETATM   11  H   UNL     1     -39.442  52.823 -49.644  1.00  0.00     0.166 HD
HETATM   12  C   UNL     1     -40.095  52.658 -51.650  1.00  0.00     0.044 A 
HETATM   13  C   UNL     1     -41.040  53.402 -52.360  1.00  0.00     0.009 A 
HETATM   14  C   UNL     1     -39.373  51.605 -52.222  1.00  0.00     0.030 A 
HETATM   15  C   UNL     1     -41.258  53.083 -53.717  1.00  0.00     0.015 A 
HETATM   16  C   UNL     1     -40.544  52.032 -54.306  1.00  0.00     0.001 A 
HETATM   17  C   UNL     1     -39.619  51.303 -53.565  1.00  0.00     0.002 A 
ENDBRANCH   6   7
ENDBRANCH   5   6
ENDBRANCH   1   5
BRANCH   2  18
HETATM   18  N   UNL     1     -44.285  59.282 -50.320  1.00  0.00    -0.249 N 
HETATM   19  C   UNL     1     -45.286  60.041 -50.861  1.00  0.00     0.339 C 
HETATM   20  N   UNL     1     -45.929  60.921 -50.038  1.00  0.00    -0.308 N 
HETATM   21  O   UNL     1     -45.648  59.918 -52.032  1.00  0.00    -0.245 OA
HETATM   22  H   UNL     1     -46.770  61.281 -50.474  1.00  0.00     0.170 HD
HETATM   23  H   UNL     1     -44.366  59.051 -49.332  1.00  0.00     0.192 HD
BRANCH  20  24
HETATM   24  C   UNL     1     -45.655  61.367 -48.730  1.00  0.00     0.036 A 
HETATM   25  C   UNL     1     -45.728  60.564 -47.588  1.00  0.00     0.029 A 
HETATM   26  C   UNL     1     -45.474  61.104 -46.323  1.00  0.00     0.002 A 
HETATM   27  C   UNL     1     -45.123  62.444 -46.190  1.00  0.00     0.000 A 
HETATM   28  C   UNL     1     -45.003  63.242 -47.324  1.00  0.00     0.002 A 
HETATM   29  C   UNL     1     -45.257  62.702 -48.587  1.00  0.00     0.029 A 
ENDBRANCH  20  24
ENDBRANCH   2  18
TORSDOF 5
ENDMDL
MODEL 7
REMARK VINA RESULT:      -7.5      5.639      7.935
REMARK  5 active torsions:
REMARK  status: ('A' for Active; 'I' for Inactive)
REMARK    1  A    between atoms: C_7  and  S_8 
REMARK    2  A    between atoms: S_8  and  C_9 
REMARK    3  A    between atoms: C_9  and  C_10 
REMARK       I    between atoms: C_10  and  N_11 
REMARK    4  A    between atoms: N_11  and  N_12 
REMARK       I    between atoms: N_12  and  C_13 
REMARK       I    between atoms: C_13  and  N_14 
REMARK    5  A    between atoms: N_14  and  C_15 
ROOT
HETATM    1  C   UNL     1     -44.171  57.555 -51.240  1.00  0.00     0.245 C 
HETATM    2  N   UNL     1     -43.414  58.684 -51.028  1.00  0.00    -0.265 N 
HETATM    3  O   UNL     1     -45.264  57.401 -50.685  1.00  0.00    -0.271 OA
HETATM    4  H   UNL     1     -42.547  58.890 -51.525  1.00  0.00     0.190 HD
ENDROOT
BRANCH   1   5
HETATM    5  C   UNL     1     -43.671  56.571 -52.276  1.00  0.00     0.184 C 
BRANCH   5   6
HETATM    6  S   UNL     1     -41.944  56.845 -52.766  1.00  0.00    -0.118 SA
BRANCH   6   7
HETATM    7  C   UNL     1     -41.240  55.373 -52.125  1.00  0.00     0.035 A 
HETATM    8  C   UNL     1     -41.048  55.096 -50.788  1.00  0.00     0.023 A 
HETATM    9  C   UNL     1     -41.318  55.898 -49.567  1.00  0.00     0.069 C 
HETATM   10  N   UNL     1     -40.518  53.831 -50.714  1.00  0.00    -0.358 N 
HETATM   11  H   UNL     1     -40.275  53.351 -49.859  1.00  0.00     0.166 HD
HETATM   12  C   UNL     1     -40.366  53.292 -51.972  1.00  0.00     0.044 A 
HETATM   13  C   UNL     1     -40.796  54.254 -52.888  1.00  0.00     0.009 A 
HETATM   14  C   UNL     1     -39.883  52.037 -52.361  1.00  0.00     0.030 A 
HETATM   15  C   UNL     1     -40.720  53.948 -54.264  1.00  0.00     0.015 A 
HETATM   16  C   UNL     1     -40.238  52.697 -54.670  1.00  0.00     0.001 A 
HETATM   17  C   UNL     1     -39.830  51.756 -53.729  1.00  0.00     0.002 A 
ENDBRANCH   6   7
ENDBRANCH   5   6
ENDBRANCH   1   5
BRANCH   2  18
HETATM   18  N   UNL     1     -43.952  59.690 -50.207  1.00  0.00    -0.249 N 
HETATM   19  C   UNL     1     -44.662  60.693 -50.807  1.00  0.00     0.339 C 
HETATM   20  N   UNL     1     -45.357  61.547 -50.001  1.00  0.00    -0.308 N 
HETATM   21  O   UNL     1     -44.728  60.813 -52.032  1.00  0.00    -0.245 OA
HETATM   22  H   UNL     1     -45.999  62.117 -50.539  1.00  0.00     0.170 HD
HETATM   23  H   UNL     1     -44.314  59.335 -49.324  1.00  0.00     0.192 HD
BRANCH  20  24
HETATM   24  C   UNL     1     -45.363  61.738 -48.605  1.00  0.00     0.036 A 
HETATM   25  C   UNL     1     -45.116  62.959 -47.971  1.00  0.00     0.029 A 
HETATM   26  C   UNL     1     -45.107  63.046 -46.575  1.00  0.00     0.002 A 
HETATM   27  C   UNL     1     -45.368  61.920 -45.800  1.00  0.00     0.000 A 
HETATM   28  C   UNL     1     -45.659  60.709 -46.421  1.00  0.00     0.002 A 
HETATM   29  C   UNL     1     -45.668  60.622 -47.815  1.00  0.00     0.029 A 
ENDBRANCH  20  24
ENDBRANCH   2  18
TORSDOF 5
ENDMDL
MODEL 8
REMARK VINA RESULT:      -7.5      1.924      3.587
REMARK  5 active torsions:
REMARK  status: ('A' for Active; 'I' for Inactive)
REMARK    1  A    between atoms: C_7  and  S_8 
REMARK    2  A    between atoms: S_8  and  C_9 
REMARK    3  A    between atoms: C_9  and  C_10 
REMARK       I    between atoms: C_10  and  N_11 
REMARK    4  A    between atoms: N_11  and  N_12 
REMARK       I    between atoms: N_12  and  C_13 
REMARK       I    between atoms: C_13  and  N_14 
REMARK    5  A    between atoms: N_14  and  C_15 
ROOT
HETATM    1  C   UNL     1     -42.955  55.170 -55.550  1.00  0.00     0.245 C 
HETATM    2  N   UNL     1     -43.158  55.120 -56.910  1.00  0.00    -0.265 N 
HETATM    3  O   UNL     1     -43.320  56.142 -54.882  1.00  0.00    -0.271 OA
HETATM    4  H   UNL     1     -42.947  54.305 -57.488  1.00  0.00     0.190 HD
ENDROOT
BRANCH   1   5
HETATM    5  C   UNL     1     -42.384  53.933 -54.890  1.00  0.00     0.184 C 
BRANCH   5   6
HETATM    6  S   UNL     1     -40.572  53.938 -54.778  1.00  0.00    -0.118 SA
BRANCH   6   7
HETATM    7  C   UNL     1     -40.394  53.280 -53.163  1.00  0.00     0.035 A 
HETATM    8  C   UNL     1     -39.946  52.012 -52.862  1.00  0.00     0.023 A 
HETATM    9  C   UNL     1     -39.537  50.879 -53.732  1.00  0.00     0.069 C 
HETATM   10  N   UNL     1     -39.912  51.915 -51.492  1.00  0.00    -0.358 N 
HETATM   11  H   UNL     1     -39.618  51.099 -50.974  1.00  0.00     0.166 HD
HETATM   12  C   UNL     1     -40.329  53.091 -50.910  1.00  0.00     0.044 A 
HETATM   13  C   UNL     1     -40.661  53.968 -51.943  1.00  0.00     0.009 A 
HETATM   14  C   UNL     1     -40.436  53.436 -49.557  1.00  0.00     0.030 A 
HETATM   15  C   UNL     1     -41.143  55.251 -51.602  1.00  0.00     0.015 A 
HETATM   16  C   UNL     1     -41.257  55.612 -50.254  1.00  0.00     0.001 A 
HETATM   17  C   UNL     1     -40.904  54.716 -49.249  1.00  0.00     0.002 A 
ENDBRANCH   6   7
ENDBRANCH   5   6
ENDBRANCH   1   5
BRANCH   2  18
HETATM   18  N   UNL     1     -43.851  56.184 -57.510  1.00  0.00    -0.249 N 
HETATM   19  C   UNL     1     -43.990  56.172 -58.871  1.00  0.00     0.339 C 
HETATM   20  N   UNL     1     -44.837  57.085 -59.430  1.00  0.00    -0.308 N 
HETATM   21  O   UNL     1     -43.421  55.344 -59.583  1.00  0.00    -0.245 OA
HETATM   22  H   UNL     1     -45.021  56.866 -60.401  1.00  0.00     0.170 HD
HETATM   23  H   UNL     1     -44.657  56.493 -56.969  1.00  0.00     0.192 HD
BRANCH  20  24
HETATM   24  C   UNL     1     -45.500  58.210 -58.900  1.00  0.00     0.036 A 
HETATM   25  C   UNL     1     -44.916  59.470 -58.739  1.00  0.00     0.029 A 
HETATM   26  C   UNL     1     -45.641  60.521 -58.170  1.00  0.00     0.002 A 
HETATM   27  C   UNL     1     -46.963  60.331 -57.778  1.00  0.00     0.000 A 
HETATM   28  C   UNL     1     -47.569  59.093 -57.975  1.00  0.00     0.002 A 
HETATM   29  C   UNL     1     -46.843  58.043 -58.544  1.00  0.00     0.029 A 
ENDBRANCH  20  24
ENDBRANCH   2  18
TORSDOF 5
ENDMDL
MODEL 9
REMARK VINA RESULT:      -7.4      3.018      7.562
REMARK  5 active torsions:
REMARK  status: ('A' for Active; 'I' for Inactive)
REMARK    1  A    between atoms: C_7  and  S_8 
REMARK    2  A    between atoms: S_8  and  C_9 
REMARK    3  A    between atoms: C_9  and  C_10 
REMARK       I    between atoms: C_10  and  N_11 
REMARK    4  A    between atoms: N_11  and  N_12 
REMARK       I    between atoms: N_12  and  C_13 
REMARK       I    between atoms: C_13  and  N_14 
REMARK    5  A    between atoms: N_14  and  C_15 
ROOT
HETATM    1  C   UNL     1     -41.310  58.191 -52.527  1.00  0.00     0.245 C 
HETATM    2  N   UNL     1     -41.831  57.247 -51.672  1.00  0.00    -0.265 N 
HETATM    3  O   UNL     1     -40.366  57.925 -53.278  1.00  0.00    -0.271 OA
HETATM    4  H   UNL     1     -42.660  57.396 -51.096  1.00  0.00     0.190 HD
ENDROOT
BRANCH   1   5
HETATM    5  C   UNL     1     -42.022  59.524 -52.601  1.00  0.00     0.184 C 
BRANCH   5   6
HETATM    6  S   UNL     1     -43.628  59.447 -53.444  1.00  0.00    -0.118 SA
BRANCH   6   7
HETATM    7  C   UNL     1     -43.163  58.490 -54.836  1.00  0.00     0.035 A 
HETATM    8  C   UNL     1     -42.573  58.982 -55.982  1.00  0.00     0.023 A 
HETATM    9  C   UNL     1     -42.206  60.364 -56.386  1.00  0.00     0.069 C 
HETATM   10  N   UNL     1     -42.330  57.905 -56.800  1.00  0.00    -0.358 N 
HETATM   11  H   UNL     1     -41.898  57.953 -57.712  1.00  0.00     0.166 HD
HETATM   12  C   UNL     1     -42.751  56.737 -56.205  1.00  0.00     0.044 A 
HETATM   13  C   UNL     1     -43.302  57.078 -54.968  1.00  0.00     0.009 A 
HETATM   14  C   UNL     1     -42.686  55.417 -56.668  1.00  0.00     0.030 A 
HETATM   15  C   UNL     1     -43.831  56.045 -54.164  1.00  0.00     0.015 A 
HETATM   16  C   UNL     1     -43.774  54.720 -54.613  1.00  0.00     0.001 A 
HETATM   17  C   UNL     1     -43.205  54.414 -55.846  1.00  0.00     0.002 A 
ENDBRANCH   6   7
ENDBRANCH   5   6
ENDBRANCH   1   5
BRANCH   2  18
HETATM   18  N   UNL     1     -41.296  55.949 -51.723  1.00  0.00    -0.249 N 
HETATM   19  C   UNL     1     -41.100  55.290 -50.541  1.00  0.00     0.339 C 
HETATM   20  N   UNL     1     -40.782  53.964 -50.598  1.00  0.00    -0.308 N 
HETATM   21  O   UNL     1     -41.249  55.840 -49.448  1.00  0.00    -0.245 OA
HETATM   22  H   UNL     1     -40.856  53.531 -49.686  1.00  0.00     0.170 HD
HETATM   23  H   UNL     1     -41.653  55.398 -52.502  1.00  0.00     0.192 HD
BRANCH  20  24
HETATM   24  C   UNL     1     -40.420  53.123 -51.669  1.00  0.00     0.036 A 
HETATM   25  C   UNL     1     -40.613  53.432 -53.019  1.00  0.00     0.029 A 
HETATM   26  C   UNL     1     -40.256  52.517 -54.015  1.00  0.00     0.002 A 
HETATM   27  C   UNL     1     -39.681  51.297 -53.673  1.00  0.00     0.000 A 
HETATM   28  C   UNL     1     -39.443  50.997 -52.335  1.00  0.00     0.002 A 
HETATM   29  C   UNL     1     -39.801  51.911 -51.340  1.00  0.00     0.029 A 
ENDBRANCH  20  24
ENDBRANCH   2  18
TORSDOF 5
ENDMDL
MODEL 10
REMARK VINA RESULT:      -7.3      2.308      8.546
REMARK  5 active torsions:
REMARK  status: ('A' for Active; 'I' for Inactive)
REMARK    1  A    between atoms: C_7  and  S_8 
REMARK    2  A    between atoms: S_8  and  C_9 
REMARK    3  A    between atoms: C_9  and  C_10 
REMARK       I    between atoms: C_10  and  N_11 
REMARK    4  A    between atoms: N_11  and  N_12 
REMARK       I    between atoms: N_12  and  C_13 
REMARK       I    between atoms: C_13  and  N_14 
REMARK    5  A    between atoms: N_14  and  C_15 
ROOT
HETATM    1  C   UNL     1     -43.790  56.915 -54.737  1.00  0.00     0.245 C 
HETATM    2  N   UNL     1     -43.945  56.019 -53.704  1.00  0.00    -0.265 N 
HETATM    3  O   UNL     1     -42.713  57.029 -55.331  1.00  0.00    -0.271 OA
HETATM    4  H   UNL     1     -44.835  55.834 -53.240  1.00  0.00     0.190 HD
ENDROOT
BRANCH   1   5
HETATM    5  C   UNL     1     -45.024  57.661 -55.198  1.00  0.00     0.184 C 
BRANCH   5   6
HETATM    6  S   UNL     1     -44.692  58.891 -56.491  1.00  0.00    -0.118 SA
BRANCH   6   7
HETATM    7  C   UNL     1     -45.498  58.102 -57.833  1.00  0.00     0.035 A 
HETATM    8  C   UNL     1     -46.745  58.433 -58.321  1.00  0.00     0.023 A 
HETATM    9  C   UNL     1     -47.736  59.450 -57.885  1.00  0.00     0.069 C 
HETATM   10  N   UNL     1     -46.984  57.611 -59.396  1.00  0.00    -0.358 N 
HETATM   11  H   UNL     1     -47.820  57.624 -59.964  1.00  0.00     0.166 HD
HETATM   12  C   UNL     1     -45.920  56.763 -59.607  1.00  0.00     0.044 A 
HETATM   13  C   UNL     1     -44.972  57.036 -58.619  1.00  0.00     0.009 A 
HETATM   14  C   UNL     1     -45.732  55.783 -60.588  1.00  0.00     0.030 A 
HETATM   15  C   UNL     1     -43.783  56.275 -58.605  1.00  0.00     0.015 A 
HETATM   16  C   UNL     1     -43.579  55.290 -59.579  1.00  0.00     0.001 A 
HETATM   17  C   UNL     1     -44.541  55.053 -60.558  1.00  0.00     0.002 A 
ENDBRANCH   6   7
ENDBRANCH   5   6
ENDBRANCH   1   5
BRANCH   2  18
HETATM   18  N   UNL     1     -42.857  55.191 -53.385  1.00  0.00    -0.249 N 
HETATM   19  C   UNL     1     -42.171  55.451 -52.230  1.00  0.00     0.339 C 
HETATM   20  N   UNL     1     -41.255  54.529 -51.815  1.00  0.00    -0.308 N 
HETATM   21  O   UNL     1     -42.390  56.452 -51.546  1.00  0.00    -0.245 OA
HETATM   22  H   UNL     1     -40.956  54.713 -50.865  1.00  0.00     0.170 HD
HETATM   23  H   UNL     1     -43.019  54.211 -53.612  1.00  0.00     0.192 HD
BRANCH  20  24
HETATM   24  C   UNL     1     -40.708  53.390 -52.439  1.00  0.00     0.036 A 
HETATM   25  C   UNL     1     -40.777  53.129 -53.810  1.00  0.00     0.029 A 
HETATM   26  C   UNL     1     -40.235  51.953 -54.338  1.00  0.00     0.002 A 
HETATM   27  C   UNL     1     -39.599  51.038 -53.504  1.00  0.00     0.000 A 
HETATM   28  C   UNL     1     -39.484  51.309 -52.143  1.00  0.00     0.002 A 
HETATM   29  C   UNL     1     -40.026  52.484 -51.617  1.00  0.00     0.029 A 
ENDBRANCH  20  24
ENDBRANCH   2  18
TORSDOF 5
ENDMDL
