MODEL 1
REMARK VINA RESULT:      -8.1      0.000      0.000
REMARK  8 active torsions:
REMARK  status: ('A' for Active; 'I' for Inactive)
REMARK    1  A    between atoms: C_2  and  C_3 
REMARK    2  A    between atoms: C_3  and  C_4 
REMARK       I    between atoms: C_4  and  N_5 
REMARK    3  A    between atoms: N_8  and  C_9 
REMARK    4  A    between atoms: C_13  and  N_14 
REMARK    5  A    between atoms: N_14  and  C_15 
REMARK    6  A    between atoms: C_15  and  N_16 
REMARK       I    between atoms: N_16  and  C_17 
REMARK    7  A    between atoms: C_17  and  C_18 
REMARK    8  A    between atoms: C_20  and  O_21 
ROOT
HETATM    1  C   UNL     1     -43.286  57.831 -51.507  1.00  0.00     0.052 A 
HETATM    2  C   UNL     1     -42.805  59.151 -51.327  1.00  0.00     0.062 A 
HETATM    3 CL   UNL     1     -41.112  59.528 -51.408  1.00  0.00    -0.082 Cl
HETATM    4  C   UNL     1     -43.664  60.209 -50.974  1.00  0.00     0.055 A 
HETATM    5  C   UNL     1     -45.015  59.967 -50.732  1.00  0.00     0.036 A 
HETATM    6  C   UNL     1     -45.519  58.695 -50.981  1.00  0.00     0.032 A 
HETATM    7  C   UNL     1     -44.671  57.650 -51.364  1.00  0.00     0.033 A 
ENDROOT
BRANCH   5   8
HETATM    8  N   UNL     1     -45.827  61.027 -50.274  1.00  0.00    -0.333 N 
HETATM    9  H   UNL     1     -46.833  60.929 -50.421  1.00  0.00     0.168 HD
BRANCH   8  10
HETATM   10  C   UNL     1     -45.441  62.275 -49.842  1.00  0.00     0.179 C 
HETATM   11  S   UNL     1     -45.226  63.677 -50.735  1.00  0.00    -0.040 SA
BRANCH  10  12
HETATM   12  N   UNL     1     -45.221  62.402 -48.486  1.00  0.00    -0.299 N 
HETATM   13  C   UNL     1     -46.053  62.103 -47.418  1.00  0.00     0.257 C 
HETATM   14  O   UNL     1     -47.238  61.805 -47.530  1.00  0.00    -0.267 OA
HETATM   15  H   UNL     1     -44.259  62.643 -48.288  1.00  0.00     0.171 HD
BRANCH  13  16
HETATM   16  C   UNL     1     -45.397  62.141 -46.081  1.00  0.00     0.035 A 
HETATM   17  C   UNL     1     -45.385  63.305 -45.301  1.00  0.00     0.053 A 
HETATM   18  C   UNL     1     -44.676  63.344 -44.097  1.00  0.00     0.069 A 
HETATM   19  C   UNL     1     -44.005  62.204 -43.657  1.00  0.00     0.037 A 
HETATM   20  C   UNL     1     -44.047  61.029 -44.414  1.00  0.00     0.004 A 
HETATM   21  C   UNL     1     -44.742  60.996 -45.624  1.00  0.00     0.017 A 
BRANCH  18  22
HETATM   22  O   UNL     1     -44.719  64.552 -43.457  1.00  0.00    -0.356 OA
HETATM   23  C   UNL     1     -44.225  64.592 -42.122  1.00  0.00     0.210 C 
ENDBRANCH  18  22
ENDBRANCH  13  16
ENDBRANCH  10  12
ENDBRANCH   8  10
ENDBRANCH   5   8
BRANCH   1  24
HETATM   24  N   UNL     1     -42.433  56.737 -51.746  1.00  0.00    -0.376 N 
HETATM   25  C   UNL     1     -42.546  56.115 -53.083  1.00  0.00     0.143 C 
HETATM   26  C   UNL     1     -41.318  55.213 -53.350  1.00  0.00     0.145 C 
HETATM   27  N   UNL     1     -41.067  54.250 -52.263  1.00  0.00    -0.349 N 
HETATM   28  C   UNL     1     -40.405  53.036 -52.413  1.00  0.00     0.219 C 
HETATM   29  C   UNL     1     -41.110  54.818 -50.910  1.00  0.00     0.145 C 
HETATM   30  O   UNL     1     -40.140  52.321 -51.447  1.00  0.00    -0.273 OA
HETATM   31  C   UNL     1     -42.328  55.719 -50.676  1.00  0.00     0.143 C 
BRANCH  28  32
HETATM   32  C   UNL     1     -40.035  52.622 -53.830  1.00  0.00     0.103 C 
BRANCH  32  33
HETATM   33  C   UNL     1     -40.628  51.273 -54.248  1.00  0.00     0.005 C 
HETATM   34  C   UNL     1     -39.612  50.139 -54.221  1.00  0.00     0.005 C 
ENDBRANCH  32  33
ENDBRANCH  28  32
ENDBRANCH   1  24
TORSDOF 8
ENDMDL
MODEL 2
REMARK VINA RESULT:      -7.8      7.201     11.228
REMARK  8 active torsions:
REMARK  status: ('A' for Active; 'I' for Inactive)
REMARK    1  A    between atoms: C_2  and  C_3 
REMARK    2  A    between atoms: C_3  and  C_4 
REMARK       I    between atoms: C_4  and  N_5 
REMARK    3  A    between atoms: N_8  and  C_9 
REMARK    4  A    between atoms: C_13  and  N_14 
REMARK    5  A    between atoms: N_14  and  C_15 
REMARK    6  A    between atoms: C_15  and  N_16 
REMARK       I    between atoms: N_16  and  C_17 
REMARK    7  A    between atoms: C_17  and  C_18 
REMARK    8  A    between atoms: C_20  and  O_21 
ROOT
HETATM    1  C   UNL     1     -44.916  57.608 -58.398  1.00  0.00     0.052 A 
HETATM    2  C   UNL     1     -43.607  57.067 -58.402  1.00  0.00     0.062 A 
HETATM    3 CL   UNL     1     -42.929  56.317 -59.813  1.00  0.00    -0.082 Cl
HETATM    4  C   UNL     1     -42.824  57.018 -57.233  1.00  0.00     0.055 A 
HETATM    5  C   UNL     1     -43.349  57.453 -56.017  1.00  0.00     0.036 A 
HETATM    6  C   UNL     1     -44.600  58.059 -56.010  1.00  0.00     0.032 A 
HETATM    7  C   UNL     1     -45.365  58.137 -57.179  1.00  0.00     0.033 A 
ENDROOT
BRANCH   5   8
HETATM    8  N   UNL     1     -42.580  57.291 -54.844  1.00  0.00    -0.333 N 
HETATM    9  H   UNL     1     -41.572  57.429 -54.935  1.00  0.00     0.168 HD
BRANCH   8  10
HETATM   10  C   UNL     1     -42.969  56.767 -53.633  1.00  0.00     0.179 C 
HETATM   11  S   UNL     1     -44.087  57.366 -52.537  1.00  0.00    -0.040 SA
BRANCH  10  12
HETATM   12  N   UNL     1     -42.378  55.573 -53.275  1.00  0.00    -0.299 N 
HETATM   13  C   UNL     1     -42.165  54.426 -54.025  1.00  0.00     0.257 C 
HETATM   14  O   UNL     1     -42.635  54.236 -55.142  1.00  0.00    -0.267 OA
HETATM   15  H   UNL     1     -41.951  55.630 -52.360  1.00  0.00     0.171 HD
BRANCH  13  16
HETATM   16  C   UNL     1     -41.281  53.412 -53.385  1.00  0.00     0.035 A 
HETATM   17  C   UNL     1     -41.103  53.364 -51.995  1.00  0.00     0.053 A 
HETATM   18  C   UNL     1     -40.190  52.471 -51.428  1.00  0.00     0.069 A 
HETATM   19  C   UNL     1     -39.479  51.599 -52.251  1.00  0.00     0.037 A 
HETATM   20  C   UNL     1     -39.682  51.618 -53.635  1.00  0.00     0.004 A 
HETATM   21  C   UNL     1     -40.582  52.522 -54.202  1.00  0.00     0.017 A 
BRANCH  18  22
HETATM   22  O   UNL     1     -40.090  52.555 -50.066  1.00  0.00    -0.356 OA
HETATM   23  C   UNL     1     -40.549  53.758 -49.460  1.00  0.00     0.210 C 
ENDBRANCH  18  22
ENDBRANCH  13  16
ENDBRANCH  10  12
ENDBRANCH   8  10
ENDBRANCH   5   8
BRANCH   1  24
HETATM   24  N   UNL     1     -45.759  57.562 -59.525  1.00  0.00    -0.376 N 
HETATM   25  C   UNL     1     -46.757  58.649 -59.623  1.00  0.00     0.143 C 
HETATM   26  C   UNL     1     -47.333  58.707 -61.058  1.00  0.00     0.145 C 
HETATM   27  N   UNL     1     -47.825  57.401 -61.532  1.00  0.00    -0.349 N 
HETATM   28  C   UNL     1     -48.803  57.225 -62.504  1.00  0.00     0.219 C 
HETATM   29  C   UNL     1     -46.913  56.275 -61.297  1.00  0.00     0.145 C 
HETATM   30  O   UNL     1     -49.100  56.108 -62.927  1.00  0.00    -0.273 OA
HETATM   31  C   UNL     1     -46.345  56.248 -59.874  1.00  0.00     0.143 C 
BRANCH  28  32
HETATM   32  C   UNL     1     -49.505  58.476 -63.013  1.00  0.00     0.103 C 
BRANCH  32  33
HETATM   33  C   UNL     1     -50.931  58.638 -62.479  1.00  0.00     0.005 C 
HETATM   34  C   UNL     1     -51.111  59.884 -61.621  1.00  0.00     0.005 C 
ENDBRANCH  32  33
ENDBRANCH  28  32
ENDBRANCH   1  24
TORSDOF 8
ENDMDL
MODEL 3
REMARK VINA RESULT:      -7.8      6.857      9.675
REMARK  8 active torsions:
REMARK  status: ('A' for Active; 'I' for Inactive)
REMARK    1  A    between atoms: C_2  and  C_3 
REMARK    2  A    between atoms: C_3  and  C_4 
REMARK       I    between atoms: C_4  and  N_5 
REMARK    3  A    between atoms: N_8  and  C_9 
REMARK    4  A    between atoms: C_13  and  N_14 
REMARK    5  A    between atoms: N_14  and  C_15 
REMARK    6  A    between atoms: C_15  and  N_16 
REMARK       I    between atoms: N_16  and  C_17 
REMARK    7  A    between atoms: C_17  and  C_18 
REMARK    8  A    between atoms: C_20  and  O_21 
ROOT
HETATM    1  C   UNL     1     -42.850  56.495 -53.768  1.00  0.00     0.052 A 
HETATM    2  C   UNL     1     -42.395  57.811 -54.025  1.00  0.00     0.062 A 
HETATM    3 CL   UNL     1     -40.784  58.318 -53.619  1.00  0.00    -0.082 Cl
HETATM    4  C   UNL     1     -43.253  58.805 -54.531  1.00  0.00     0.055 A 
HETATM    5  C   UNL     1     -44.604  58.529 -54.736  1.00  0.00     0.036 A 
HETATM    6  C   UNL     1     -45.050  57.224 -54.564  1.00  0.00     0.032 A 
HETATM    7  C   UNL     1     -44.189  56.227 -54.093  1.00  0.00     0.033 A 
ENDROOT
BRANCH   5   8
HETATM    8  N   UNL     1     -45.461  59.576 -55.139  1.00  0.00    -0.333 N 
HETATM    9  H   UNL     1     -45.954  60.075 -54.398  1.00  0.00     0.168 HD
BRANCH   8  10
HETATM   10  C   UNL     1     -45.891  59.888 -56.409  1.00  0.00     0.179 C 
HETATM   11  S   UNL     1     -46.566  61.316 -56.969  1.00  0.00    -0.040 SA
BRANCH  10  12
HETATM   12  N   UNL     1     -45.727  58.903 -57.360  1.00  0.00    -0.299 N 
HETATM   13  C   UNL     1     -44.719  58.728 -58.295  1.00  0.00     0.257 C 
HETATM   14  O   UNL     1     -43.847  59.559 -58.531  1.00  0.00    -0.267 OA
HETATM   15  H   UNL     1     -46.403  58.160 -57.245  1.00  0.00     0.171 HD
BRANCH  13  16
HETATM   16  C   UNL     1     -44.739  57.419 -59.004  1.00  0.00     0.035 A 
HETATM   17  C   UNL     1     -45.679  57.139 -60.006  1.00  0.00     0.053 A 
HETATM   18  C   UNL     1     -45.742  55.868 -60.584  1.00  0.00     0.069 A 
HETATM   19  C   UNL     1     -44.839  54.884 -60.182  1.00  0.00     0.037 A 
HETATM   20  C   UNL     1     -43.875  55.172 -59.210  1.00  0.00     0.004 A 
HETATM   21  C   UNL     1     -43.824  56.436 -58.622  1.00  0.00     0.017 A 
BRANCH  18  22
HETATM   22  O   UNL     1     -46.729  55.723 -61.520  1.00  0.00    -0.356 OA
HETATM   23  C   UNL     1     -47.744  56.720 -61.546  1.00  0.00     0.210 C 
ENDBRANCH  18  22
ENDBRANCH  13  16
ENDBRANCH  10  12
ENDBRANCH   8  10
ENDBRANCH   5   8
BRANCH   1  24
HETATM   24  N   UNL     1     -42.043  55.517 -53.156  1.00  0.00    -0.376 N 
HETATM   25  C   UNL     1     -41.532  54.456 -54.049  1.00  0.00     0.143 C 
HETATM   26  C   UNL     1     -40.374  53.698 -53.359  1.00  0.00     0.145 C 
HETATM   27  N   UNL     1     -40.724  53.223 -52.008  1.00  0.00    -0.349 N 
HETATM   28  C   UNL     1     -40.133  52.139 -51.368  1.00  0.00     0.219 C 
HETATM   29  C   UNL     1     -41.382  54.220 -51.153  1.00  0.00     0.145 C 
HETATM   30  O   UNL     1     -40.401  51.854 -50.201  1.00  0.00    -0.273 OA
HETATM   31  C   UNL     1     -42.516  54.966 -51.865  1.00  0.00     0.143 C 
BRANCH  28  32
HETATM   32  C   UNL     1     -39.150  51.309 -52.181  1.00  0.00     0.103 C 
BRANCH  32  33
HETATM   33  C   UNL     1     -39.745  50.001 -52.710  1.00  0.00     0.005 C 
HETATM   34  C   UNL     1     -40.058  50.046 -54.200  1.00  0.00     0.005 C 
ENDBRANCH  32  33
ENDBRANCH  28  32
ENDBRANCH   1  24
TORSDOF 8
ENDMDL
MODEL 4
REMARK VINA RESULT:      -7.5      7.181     11.388
REMARK  8 active torsions:
REMARK  status: ('A' for Active; 'I' for Inactive)
REMARK    1  A    between atoms: C_2  and  C_3 
REMARK    2  A    between atoms: C_3  and  C_4 
REMARK       I    between atoms: C_4  and  N_5 
REMARK    3  A    between atoms: N_8  and  C_9 
REMARK    4  A    between atoms: C_13  and  N_14 
REMARK    5  A    between atoms: N_14  and  C_15 
REMARK    6  A    between atoms: C_15  and  N_16 
REMARK       I    between atoms: N_16  and  C_17 
REMARK    7  A    between atoms: C_17  and  C_18 
REMARK    8  A    between atoms: C_20  and  O_21 
ROOT
HETATM    1  C   UNL     1     -45.400  57.744 -57.956  1.00  0.00     0.052 A 
HETATM    2  C   UNL     1     -44.083  57.258 -57.765  1.00  0.00     0.062 A 
HETATM    3 CL   UNL     1     -43.157  56.584 -59.070  1.00  0.00    -0.082 Cl
HETATM    4  C   UNL     1     -43.493  57.205 -56.488  1.00  0.00     0.055 A 
HETATM    5  C   UNL     1     -44.222  57.577 -55.360  1.00  0.00     0.036 A 
HETATM    6  C   UNL     1     -45.486  58.130 -55.538  1.00  0.00     0.032 A 
HETATM    7  C   UNL     1     -46.060  58.214 -56.811  1.00  0.00     0.033 A 
ENDROOT
BRANCH   5   8
HETATM    8  N   UNL     1     -43.642  57.409 -54.085  1.00  0.00    -0.333 N 
HETATM    9  H   UNL     1     -44.280  57.404 -53.288  1.00  0.00     0.168 HD
BRANCH   8  10
HETATM   10  C   UNL     1     -42.311  57.458 -53.738  1.00  0.00     0.179 C 
HETATM   11  S   UNL     1     -41.239  58.741 -53.859  1.00  0.00    -0.040 SA
BRANCH  10  12
HETATM   12  N   UNL     1     -41.787  56.303 -53.196  1.00  0.00    -0.299 N 
HETATM   13  C   UNL     1     -42.168  54.982 -53.378  1.00  0.00     0.257 C 
HETATM   14  O   UNL     1     -43.187  54.634 -53.967  1.00  0.00    -0.267 OA
HETATM   15  H   UNL     1     -40.931  56.486 -52.690  1.00  0.00     0.171 HD
BRANCH  13  16
HETATM   16  C   UNL     1     -41.224  53.973 -52.821  1.00  0.00     0.035 A 
HETATM   17  C   UNL     1     -40.627  52.998 -53.633  1.00  0.00     0.053 A 
HETATM   18  C   UNL     1     -39.826  52.001 -53.069  1.00  0.00     0.069 A 
HETATM   19  C   UNL     1     -39.594  52.001 -51.694  1.00  0.00     0.037 A 
HETATM   20  C   UNL     1     -40.157  52.995 -50.887  1.00  0.00     0.004 A 
HETATM   21  C   UNL     1     -40.970  53.981 -51.449  1.00  0.00     0.017 A 
BRANCH  18  22
HETATM   22  O   UNL     1     -39.339  51.093 -53.969  1.00  0.00    -0.356 OA
HETATM   23  C   UNL     1     -40.188  50.004 -54.310  1.00  0.00     0.210 C 
ENDBRANCH  18  22
ENDBRANCH  13  16
ENDBRANCH  10  12
ENDBRANCH   8  10
ENDBRANCH   5   8
BRANCH   1  24
HETATM   24  N   UNL     1     -46.052  57.700 -59.204  1.00  0.00    -0.376 N 
HETATM   25  C   UNL     1     -47.030  58.780 -59.454  1.00  0.00     0.143 C 
HETATM   26  C   UNL     1     -47.370  58.844 -60.962  1.00  0.00     0.145 C 
HETATM   27  N   UNL     1     -47.768  57.538 -61.516  1.00  0.00    -0.349 N 
HETATM   28  C   UNL     1     -48.577  57.361 -62.633  1.00  0.00     0.219 C 
HETATM   29  C   UNL     1     -46.895  56.417 -61.145  1.00  0.00     0.145 C 
HETATM   30  O   UNL     1     -48.792  56.245 -63.105  1.00  0.00    -0.273 OA
HETATM   31  C   UNL     1     -46.562  56.384 -59.650  1.00  0.00     0.143 C 
BRANCH  28  32
HETATM   32  C   UNL     1     -49.199  58.611 -63.240  1.00  0.00     0.103 C 
BRANCH  32  33
HETATM   33  C   UNL     1     -50.654  58.836 -62.818  1.00  0.00     0.005 C 
HETATM   34  C   UNL     1     -51.018  60.310 -62.695  1.00  0.00     0.005 C 
ENDBRANCH  32  33
ENDBRANCH  28  32
ENDBRANCH   1  24
TORSDOF 8
ENDMDL
MODEL 5
REMARK VINA RESULT:      -7.4      2.076      2.699
REMARK  8 active torsions:
REMARK  status: ('A' for Active; 'I' for Inactive)
REMARK    1  A    between atoms: C_2  and  C_3 
REMARK    2  A    between atoms: C_3  and  C_4 
REMARK       I    between atoms: C_4  and  N_5 
REMARK    3  A    between atoms: N_8  and  C_9 
REMARK    4  A    between atoms: C_13  and  N_14 
REMARK    5  A    between atoms: N_14  and  C_15 
REMARK    6  A    between atoms: C_15  and  N_16 
REMARK       I    between atoms: N_16  and  C_17 
REMARK    7  A    between atoms: C_17  and  C_18 
REMARK    8  A    between atoms: C_20  and  O_21 
ROOT
HETATM    1  C   UNL     1     -42.303  58.285 -52.934  1.00  0.00     0.052 A 
HETATM    2  C   UNL     1     -41.835  59.402 -52.199  1.00  0.00     0.062 A 
HETATM    3 CL   UNL     1     -40.428  59.308 -51.186  1.00  0.00    -0.082 Cl
HETATM    4  C   UNL     1     -42.543  60.619 -52.172  1.00  0.00     0.055 A 
HETATM    5  C   UNL     1     -43.768  60.734 -52.828  1.00  0.00     0.036 A 
HETATM    6  C   UNL     1     -44.202  59.676 -53.618  1.00  0.00     0.032 A 
HETATM    7  C   UNL     1     -43.481  58.478 -53.672  1.00  0.00     0.033 A 
ENDROOT
BRANCH   5   8
HETATM    8  N   UNL     1     -44.505  61.930 -52.691  1.00  0.00    -0.333 N 
HETATM    9  H   UNL     1     -44.029  62.794 -52.951  1.00  0.00     0.168 HD
BRANCH   8  10
HETATM   10  C   UNL     1     -45.712  62.122 -52.058  1.00  0.00     0.179 C 
HETATM   11  S   UNL     1     -47.219  62.408 -52.732  1.00  0.00    -0.040 SA
BRANCH  10  12
HETATM   12  N   UNL     1     -45.687  62.050 -50.681  1.00  0.00    -0.299 N 
HETATM   13  C   UNL     1     -44.804  62.619 -49.775  1.00  0.00     0.257 C 
HETATM   14  O   UNL     1     -43.761  63.182 -50.091  1.00  0.00    -0.267 OA
HETATM   15  H   UNL     1     -46.518  61.602 -50.318  1.00  0.00     0.171 HD
BRANCH  13  16
HETATM   16  C   UNL     1     -45.222  62.527 -48.348  1.00  0.00     0.035 A 
HETATM   17  C   UNL     1     -46.034  61.482 -47.886  1.00  0.00     0.053 A 
HETATM   18  C   UNL     1     -46.495  61.474 -46.566  1.00  0.00     0.069 A 
HETATM   19  C   UNL     1     -46.114  62.497 -45.698  1.00  0.00     0.037 A 
HETATM   20  C   UNL     1     -45.272  63.520 -46.147  1.00  0.00     0.004 A 
HETATM   21  C   UNL     1     -44.826  63.536 -47.469  1.00  0.00     0.017 A 
BRANCH  18  22
HETATM   22  O   UNL     1     -47.308  60.417 -46.260  1.00  0.00    -0.356 OA
HETATM   23  C   UNL     1     -46.684  59.262 -45.711  1.00  0.00     0.210 C 
ENDBRANCH  18  22
ENDBRANCH  13  16
ENDBRANCH  10  12
ENDBRANCH   8  10
ENDBRANCH   5   8
BRANCH   1  24
HETATM   24  N   UNL     1     -41.676  57.026 -52.884  1.00  0.00    -0.376 N 
HETATM   25  C   UNL     1     -41.659  56.267 -54.153  1.00  0.00     0.143 C 
HETATM   26  C   UNL     1     -40.627  55.118 -54.066  1.00  0.00     0.145 C 
HETATM   27  N   UNL     1     -40.805  54.276 -52.870  1.00  0.00    -0.349 N 
HETATM   28  C   UNL     1     -40.404  52.949 -52.764  1.00  0.00     0.219 C 
HETATM   29  C   UNL     1     -40.985  55.016 -51.614  1.00  0.00     0.145 C 
HETATM   30  O   UNL     1     -40.492  52.330 -51.704  1.00  0.00    -0.273 OA
HETATM   31  C   UNL     1     -42.002  56.157 -51.730  1.00  0.00     0.143 C 
BRANCH  28  32
HETATM   32  C   UNL     1     -39.865  52.288 -54.025  1.00  0.00     0.103 C 
BRANCH  32  33
HETATM   33  C   UNL     1     -40.469  50.908 -54.298  1.00  0.00     0.005 C 
HETATM   34  C   UNL     1     -39.497  49.766 -54.033  1.00  0.00     0.005 C 
ENDBRANCH  32  33
ENDBRANCH  28  32
ENDBRANCH   1  24
TORSDOF 8
ENDMDL
MODEL 6
REMARK VINA RESULT:      -7.3      3.192     10.963
REMARK  8 active torsions:
REMARK  status: ('A' for Active; 'I' for Inactive)
REMARK    1  A    between atoms: C_2  and  C_3 
REMARK    2  A    between atoms: C_3  and  C_4 
REMARK       I    between atoms: C_4  and  N_5 
REMARK    3  A    between atoms: N_8  and  C_9 
REMARK    4  A    between atoms: C_13  and  N_14 
REMARK    5  A    between atoms: N_14  and  C_15 
REMARK    6  A    between atoms: C_15  and  N_16 
REMARK       I    between atoms: N_16  and  C_17 
REMARK    7  A    between atoms: C_17  and  C_18 
REMARK    8  A    between atoms: C_20  and  O_21 
ROOT
HETATM    1  C   UNL     1     -44.817  59.446 -52.471  1.00  0.00     0.052 A 
HETATM    2  C   UNL     1     -44.955  59.379 -53.879  1.00  0.00     0.062 A 
HETATM    3 CL   UNL     1     -45.517  60.732 -54.810  1.00  0.00    -0.082 Cl
HETATM    4  C   UNL     1     -44.737  58.181 -54.587  1.00  0.00     0.055 A 
HETATM    5  C   UNL     1     -44.437  57.005 -53.902  1.00  0.00     0.036 A 
HETATM    6  C   UNL     1     -44.221  57.070 -52.530  1.00  0.00     0.032 A 
HETATM    7  C   UNL     1     -44.404  58.267 -51.831  1.00  0.00     0.033 A 
ENDROOT
BRANCH   5   8
HETATM    8  N   UNL     1     -44.333  55.799 -54.629  1.00  0.00    -0.333 N 
HETATM    9  H   UNL     1     -45.055  55.098 -54.458  1.00  0.00     0.168 HD
BRANCH   8  10
HETATM   10  C   UNL     1     -43.278  55.346 -55.387  1.00  0.00     0.179 C 
HETATM   11  S   UNL     1     -42.943  55.635 -57.004  1.00  0.00    -0.040 SA
BRANCH  10  12
HETATM   12  N   UNL     1     -42.354  54.564 -54.726  1.00  0.00    -0.299 N 
HETATM   13  C   UNL     1     -41.291  54.935 -53.917  1.00  0.00     0.257 C 
HETATM   14  O   UNL     1     -40.899  56.089 -53.781  1.00  0.00    -0.267 OA
HETATM   15  H   UNL     1     -42.595  53.583 -54.776  1.00  0.00     0.171 HD
BRANCH  13  16
HETATM   16  C   UNL     1     -40.646  53.816 -53.175  1.00  0.00     0.035 A 
HETATM   17  C   UNL     1     -40.121  52.698 -53.841  1.00  0.00     0.053 A 
HETATM   18  C   UNL     1     -39.614  51.616 -53.116  1.00  0.00     0.069 A 
HETATM   19  C   UNL     1     -39.599  51.667 -51.723  1.00  0.00     0.037 A 
HETATM   20  C   UNL     1     -40.087  52.797 -51.057  1.00  0.00     0.004 A 
HETATM   21  C   UNL     1     -40.609  53.870 -51.781  1.00  0.00     0.017 A 
BRANCH  18  22
HETATM   22  O   UNL     1     -39.169  50.579 -53.889  1.00  0.00    -0.356 OA
HETATM   23  C   UNL     1     -40.158  49.791 -54.542  1.00  0.00     0.210 C 
ENDBRANCH  18  22
ENDBRANCH  13  16
ENDBRANCH  10  12
ENDBRANCH   8  10
ENDBRANCH   5   8
BRANCH   1  24
HETATM   24  N   UNL     1     -45.140  60.599 -51.730  1.00  0.00    -0.376 N 
HETATM   25  C   UNL     1     -44.369  60.799 -50.485  1.00  0.00     0.143 C 
HETATM   26  C   UNL     1     -44.533  62.255 -49.990  1.00  0.00     0.145 C 
HETATM   27  N   UNL     1     -45.944  62.671 -49.891  1.00  0.00    -0.349 N 
HETATM   28  C   UNL     1     -46.422  63.667 -49.048  1.00  0.00     0.219 C 
HETATM   29  C   UNL     1     -46.771  62.336 -51.058  1.00  0.00     0.145 C 
HETATM   30  O   UNL     1     -47.596  64.036 -49.084  1.00  0.00    -0.273 OA
HETATM   31  C   UNL     1     -46.578  60.893 -51.537  1.00  0.00     0.143 C 
BRANCH  28  32
HETATM   32  C   UNL     1     -45.431  64.274 -48.065  1.00  0.00     0.103 C 
BRANCH  32  33
HETATM   33  C   UNL     1     -45.236  63.438 -46.797  1.00  0.00     0.005 C 
HETATM   34  C   UNL     1     -46.550  62.995 -46.166  1.00  0.00     0.005 C 
ENDBRANCH  32  33
ENDBRANCH  28  32
ENDBRANCH   1  24
TORSDOF 8
ENDMDL
MODEL 7
REMARK VINA RESULT:      -7.2      2.719     10.740
REMARK  8 active torsions:
REMARK  status: ('A' for Active; 'I' for Inactive)
REMARK    1  A    between atoms: C_2  and  C_3 
REMARK    2  A    between atoms: C_3  and  C_4 
REMARK       I    between atoms: C_4  and  N_5 
REMARK    3  A    between atoms: N_8  and  C_9 
REMARK    4  A    between atoms: C_13  and  N_14 
REMARK    5  A    between atoms: N_14  and  C_15 
REMARK    6  A    between atoms: C_15  and  N_16 
REMARK       I    between atoms: N_16  and  C_17 
REMARK    7  A    between atoms: C_17  and  C_18 
REMARK    8  A    between atoms: C_20  and  O_21 
ROOT
HETATM    1  C   UNL     1     -43.693  59.842 -51.866  1.00  0.00     0.052 A 
HETATM    2  C   UNL     1     -42.337  59.451 -51.981  1.00  0.00     0.062 A 
HETATM    3 CL   UNL     1     -41.139  59.948 -50.826  1.00  0.00    -0.082 Cl
HETATM    4  C   UNL     1     -41.869  58.722 -53.090  1.00  0.00     0.055 A 
HETATM    5  C   UNL     1     -42.729  58.416 -54.144  1.00  0.00     0.036 A 
HETATM    6  C   UNL     1     -44.078  58.723 -54.012  1.00  0.00     0.032 A 
HETATM    7  C   UNL     1     -44.550  59.418 -52.893  1.00  0.00     0.033 A 
ENDROOT
BRANCH   5   8
HETATM    8  N   UNL     1     -42.205  57.781 -55.290  1.00  0.00    -0.333 N 
HETATM    9  H   UNL     1     -41.924  58.388 -56.062  1.00  0.00     0.168 HD
BRANCH   8  10
HETATM   10  C   UNL     1     -42.210  56.441 -55.603  1.00  0.00     0.179 C 
HETATM   11  S   UNL     1     -42.835  55.680 -56.959  1.00  0.00    -0.040 SA
BRANCH  10  12
HETATM   12  N   UNL     1     -41.598  55.607 -54.690  1.00  0.00    -0.299 N 
HETATM   13  C   UNL     1     -42.143  54.893 -53.634  1.00  0.00     0.257 C 
HETATM   14  O   UNL     1     -43.297  55.023 -53.237  1.00  0.00    -0.267 OA
HETATM   15  H   UNL     1     -40.634  55.432 -54.936  1.00  0.00     0.171 HD
BRANCH  13  16
HETATM   16  C   UNL     1     -41.223  53.906 -53.003  1.00  0.00     0.035 A 
HETATM   17  C   UNL     1     -40.645  52.863 -53.741  1.00  0.00     0.053 A 
HETATM   18  C   UNL     1     -39.868  51.891 -53.104  1.00  0.00     0.069 A 
HETATM   19  C   UNL     1     -39.641  51.982 -51.731  1.00  0.00     0.037 A 
HETATM   20  C   UNL     1     -40.185  53.042 -50.999  1.00  0.00     0.004 A 
HETATM   21  C   UNL     1     -40.974  54.003 -51.633  1.00  0.00     0.017 A 
BRANCH  18  22
HETATM   22  O   UNL     1     -39.397  50.913 -53.936  1.00  0.00    -0.356 OA
HETATM   23  C   UNL     1     -39.625  49.565 -53.541  1.00  0.00     0.210 C 
ENDBRANCH  18  22
ENDBRANCH  13  16
ENDBRANCH  10  12
ENDBRANCH   8  10
ENDBRANCH   5   8
BRANCH   1  24
HETATM   24  N   UNL     1     -44.160  60.668 -50.826  1.00  0.00    -0.376 N 
HETATM   25  C   UNL     1     -45.393  60.212 -50.149  1.00  0.00     0.143 C 
HETATM   26  C   UNL     1     -45.571  60.968 -48.811  1.00  0.00     0.145 C 
HETATM   27  N   UNL     1     -45.480  62.431 -48.963  1.00  0.00    -0.349 N 
HETATM   28  C   UNL     1     -46.068  63.358 -48.109  1.00  0.00     0.219 C 
HETATM   29  C   UNL     1     -44.347  62.900 -49.771  1.00  0.00     0.145 C 
HETATM   30  O   UNL     1     -45.872  64.566 -48.234  1.00  0.00    -0.273 OA
HETATM   31  C   UNL     1     -44.184  62.126 -51.084  1.00  0.00     0.143 C 
BRANCH  28  32
HETATM   32  C   UNL     1     -46.979  62.811 -47.019  1.00  0.00     0.103 C 
BRANCH  32  33
HETATM   33  C   UNL     1     -46.627  63.317 -45.617  1.00  0.00     0.005 C 
HETATM   34  C   UNL     1     -45.249  62.869 -45.148  1.00  0.00     0.005 C 
ENDBRANCH  32  33
ENDBRANCH  28  32
ENDBRANCH   1  24
TORSDOF 8
ENDMDL
MODEL 8
REMARK VINA RESULT:      -7.0      6.186      8.979
REMARK  8 active torsions:
REMARK  status: ('A' for Active; 'I' for Inactive)
REMARK    1  A    between atoms: C_2  and  C_3 
REMARK    2  A    between atoms: C_3  and  C_4 
REMARK       I    between atoms: C_4  and  N_5 
REMARK    3  A    between atoms: N_8  and  C_9 
REMARK    4  A    between atoms: C_13  and  N_14 
REMARK    5  A    between atoms: N_14  and  C_15 
REMARK    6  A    between atoms: C_15  and  N_16 
REMARK       I    between atoms: N_16  and  C_17 
REMARK    7  A    between atoms: C_17  and  C_18 
REMARK    8  A    between atoms: C_20  and  O_21 
ROOT
HETATM    1  C   UNL     1     -42.860  56.487 -53.275  1.00  0.00     0.052 A 
HETATM    2  C   UNL     1     -42.616  57.857 -53.011  1.00  0.00     0.062 A 
HETATM    3 CL   UNL     1     -41.282  58.378 -52.030  1.00  0.00    -0.082 Cl
HETATM    4  C   UNL     1     -43.499  58.863 -53.448  1.00  0.00     0.055 A 
HETATM    5  C   UNL     1     -44.680  58.524 -54.107  1.00  0.00     0.036 A 
HETATM    6  C   UNL     1     -44.896  57.192 -54.443  1.00  0.00     0.032 A 
HETATM    7  C   UNL     1     -44.002  56.196 -54.038  1.00  0.00     0.033 A 
ENDROOT
BRANCH   5   8
HETATM    8  N   UNL     1     -45.597  59.546 -54.434  1.00  0.00    -0.333 N 
HETATM    9  H   UNL     1     -46.426  59.624 -53.844  1.00  0.00     0.168 HD
BRANCH   8  10
HETATM   10  C   UNL     1     -45.639  60.326 -55.567  1.00  0.00     0.179 C 
HETATM   11  S   UNL     1     -46.427  61.785 -55.811  1.00  0.00    -0.040 SA
BRANCH  10  12
HETATM   12  N   UNL     1     -44.918  59.860 -56.647  1.00  0.00    -0.299 N 
HETATM   13  C   UNL     1     -43.775  60.373 -57.241  1.00  0.00     0.257 C 
HETATM   14  O   UNL     1     -43.291  61.469 -56.973  1.00  0.00    -0.267 OA
HETATM   15  H   UNL     1     -45.240  58.949 -56.943  1.00  0.00     0.171 HD
BRANCH  13  16
HETATM   16  C   UNL     1     -43.130  59.477 -58.241  1.00  0.00     0.035 A 
HETATM   17  C   UNL     1     -42.601  59.972 -59.441  1.00  0.00     0.053 A 
HETATM   18  C   UNL     1     -42.094  59.098 -60.406  1.00  0.00     0.069 A 
HETATM   19  C   UNL     1     -42.084  57.727 -60.155  1.00  0.00     0.037 A 
HETATM   20  C   UNL     1     -42.576  57.232 -58.943  1.00  0.00     0.004 A 
HETATM   21  C   UNL     1     -43.097  58.104 -57.986  1.00  0.00     0.017 A 
BRANCH  18  22
HETATM   22  O   UNL     1     -41.645  59.713 -61.543  1.00  0.00    -0.356 OA
HETATM   23  C   UNL     1     -42.212  60.980 -61.857  1.00  0.00     0.210 C 
ENDBRANCH  18  22
ENDBRANCH  13  16
ENDBRANCH  10  12
ENDBRANCH   8  10
ENDBRANCH   5   8
BRANCH   1  24
HETATM   24  N   UNL     1     -42.055  55.458 -52.751  1.00  0.00    -0.376 N 
HETATM   25  C   UNL     1     -41.552  54.474 -53.734  1.00  0.00     0.143 C 
HETATM   26  C   UNL     1     -40.395  53.656 -53.114  1.00  0.00     0.145 C 
HETATM   27  N   UNL     1     -40.742  53.069 -51.808  1.00  0.00    -0.349 N 
HETATM   28  C   UNL     1     -40.155  51.932 -51.265  1.00  0.00     0.219 C 
HETATM   29  C   UNL     1     -41.394  53.992 -50.869  1.00  0.00     0.145 C 
HETATM   30  O   UNL     1     -40.420  51.549 -50.126  1.00  0.00    -0.273 OA
HETATM   31  C   UNL     1     -42.526  54.801 -51.511  1.00  0.00     0.143 C 
BRANCH  28  32
HETATM   32  C   UNL     1     -39.178  51.170 -52.149  1.00  0.00     0.103 C 
BRANCH  32  33
HETATM   33  C   UNL     1     -39.804  49.963 -52.854  1.00  0.00     0.005 C 
HETATM   34  C   UNL     1     -39.743  50.061 -54.373  1.00  0.00     0.005 C 
ENDBRANCH  32  33
ENDBRANCH  28  32
ENDBRANCH   1  24
TORSDOF 8
ENDMDL
MODEL 9
REMARK VINA RESULT:      -7.0      7.860     10.965
REMARK  8 active torsions:
REMARK  status: ('A' for Active; 'I' for Inactive)
REMARK    1  A    between atoms: C_2  and  C_3 
REMARK    2  A    between atoms: C_3  and  C_4 
REMARK       I    between atoms: C_4  and  N_5 
REMARK    3  A    between atoms: N_8  and  C_9 
REMARK    4  A    between atoms: C_13  and  N_14 
REMARK    5  A    between atoms: N_14  and  C_15 
REMARK    6  A    between atoms: C_15  and  N_16 
REMARK       I    between atoms: N_16  and  C_17 
REMARK    7  A    between atoms: C_17  and  C_18 
REMARK    8  A    between atoms: C_20  and  O_21 
ROOT
HETATM    1  C   UNL     1     -42.051  56.088 -55.592  1.00  0.00     0.052 A 
HETATM    2  C   UNL     1     -42.130  57.497 -55.467  1.00  0.00     0.062 A 
HETATM    3 CL   UNL     1     -41.475  58.332 -54.094  1.00  0.00    -0.082 Cl
HETATM    4  C   UNL     1     -42.830  58.284 -56.401  1.00  0.00     0.055 A 
HETATM    5  C   UNL     1     -43.522  57.681 -57.450  1.00  0.00     0.036 A 
HETATM    6  C   UNL     1     -43.391  56.309 -57.633  1.00  0.00     0.032 A 
HETATM    7  C   UNL     1     -42.666  55.530 -56.724  1.00  0.00     0.033 A 
ENDROOT
BRANCH   5   8
HETATM    8  N   UNL     1     -44.305  58.487 -58.304  1.00  0.00    -0.333 N 
HETATM    9  H   UNL     1     -45.183  58.841 -57.923  1.00  0.00     0.168 HD
BRANCH   8  10
HETATM   10  C   UNL     1     -44.155  58.697 -59.656  1.00  0.00     0.179 C 
HETATM   11  S   UNL     1     -42.778  59.131 -60.507  1.00  0.00    -0.040 SA
BRANCH  10  12
HETATM   12  N   UNL     1     -45.284  58.503 -60.424  1.00  0.00    -0.299 N 
HETATM   13  C   UNL     1     -46.325  57.601 -60.264  1.00  0.00     0.257 C 
HETATM   14  O   UNL     1     -46.322  56.683 -59.450  1.00  0.00    -0.267 OA
HETATM   15  H   UNL     1     -45.381  59.221 -61.129  1.00  0.00     0.171 HD
BRANCH  13  16
HETATM   16  C   UNL     1     -47.500  57.834 -61.150  1.00  0.00     0.035 A 
HETATM   17  C   UNL     1     -48.079  59.104 -61.286  1.00  0.00     0.053 A 
HETATM   18  C   UNL     1     -49.241  59.275 -62.042  1.00  0.00     0.069 A 
HETATM   19  C   UNL     1     -49.807  58.179 -62.693  1.00  0.00     0.037 A 
HETATM   20  C   UNL     1     -49.210  56.918 -62.590  1.00  0.00     0.004 A 
HETATM   21  C   UNL     1     -48.059  56.745 -61.821  1.00  0.00     0.017 A 
BRANCH  18  22
HETATM   22  O   UNL     1     -49.718  60.557 -62.059  1.00  0.00    -0.356 OA
HETATM   23  C   UNL     1     -49.982  61.164 -60.800  1.00  0.00     0.210 C 
ENDBRANCH  18  22
ENDBRANCH  13  16
ENDBRANCH  10  12
ENDBRANCH   8  10
ENDBRANCH   5   8
BRANCH   1  24
HETATM   24  N   UNL     1     -41.456  55.271 -54.613  1.00  0.00    -0.376 N 
HETATM   25  C   UNL     1     -40.853  54.013 -55.106  1.00  0.00     0.143 C 
HETATM   26  C   UNL     1     -39.916  53.421 -54.028  1.00  0.00     0.145 C 
HETATM   27  N   UNL     1     -40.564  53.294 -52.710  1.00  0.00    -0.349 N 
HETATM   28  C   UNL     1     -40.194  52.385 -51.725  1.00  0.00     0.219 C 
HETATM   29  C   UNL     1     -41.308  54.482 -52.270  1.00  0.00     0.145 C 
HETATM   30  O   UNL     1     -40.711  52.397 -50.609  1.00  0.00    -0.273 OA
HETATM   31  C   UNL     1     -42.218  55.058 -53.361  1.00  0.00     0.143 C 
BRANCH  28  32
HETATM   32  C   UNL     1     -39.130  51.362 -52.095  1.00  0.00     0.103 C 
BRANCH  32  33
HETATM   33  C   UNL     1     -39.705  50.016 -52.546  1.00  0.00     0.005 C 
HETATM   34  C   UNL     1     -39.739  49.858 -54.060  1.00  0.00     0.005 C 
ENDBRANCH  32  33
ENDBRANCH  28  32
ENDBRANCH   1  24
TORSDOF 8
ENDMDL
MODEL 10
REMARK VINA RESULT:      -7.0      7.295      9.926
REMARK  8 active torsions:
REMARK  status: ('A' for Active; 'I' for Inactive)
REMARK    1  A    between atoms: C_2  and  C_3 
REMARK    2  A    between atoms: C_3  and  C_4 
REMARK       I    between atoms: C_4  and  N_5 
REMARK    3  A    between atoms: N_8  and  C_9 
REMARK    4  A    between atoms: C_13  and  N_14 
REMARK    5  A    between atoms: N_14  and  C_15 
REMARK    6  A    between atoms: C_15  and  N_16 
REMARK       I    between atoms: N_16  and  C_17 
REMARK    7  A    between atoms: C_17  and  C_18 
REMARK    8  A    between atoms: C_20  and  O_21 
ROOT
HETATM    1  C   UNL     1     -42.082  56.796 -54.646  1.00  0.00     0.052 A 
HETATM    2  C   UNL     1     -41.750  58.164 -54.491  1.00  0.00     0.062 A 
HETATM    3 CL   UNL     1     -40.501  58.685 -53.402  1.00  0.00    -0.082 Cl
HETATM    4  C   UNL     1     -42.481  59.180 -55.134  1.00  0.00     0.055 A 
HETATM    5  C   UNL     1     -43.600  58.862 -55.902  1.00  0.00     0.036 A 
HETATM    6  C   UNL     1     -43.892  57.522 -56.130  1.00  0.00     0.032 A 
HETATM    7  C   UNL     1     -43.145  56.511 -55.517  1.00  0.00     0.033 A 
ENDROOT
BRANCH   5   8
HETATM    8  N   UNL     1     -44.376  59.909 -56.444  1.00  0.00    -0.333 N 
HETATM    9  H   UNL     1     -45.092  60.310 -55.837  1.00  0.00     0.168 HD
BRANCH   8  10
HETATM   10  C   UNL     1     -44.448  60.332 -57.752  1.00  0.00     0.179 C 
HETATM   11  S   UNL     1     -45.717  60.184 -58.837  1.00  0.00    -0.040 SA
BRANCH  10  12
HETATM   12  N   UNL     1     -43.334  60.986 -58.235  1.00  0.00    -0.299 N 
HETATM   13  C   UNL     1     -42.201  60.478 -58.853  1.00  0.00     0.257 C 
HETATM   14  O   UNL     1     -41.936  59.282 -58.929  1.00  0.00    -0.267 OA
HETATM   15  H   UNL     1     -43.457  61.990 -58.219  1.00  0.00     0.171 HD
BRANCH  13  16
HETATM   16  C   UNL     1     -41.305  61.500 -59.461  1.00  0.00     0.035 A 
HETATM   17  C   UNL     1     -41.355  61.802 -60.829  1.00  0.00     0.053 A 
HETATM   18  C   UNL     1     -40.435  62.690 -61.393  1.00  0.00     0.069 A 
HETATM   19  C   UNL     1     -39.483  63.304 -60.579  1.00  0.00     0.037 A 
HETATM   20  C   UNL     1     -39.455  63.034 -59.207  1.00  0.00     0.004 A 
HETATM   21  C   UNL     1     -40.364  62.135 -58.647  1.00  0.00     0.017 A 
BRANCH  18  22
HETATM   22  O   UNL     1     -40.574  62.864 -62.743  1.00  0.00    -0.356 OA
HETATM   23  C   UNL     1     -39.395  63.170 -63.479  1.00  0.00     0.210 C 
ENDBRANCH  18  22
ENDBRANCH  13  16
ENDBRANCH  10  12
ENDBRANCH   8  10
ENDBRANCH   5   8
BRANCH   1  24
HETATM   24  N   UNL     1     -41.440  55.771 -53.924  1.00  0.00    -0.376 N 
HETATM   25  C   UNL     1     -41.071  54.571 -54.705  1.00  0.00     0.143 C 
HETATM   26  C   UNL     1     -40.052  53.720 -53.911  1.00  0.00     0.145 C 
HETATM   27  N   UNL     1     -40.497  53.424 -52.538  1.00  0.00    -0.349 N 
HETATM   28  C   UNL     1     -40.086  52.329 -51.787  1.00  0.00     0.219 C 
HETATM   29  C   UNL     1     -41.021  54.578 -51.796  1.00  0.00     0.145 C 
HETATM   30  O   UNL     1     -40.419  52.192 -50.609  1.00  0.00    -0.273 OA
HETATM   31  C   UNL     1     -42.017  55.413 -52.609  1.00  0.00     0.143 C 
BRANCH  28  32
HETATM   32  C   UNL     1     -39.218  51.295 -52.490  1.00  0.00     0.103 C 
BRANCH  32  33
HETATM   33  C   UNL     1     -40.016  50.144 -53.108  1.00  0.00     0.005 C 
HETATM   34  C   UNL     1     -39.691  49.913 -54.578  1.00  0.00     0.005 C 
ENDBRANCH  32  33
ENDBRANCH  28  32
ENDBRANCH   1  24
TORSDOF 8
ENDMDL
