MODEL 1
REMARK VINA RESULT:      -7.9      0.000      0.000
REMARK  5 active torsions:
REMARK  status: ('A' for Active; 'I' for Inactive)
REMARK    1  A    between atoms: C_3  and  N_4 
REMARK       I    between atoms: N_4  and  C_5 
REMARK       I    between atoms: C_5  and  N_6 
REMARK    2  A    between atoms: N_6  and  C_7 
REMARK    3  A    between atoms: C_7  and  C_8 
REMARK    4  A    between atoms: C_8  and  C_9 
REMARK    5  A    between atoms: N_16  and  C_17 
ROOT
HETATM    1  C   UNL     1     -40.418  54.184 -47.905  1.00  0.00     0.054 C 
HETATM    2  C   UNL     1     -40.423  53.864 -49.354  1.00  0.00     0.003 A 
HETATM    3  C   UNL     1     -40.675  54.703 -50.469  1.00  0.00     0.159 A 
HETATM    4  N   UNL     1     -40.637  54.018 -51.615  1.00  0.00    -0.149 NA
HETATM    5  N   UNL     1     -40.252  52.750 -51.272  1.00  0.00    -0.241 N 
HETATM    6  C   UNL     1     -40.207  52.621 -49.905  1.00  0.00     0.129 A 
ENDROOT
BRANCH   3   7
HETATM    7  N   UNL     1     -40.953  56.046 -50.359  1.00  0.00    -0.291 N 
HETATM    8  C   UNL     1     -41.341  56.955 -51.283  1.00  0.00     0.321 C 
HETATM    9  N   UNL     1     -41.484  56.561 -52.574  1.00  0.00    -0.342 N 
HETATM   10  O   UNL     1     -41.560  58.108 -50.909  1.00  0.00    -0.247 OA
HETATM   11  H   UNL     1     -41.455  55.559 -52.745  1.00  0.00     0.164 HD
HETATM   12  H   UNL     1     -40.889  56.451 -49.438  1.00  0.00     0.172 HD
BRANCH   9  13
HETATM   13  C   UNL     1     -42.094  57.465 -53.520  1.00  0.00     0.134 C 
BRANCH  13  14
HETATM   14  C   UNL     1     -43.158  56.798 -54.375  1.00  0.00    -0.021 A 
HETATM   15  C   UNL     1     -44.595  57.175 -54.024  1.00  0.00     0.012 A 
HETATM   16  C   UNL     1     -43.978  57.706 -55.280  1.00  0.00     0.012 A 
BRANCH  14  17
HETATM   17  C   UNL     1     -42.840  55.329 -54.756  1.00  0.00    -0.004 A 
HETATM   18  C   UNL     1     -42.978  54.770 -56.155  1.00  0.00     0.006 A 
HETATM   19  C   UNL     1     -41.619  54.937 -55.553  1.00  0.00     0.006 A 
ENDBRANCH  14  17
ENDBRANCH  13  14
ENDBRANCH   9  13
ENDBRANCH   3   7
BRANCH   5  20
HETATM   20  C   UNL     1     -40.024  51.769 -52.286  1.00  0.00     0.079 A 
HETATM   21  C   UNL     1     -39.727  50.416 -52.052  1.00  0.00     0.062 A 
HETATM   22 CL   UNL     1     -39.399  49.702 -50.512  1.00  0.00    -0.082 Cl
HETATM   23  C   UNL     1     -39.576  49.535 -53.139  1.00  0.00     0.026 A 
HETATM   24  C   UNL     1     -39.693  49.984 -54.452  1.00  0.00     0.002 A 
HETATM   25  C   UNL     1     -39.949  51.325 -54.696  1.00  0.00     0.002 A 
HETATM   26  C   UNL     1     -40.108  52.207 -53.624  1.00  0.00     0.033 A 
ENDBRANCH   5  20
TORSDOF 5
ENDMDL
MODEL 2
REMARK VINA RESULT:      -7.9      3.640      5.401
REMARK  5 active torsions:
REMARK  status: ('A' for Active; 'I' for Inactive)
REMARK    1  A    between atoms: C_3  and  N_4 
REMARK       I    between atoms: N_4  and  C_5 
REMARK       I    between atoms: C_5  and  N_6 
REMARK    2  A    between atoms: N_6  and  C_7 
REMARK    3  A    between atoms: C_7  and  C_8 
REMARK    4  A    between atoms: C_8  and  C_9 
REMARK    5  A    between atoms: N_16  and  C_17 
ROOT
HETATM    1  C   UNL     1     -44.729  56.917 -54.355  1.00  0.00     0.054 C 
HETATM    2  C   UNL     1     -43.463  56.148 -54.439  1.00  0.00     0.003 A 
HETATM    3  C   UNL     1     -42.352  56.317 -55.305  1.00  0.00     0.159 A 
HETATM    4  N   UNL     1     -41.425  55.379 -55.100  1.00  0.00    -0.149 NA
HETATM    5  N   UNL     1     -41.866  54.655 -54.025  1.00  0.00    -0.241 N 
HETATM    6  C   UNL     1     -43.134  55.051 -53.675  1.00  0.00     0.129 A 
ENDROOT
BRANCH   3   7
HETATM    7  N   UNL     1     -42.276  57.311 -56.253  1.00  0.00    -0.291 N 
HETATM    8  C   UNL     1     -42.436  57.277 -57.596  1.00  0.00     0.321 C 
HETATM    9  N   UNL     1     -42.699  56.088 -58.197  1.00  0.00    -0.342 N 
HETATM   10  O   UNL     1     -42.347  58.334 -58.221  1.00  0.00    -0.247 OA
HETATM   11  H   UNL     1     -42.930  55.313 -57.581  1.00  0.00     0.164 HD
HETATM   12  H   UNL     1     -42.093  58.245 -55.922  1.00  0.00     0.172 HD
BRANCH   9  13
HETATM   13  C   UNL     1     -43.075  56.075 -59.591  1.00  0.00     0.134 C 
BRANCH  13  14
HETATM   14  C   UNL     1     -44.529  55.690 -59.807  1.00  0.00    -0.021 A 
HETATM   15  C   UNL     1     -44.806  54.918 -61.094  1.00  0.00     0.012 A 
HETATM   16  C   UNL     1     -44.856  54.204 -59.780  1.00  0.00     0.012 A 
BRANCH  14  17
HETATM   17  C   UNL     1     -45.547  56.763 -59.342  1.00  0.00    -0.004 A 
HETATM   18  C   UNL     1     -45.940  57.969 -60.167  1.00  0.00     0.006 A 
HETATM   19  C   UNL     1     -46.936  56.880 -59.923  1.00  0.00     0.006 A 
ENDBRANCH  14  17
ENDBRANCH  13  14
ENDBRANCH   9  13
ENDBRANCH   3   7
BRANCH   5  20
HETATM   20  C   UNL     1     -41.056  53.612 -53.478  1.00  0.00     0.079 A 
HETATM   21  C   UNL     1     -40.622  53.540 -52.144  1.00  0.00     0.062 A 
HETATM   22 CL   UNL     1     -40.821  54.768 -50.945  1.00  0.00    -0.082 Cl
HETATM   23  C   UNL     1     -39.869  52.431 -51.713  1.00  0.00     0.026 A 
HETATM   24  C   UNL     1     -39.523  51.409 -52.593  1.00  0.00     0.002 A 
HETATM   25  C   UNL     1     -39.914  51.489 -53.922  1.00  0.00     0.002 A 
HETATM   26  C   UNL     1     -40.668  52.581 -54.359  1.00  0.00     0.033 A 
ENDBRANCH   5  20
TORSDOF 5
ENDMDL
MODEL 3
REMARK VINA RESULT:      -7.6      3.334      4.883
REMARK  5 active torsions:
REMARK  status: ('A' for Active; 'I' for Inactive)
REMARK    1  A    between atoms: C_3  and  N_4 
REMARK       I    between atoms: N_4  and  C_5 
REMARK       I    between atoms: C_5  and  N_6 
REMARK    2  A    between atoms: N_6  and  C_7 
REMARK    3  A    between atoms: C_7  and  C_8 
REMARK    4  A    between atoms: C_8  and  C_9 
REMARK    5  A    between atoms: N_16  and  C_17 
ROOT
HETATM    1  C   UNL     1     -44.596  57.253 -53.622  1.00  0.00     0.054 C 
HETATM    2  C   UNL     1     -43.353  56.471 -53.835  1.00  0.00     0.003 A 
HETATM    3  C   UNL     1     -42.225  56.760 -54.644  1.00  0.00     0.159 A 
HETATM    4  N   UNL     1     -41.330  55.771 -54.607  1.00  0.00    -0.149 NA
HETATM    5  N   UNL     1     -41.809  54.876 -53.689  1.00  0.00    -0.241 N 
HETATM    6  C   UNL     1     -43.069  55.242 -53.283  1.00  0.00     0.129 A 
ENDROOT
BRANCH   3   7
HETATM    7  N   UNL     1     -42.104  57.909 -55.392  1.00  0.00    -0.291 N 
HETATM    8  C   UNL     1     -42.584  58.230 -56.616  1.00  0.00     0.321 C 
HETATM    9  N   UNL     1     -43.301  57.306 -57.305  1.00  0.00    -0.342 N 
HETATM   10  O   UNL     1     -42.356  59.360 -57.053  1.00  0.00    -0.247 OA
HETATM   11  H   UNL     1     -43.584  56.479 -56.788  1.00  0.00     0.164 HD
HETATM   12  H   UNL     1     -41.597  58.674 -54.976  1.00  0.00     0.172 HD
BRANCH   9  13
HETATM   13  C   UNL     1     -43.987  57.708 -58.510  1.00  0.00     0.134 C 
BRANCH  13  14
HETATM   14  C   UNL     1     -43.344  57.154 -59.770  1.00  0.00    -0.021 A 
HETATM   15  C   UNL     1     -42.677  58.196 -60.664  1.00  0.00     0.012 A 
HETATM   16  C   UNL     1     -41.829  57.254 -59.867  1.00  0.00     0.012 A 
BRANCH  14  17
HETATM   17  C   UNL     1     -44.133  55.994 -60.430  1.00  0.00    -0.004 A 
HETATM   18  C   UNL     1     -44.401  54.664 -59.759  1.00  0.00     0.006 A 
HETATM   19  C   UNL     1     -45.532  55.611 -60.008  1.00  0.00     0.006 A 
ENDBRANCH  14  17
ENDBRANCH  13  14
ENDBRANCH   9  13
ENDBRANCH   3   7
BRANCH   5  20
HETATM   20  C   UNL     1     -41.039  53.725 -53.336  1.00  0.00     0.079 A 
HETATM   21  C   UNL     1     -40.522  53.458 -52.057  1.00  0.00     0.062 A 
HETATM   22 CL   UNL     1     -40.553  54.535 -50.705  1.00  0.00    -0.082 Cl
HETATM   23  C   UNL     1     -39.822  52.260 -51.823  1.00  0.00     0.026 A 
HETATM   24  C   UNL     1     -39.608  51.338 -52.844  1.00  0.00     0.002 A 
HETATM   25  C   UNL     1     -40.082  51.609 -54.119  1.00  0.00     0.002 A 
HETATM   26  C   UNL     1     -40.785  52.791 -54.362  1.00  0.00     0.033 A 
ENDBRANCH   5  20
TORSDOF 5
ENDMDL
MODEL 4
REMARK VINA RESULT:      -7.6      2.705      4.210
REMARK  5 active torsions:
REMARK  status: ('A' for Active; 'I' for Inactive)
REMARK    1  A    between atoms: C_3  and  N_4 
REMARK       I    between atoms: N_4  and  C_5 
REMARK       I    between atoms: C_5  and  N_6 
REMARK    2  A    between atoms: N_6  and  C_7 
REMARK    3  A    between atoms: C_7  and  C_8 
REMARK    4  A    between atoms: C_8  and  C_9 
REMARK    5  A    between atoms: N_16  and  C_17 
ROOT
HETATM    1  C   UNL     1     -44.163  57.271 -52.368  1.00  0.00     0.054 C 
HETATM    2  C   UNL     1     -43.010  56.466 -52.844  1.00  0.00     0.003 A 
HETATM    3  C   UNL     1     -41.950  56.823 -53.716  1.00  0.00     0.159 A 
HETATM    4  N   UNL     1     -41.134  55.792 -53.941  1.00  0.00    -0.149 NA
HETATM    5  N   UNL     1     -41.585  54.783 -53.134  1.00  0.00    -0.241 N 
HETATM    6  C   UNL     1     -42.767  55.147 -52.536  1.00  0.00     0.129 A 
ENDROOT
BRANCH   3   7
HETATM    7  N   UNL     1     -41.818  58.074 -54.274  1.00  0.00    -0.291 N 
HETATM    8  C   UNL     1     -41.921  58.493 -55.557  1.00  0.00     0.321 C 
HETATM    9  N   UNL     1     -42.175  57.579 -56.529  1.00  0.00    -0.342 N 
HETATM   10  O   UNL     1     -41.789  59.695 -55.790  1.00  0.00    -0.247 OA
HETATM   11  H   UNL     1     -42.444  56.651 -56.216  1.00  0.00     0.164 HD
HETATM   12  H   UNL     1     -41.637  58.839 -53.644  1.00  0.00     0.172 HD
BRANCH   9  13
HETATM   13  C   UNL     1     -42.491  58.042 -57.860  1.00  0.00     0.134 C 
BRANCH  13  14
HETATM   14  C   UNL     1     -43.454  57.123 -58.592  1.00  0.00    -0.021 A 
HETATM   15  C   UNL     1     -42.803  56.182 -59.604  1.00  0.00     0.012 A 
HETATM   16  C   UNL     1     -43.325  55.632 -58.313  1.00  0.00     0.012 A 
BRANCH  14  17
HETATM   17  C   UNL     1     -44.815  57.777 -58.944  1.00  0.00    -0.004 A 
HETATM   18  C   UNL     1     -45.910  58.044 -57.935  1.00  0.00     0.006 A 
HETATM   19  C   UNL     1     -45.170  59.190 -58.548  1.00  0.00     0.006 A 
ENDBRANCH  14  17
ENDBRANCH  13  14
ENDBRANCH   9  13
ENDBRANCH   3   7
BRANCH   5  20
HETATM   20  C   UNL     1     -40.873  53.546 -53.062  1.00  0.00     0.079 A 
HETATM   21  C   UNL     1     -40.214  53.056 -51.923  1.00  0.00     0.062 A 
HETATM   22 CL   UNL     1     -39.972  53.916 -50.443  1.00  0.00    -0.082 Cl
HETATM   23  C   UNL     1     -39.590  51.795 -51.964  1.00  0.00     0.026 A 
HETATM   24  C   UNL     1     -39.593  51.026 -53.125  1.00  0.00     0.002 A 
HETATM   25  C   UNL     1     -40.209  51.517 -54.267  1.00  0.00     0.002 A 
HETATM   26  C   UNL     1     -40.838  52.764 -54.236  1.00  0.00     0.033 A 
ENDBRANCH   5  20
TORSDOF 5
ENDMDL
MODEL 5
REMARK VINA RESULT:      -7.6      3.670      5.544
REMARK  5 active torsions:
REMARK  status: ('A' for Active; 'I' for Inactive)
REMARK    1  A    between atoms: C_3  and  N_4 
REMARK       I    between atoms: N_4  and  C_5 
REMARK       I    between atoms: C_5  and  N_6 
REMARK    2  A    between atoms: N_6  and  C_7 
REMARK    3  A    between atoms: C_7  and  C_8 
REMARK    4  A    between atoms: C_8  and  C_9 
REMARK    5  A    between atoms: N_16  and  C_17 
ROOT
HETATM    1  C   UNL     1     -44.994  58.758 -52.218  1.00  0.00     0.054 C 
HETATM    2  C   UNL     1     -44.390  57.708 -53.075  1.00  0.00     0.003 A 
HETATM    3  C   UNL     1     -44.660  57.370 -54.426  1.00  0.00     0.159 A 
HETATM    4  N   UNL     1     -43.936  56.322 -54.822  1.00  0.00    -0.149 NA
HETATM    5  N   UNL     1     -43.104  56.032 -53.774  1.00  0.00    -0.241 N 
HETATM    6  C   UNL     1     -43.430  56.802 -52.684  1.00  0.00     0.129 A 
ENDROOT
BRANCH   3   7
HETATM    7  N   UNL     1     -45.582  58.034 -55.202  1.00  0.00    -0.291 N 
HETATM    8  C   UNL     1     -45.679  58.179 -56.544  1.00  0.00     0.321 C 
HETATM    9  N   UNL     1     -44.727  57.621 -57.336  1.00  0.00    -0.342 N 
HETATM   10  O   UNL     1     -46.638  58.806 -56.995  1.00  0.00    -0.247 OA
HETATM   11  H   UNL     1     -44.085  56.977 -56.883  1.00  0.00     0.164 HD
HETATM   12  H   UNL     1     -46.346  58.483 -54.721  1.00  0.00     0.172 HD
BRANCH   9  13
HETATM   13  C   UNL     1     -44.934  57.591 -58.765  1.00  0.00     0.134 C 
BRANCH  13  14
HETATM   14  C   UNL     1     -43.752  57.009 -59.521  1.00  0.00    -0.021 A 
HETATM   15  C   UNL     1     -42.822  58.041 -60.155  1.00  0.00     0.012 A 
HETATM   16  C   UNL     1     -42.369  57.282 -58.946  1.00  0.00     0.012 A 
BRANCH  14  17
HETATM   17  C   UNL     1     -44.074  55.709 -60.302  1.00  0.00    -0.004 A 
HETATM   18  C   UNL     1     -44.445  54.398 -59.644  1.00  0.00     0.006 A 
HETATM   19  C   UNL     1     -45.473  55.154 -60.426  1.00  0.00     0.006 A 
ENDBRANCH  14  17
ENDBRANCH  13  14
ENDBRANCH   9  13
ENDBRANCH   3   7
BRANCH   5  20
HETATM   20  C   UNL     1     -42.120  55.003 -53.899  1.00  0.00     0.079 A 
HETATM   21  C   UNL     1     -41.921  53.957 -52.983  1.00  0.00     0.062 A 
HETATM   22 CL   UNL     1     -42.689  53.799 -51.442  1.00  0.00    -0.082 Cl
HETATM   23  C   UNL     1     -40.951  52.972 -53.246  1.00  0.00     0.026 A 
HETATM   24  C   UNL     1     -40.163  53.025 -54.393  1.00  0.00     0.002 A 
HETATM   25  C   UNL     1     -40.325  54.074 -55.286  1.00  0.00     0.002 A 
HETATM   26  C   UNL     1     -41.290  55.053 -55.039  1.00  0.00     0.033 A 
ENDBRANCH   5  20
TORSDOF 5
ENDMDL
MODEL 6
REMARK VINA RESULT:      -7.5      2.607      3.716
REMARK  5 active torsions:
REMARK  status: ('A' for Active; 'I' for Inactive)
REMARK    1  A    between atoms: C_3  and  N_4 
REMARK       I    between atoms: N_4  and  C_5 
REMARK       I    between atoms: C_5  and  N_6 
REMARK    2  A    between atoms: N_6  and  C_7 
REMARK    3  A    between atoms: C_7  and  C_8 
REMARK    4  A    between atoms: C_8  and  C_9 
REMARK    5  A    between atoms: N_16  and  C_17 
ROOT
HETATM    1  C   UNL     1     -43.486  57.549 -51.611  1.00  0.00     0.054 C 
HETATM    2  C   UNL     1     -42.504  56.662 -52.282  1.00  0.00     0.003 A 
HETATM    3  C   UNL     1     -41.574  56.951 -53.313  1.00  0.00     0.159 A 
HETATM    4  N   UNL     1     -40.901  55.860 -53.685  1.00  0.00    -0.149 NA
HETATM    5  N   UNL     1     -41.302  54.872 -52.827  1.00  0.00    -0.241 N 
HETATM    6  C   UNL     1     -42.332  55.319 -52.036  1.00  0.00     0.129 A 
ENDROOT
BRANCH   3   7
HETATM    7  N   UNL     1     -41.425  58.201 -53.869  1.00  0.00    -0.291 N 
HETATM    8  C   UNL     1     -41.977  58.757 -54.973  1.00  0.00     0.321 C 
HETATM    9  N   UNL     1     -42.820  58.013 -55.733  1.00  0.00    -0.342 N 
HETATM   10  O   UNL     1     -41.697  59.928 -55.237  1.00  0.00    -0.247 OA
HETATM   11  H   UNL     1     -43.124  57.129 -55.335  1.00  0.00     0.164 HD
HETATM   12  H   UNL     1     -40.825  58.849 -53.383  1.00  0.00     0.172 HD
BRANCH   9  13
HETATM   13  C   UNL     1     -43.570  58.659 -56.785  1.00  0.00     0.134 C 
BRANCH  13  14
HETATM   14  C   UNL     1     -43.128  58.232 -58.174  1.00  0.00    -0.021 A 
HETATM   15  C   UNL     1     -42.975  59.371 -59.179  1.00  0.00     0.012 A 
HETATM   16  C   UNL     1     -41.754  58.702 -58.630  1.00  0.00     0.012 A 
BRANCH  14  17
HETATM   17  C   UNL     1     -43.735  56.888 -58.650  1.00  0.00    -0.004 A 
HETATM   18  C   UNL     1     -43.056  55.953 -59.628  1.00  0.00     0.006 A 
HETATM   19  C   UNL     1     -43.210  55.546 -58.196  1.00  0.00     0.006 A 
ENDBRANCH  14  17
ENDBRANCH  13  14
ENDBRANCH   9  13
ENDBRANCH   3   7
BRANCH   5  20
HETATM   20  C   UNL     1     -40.700  53.576 -52.891  1.00  0.00     0.079 A 
HETATM   21  C   UNL     1     -40.026  52.944 -51.833  1.00  0.00     0.062 A 
HETATM   22 CL   UNL     1     -39.627  53.661 -50.312  1.00  0.00    -0.082 Cl
HETATM   23  C   UNL     1     -39.521  51.641 -52.006  1.00  0.00     0.026 A 
HETATM   24  C   UNL     1     -39.658  50.970 -53.218  1.00  0.00     0.002 A 
HETATM   25  C   UNL     1     -40.290  51.599 -54.280  1.00  0.00     0.002 A 
HETATM   26  C   UNL     1     -40.801  52.889 -54.119  1.00  0.00     0.033 A 
ENDBRANCH   5  20
TORSDOF 5
ENDMDL
MODEL 7
REMARK VINA RESULT:      -7.4      2.396      4.600
REMARK  5 active torsions:
REMARK  status: ('A' for Active; 'I' for Inactive)
REMARK    1  A    between atoms: C_3  and  N_4 
REMARK       I    between atoms: N_4  and  C_5 
REMARK       I    between atoms: C_5  and  N_6 
REMARK    2  A    between atoms: N_6  and  C_7 
REMARK    3  A    between atoms: C_7  and  C_8 
REMARK    4  A    between atoms: C_8  and  C_9 
REMARK    5  A    between atoms: N_16  and  C_17 
ROOT
HETATM    1  C   UNL     1     -42.935  55.947 -56.815  1.00  0.00     0.054 C 
HETATM    2  C   UNL     1     -42.594  55.200 -55.578  1.00  0.00     0.003 A 
HETATM    3  C   UNL     1     -43.141  55.303 -54.274  1.00  0.00     0.159 A 
HETATM    4  N   UNL     1     -42.521  54.489 -53.418  1.00  0.00    -0.149 NA
HETATM    5  N   UNL     1     -41.639  53.764 -54.173  1.00  0.00    -0.241 N 
HETATM    6  C   UNL     1     -41.609  54.245 -55.459  1.00  0.00     0.129 A 
ENDROOT
BRANCH   3   7
HETATM    7  N   UNL     1     -44.162  56.166 -53.948  1.00  0.00    -0.291 N 
HETATM    8  C   UNL     1     -44.234  57.153 -53.025  1.00  0.00     0.321 C 
HETATM    9  N   UNL     1     -43.162  57.385 -52.224  1.00  0.00    -0.342 N 
HETATM   10  O   UNL     1     -45.272  57.813 -52.957  1.00  0.00    -0.247 OA
HETATM   11  H   UNL     1     -42.299  56.913 -52.479  1.00  0.00     0.164 HD
HETATM   12  H   UNL     1     -45.011  56.094 -54.486  1.00  0.00     0.172 HD
BRANCH   9  13
HETATM   13  C   UNL     1     -43.154  58.562 -51.387  1.00  0.00     0.134 C 
BRANCH  13  14
HETATM   14  C   UNL     1     -41.975  59.478 -51.668  1.00  0.00    -0.021 A 
HETATM   15  C   UNL     1     -40.993  59.637 -50.510  1.00  0.00     0.012 A 
HETATM   16  C   UNL     1     -40.598  58.831 -51.708  1.00  0.00     0.012 A 
BRANCH  14  17
HETATM   17  C   UNL     1     -42.324  60.717 -52.531  1.00  0.00    -0.004 A 
HETATM   18  C   UNL     1     -42.540  60.672 -54.028  1.00  0.00     0.006 A 
HETATM   19  C   UNL     1     -43.696  60.945 -53.120  1.00  0.00     0.006 A 
ENDBRANCH  14  17
ENDBRANCH  13  14
ENDBRANCH   9  13
ENDBRANCH   3   7
BRANCH   5  20
HETATM   20  C   UNL     1     -40.865  52.723 -53.574  1.00  0.00     0.079 A 
HETATM   21  C   UNL     1     -40.319  52.762 -52.280  1.00  0.00     0.062 A 
HETATM   22 CL   UNL     1     -40.312  54.129 -51.223  1.00  0.00    -0.082 Cl
HETATM   23  C   UNL     1     -39.618  51.646 -51.783  1.00  0.00     0.026 A 
HETATM   24  C   UNL     1     -39.434  50.506 -52.560  1.00  0.00     0.002 A 
HETATM   25  C   UNL     1     -39.937  50.471 -53.853  1.00  0.00     0.002 A 
HETATM   26  C   UNL     1     -40.640  51.569 -54.354  1.00  0.00     0.033 A 
ENDBRANCH   5  20
TORSDOF 5
ENDMDL
MODEL 8
REMARK VINA RESULT:      -7.3      3.656      7.101
REMARK  5 active torsions:
REMARK  status: ('A' for Active; 'I' for Inactive)
REMARK    1  A    between atoms: C_3  and  N_4 
REMARK       I    between atoms: N_4  and  C_5 
REMARK       I    between atoms: C_5  and  N_6 
REMARK    2  A    between atoms: N_6  and  C_7 
REMARK    3  A    between atoms: C_7  and  C_8 
REMARK    4  A    between atoms: C_8  and  C_9 
REMARK    5  A    between atoms: N_16  and  C_17 
ROOT
HETATM    1  C   UNL     1     -45.139  59.583 -53.557  1.00  0.00     0.054 C 
HETATM    2  C   UNL     1     -44.247  58.773 -54.424  1.00  0.00     0.003 A 
HETATM    3  C   UNL     1     -43.270  57.808 -54.073  1.00  0.00     0.159 A 
HETATM    4  N   UNL     1     -42.637  57.338 -55.150  1.00  0.00    -0.149 NA
HETATM    5  N   UNL     1     -43.267  57.907 -56.223  1.00  0.00    -0.241 N 
HETATM    6  C   UNL     1     -44.179  58.842 -55.797  1.00  0.00     0.129 A 
ENDROOT
BRANCH   3   7
HETATM    7  N   UNL     1     -43.002  57.440 -52.774  1.00  0.00    -0.291 N 
HETATM    8  C   UNL     1     -42.780  56.226 -52.220  1.00  0.00     0.321 C 
HETATM    9  N   UNL     1     -42.834  55.122 -53.009  1.00  0.00    -0.342 N 
HETATM   10  O   UNL     1     -42.526  56.173 -51.015  1.00  0.00    -0.247 OA
HETATM   11  H   UNL     1     -42.871  55.286 -54.011  1.00  0.00     0.164 HD
HETATM   12  H   UNL     1     -42.929  58.180 -52.095  1.00  0.00     0.172 HD
BRANCH   9  13
HETATM   13  C   UNL     1     -42.395  53.855 -52.473  1.00  0.00     0.134 C 
BRANCH  13  14
HETATM   14  C   UNL     1     -40.999  53.470 -52.930  1.00  0.00    -0.021 A 
HETATM   15  C   UNL     1     -40.947  52.626 -54.201  1.00  0.00     0.012 A 
HETATM   16  C   UNL     1     -40.524  54.061 -54.250  1.00  0.00     0.012 A 
BRANCH  14  17
HETATM   17  C   UNL     1     -40.017  53.148 -51.775  1.00  0.00    -0.004 A 
HETATM   18  C   UNL     1     -40.038  53.840 -50.429  1.00  0.00     0.006 A 
HETATM   19  C   UNL     1     -40.434  52.401 -50.530  1.00  0.00     0.006 A 
ENDBRANCH  14  17
ENDBRANCH  13  14
ENDBRANCH   9  13
ENDBRANCH   3   7
BRANCH   5  20
HETATM   20  C   UNL     1     -42.891  57.544 -57.554  1.00  0.00     0.079 A 
HETATM   21  C   UNL     1     -42.123  58.337 -58.422  1.00  0.00     0.062 A 
HETATM   22 CL   UNL     1     -41.632  59.970 -58.138  1.00  0.00    -0.082 Cl
HETATM   23  C   UNL     1     -41.773  57.844 -59.694  1.00  0.00     0.026 A 
HETATM   24  C   UNL     1     -42.194  56.588 -60.121  1.00  0.00     0.002 A 
HETATM   25  C   UNL     1     -42.984  55.812 -59.285  1.00  0.00     0.002 A 
HETATM   26  C   UNL     1     -43.331  56.287 -58.018  1.00  0.00     0.033 A 
ENDBRANCH   5  20
TORSDOF 5
ENDMDL
MODEL 9
REMARK VINA RESULT:      -7.3      3.676      7.072
REMARK  5 active torsions:
REMARK  status: ('A' for Active; 'I' for Inactive)
REMARK    1  A    between atoms: C_3  and  N_4 
REMARK       I    between atoms: N_4  and  C_5 
REMARK       I    between atoms: C_5  and  N_6 
REMARK    2  A    between atoms: N_6  and  C_7 
REMARK    3  A    between atoms: C_7  and  C_8 
REMARK    4  A    between atoms: C_8  and  C_9 
REMARK    5  A    between atoms: N_16  and  C_17 
ROOT
HETATM    1  C   UNL     1     -45.345  59.651 -53.671  1.00  0.00     0.054 C 
HETATM    2  C   UNL     1     -44.629  58.681 -54.537  1.00  0.00     0.003 A 
HETATM    3  C   UNL     1     -44.161  57.375 -54.244  1.00  0.00     0.159 A 
HETATM    4  N   UNL     1     -43.514  56.843 -55.284  1.00  0.00    -0.149 NA
HETATM    5  N   UNL     1     -43.647  57.749 -56.302  1.00  0.00    -0.241 N 
HETATM    6  C   UNL     1     -44.240  58.898 -55.839  1.00  0.00     0.129 A 
ENDROOT
BRANCH   3   7
HETATM    7  N   UNL     1     -44.335  56.764 -53.024  1.00  0.00    -0.291 N 
HETATM    8  C   UNL     1     -43.460  56.126 -52.213  1.00  0.00     0.321 C 
HETATM    9  N   UNL     1     -42.166  56.003 -52.609  1.00  0.00    -0.342 N 
HETATM   10  O   UNL     1     -43.873  55.689 -51.138  1.00  0.00    -0.247 OA
HETATM   11  H   UNL     1     -41.889  56.550 -53.419  1.00  0.00     0.164 HD
HETATM   12  H   UNL     1     -45.259  56.799 -52.623  1.00  0.00     0.172 HD
BRANCH   9  13
HETATM   13  C   UNL     1     -41.189  55.513 -51.666  1.00  0.00     0.134 C 
BRANCH  13  14
HETATM   14  C   UNL     1     -40.740  54.092 -51.964  1.00  0.00    -0.021 A 
HETATM   15  C   UNL     1     -39.742  53.510 -50.966  1.00  0.00     0.012 A 
HETATM   16  C   UNL     1     -41.157  53.020 -50.967  1.00  0.00     0.012 A 
BRANCH  14  17
HETATM   17  C   UNL     1     -40.559  53.785 -53.472  1.00  0.00    -0.004 A 
HETATM   18  C   UNL     1     -40.236  52.413 -54.023  1.00  0.00     0.006 A 
HETATM   19  C   UNL     1     -41.579  53.019 -54.280  1.00  0.00     0.006 A 
ENDBRANCH  14  17
ENDBRANCH  13  14
ENDBRANCH   9  13
ENDBRANCH   3   7
BRANCH   5  20
HETATM   20  C   UNL     1     -43.139  57.448 -57.603  1.00  0.00     0.079 A 
HETATM   21  C   UNL     1     -42.221  58.236 -58.316  1.00  0.00     0.062 A 
HETATM   22 CL   UNL     1     -41.660  59.805 -57.856  1.00  0.00    -0.082 Cl
HETATM   23  C   UNL     1     -41.755  57.803 -59.572  1.00  0.00     0.026 A 
HETATM   24  C   UNL     1     -42.205  56.613 -60.137  1.00  0.00     0.002 A 
HETATM   25  C   UNL     1     -43.140  55.845 -59.458  1.00  0.00     0.002 A 
HETATM   26  C   UNL     1     -43.604  56.261 -58.208  1.00  0.00     0.033 A 
ENDBRANCH   5  20
TORSDOF 5
ENDMDL
MODEL 10
REMARK VINA RESULT:      -7.2      3.701      7.048
REMARK  5 active torsions:
REMARK  status: ('A' for Active; 'I' for Inactive)
REMARK    1  A    between atoms: C_3  and  N_4 
REMARK       I    between atoms: N_4  and  C_5 
REMARK       I    between atoms: C_5  and  N_6 
REMARK    2  A    between atoms: N_6  and  C_7 
REMARK    3  A    between atoms: C_7  and  C_8 
REMARK    4  A    between atoms: C_8  and  C_9 
REMARK    5  A    between atoms: N_16  and  C_17 
ROOT
HETATM    1  C   UNL     1     -41.694  59.542 -53.676  1.00  0.00     0.054 C 
HETATM    2  C   UNL     1     -42.489  58.595 -54.497  1.00  0.00     0.003 A 
HETATM    3  C   UNL     1     -43.389  57.576 -54.093  1.00  0.00     0.159 A 
HETATM    4  N   UNL     1     -43.866  56.902 -55.142  1.00  0.00    -0.149 NA
HETATM    5  N   UNL     1     -43.372  57.543 -56.246  1.00  0.00    -0.241 N 
HETATM    6  C   UNL     1     -42.470  58.508 -55.871  1.00  0.00     0.129 A 
ENDROOT
BRANCH   3   7
HETATM    7  N   UNL     1     -43.692  57.312 -52.778  1.00  0.00    -0.291 N 
HETATM    8  C   UNL     1     -43.561  56.183 -52.042  1.00  0.00     0.321 C 
HETATM    9  N   UNL     1     -43.073  55.064 -52.636  1.00  0.00    -0.342 N 
HETATM   10  O   UNL     1     -43.882  56.222 -50.854  1.00  0.00    -0.247 OA
HETATM   11  H   UNL     1     -42.671  55.183 -53.562  1.00  0.00     0.164 HD
HETATM   12  H   UNL     1     -44.055  58.075 -52.230  1.00  0.00     0.172 HD
BRANCH   9  13
HETATM   13  C   UNL     1     -42.735  53.925 -51.815  1.00  0.00     0.134 C 
BRANCH  13  14
HETATM   14  C   UNL     1     -41.241  53.658 -51.758  1.00  0.00    -0.021 A 
HETATM   15  C   UNL     1     -40.494  54.411 -50.660  1.00  0.00     0.012 A 
HETATM   16  C   UNL     1     -40.720  52.937 -50.523  1.00  0.00     0.012 A 
BRANCH  14  17
HETATM   17  C   UNL     1     -40.570  53.497 -53.146  1.00  0.00    -0.004 A 
HETATM   18  C   UNL     1     -40.055  52.181 -53.688  1.00  0.00     0.006 A 
HETATM   19  C   UNL     1     -41.254  52.823 -54.312  1.00  0.00     0.006 A 
ENDBRANCH  14  17
ENDBRANCH  13  14
ENDBRANCH   9  13
ENDBRANCH   3   7
BRANCH   5  20
HETATM   20  C   UNL     1     -43.766  57.126 -57.556  1.00  0.00     0.079 A 
HETATM   21  C   UNL     1     -44.921  57.557 -58.229  1.00  0.00     0.062 A 
HETATM   22 CL   UNL     1     -46.186  58.525 -57.556  1.00  0.00    -0.082 Cl
HETATM   23  C   UNL     1     -45.172  57.113 -59.541  1.00  0.00     0.026 A 
HETATM   24  C   UNL     1     -44.306  56.232 -60.182  1.00  0.00     0.002 A 
HETATM   25  C   UNL     1     -43.181  55.771 -59.513  1.00  0.00     0.002 A 
HETATM   26  C   UNL     1     -42.918  56.211 -58.213  1.00  0.00     0.033 A 
ENDBRANCH   5  20
TORSDOF 5
ENDMDL
