MODEL 1
REMARK VINA RESULT:      -8.2      0.000      0.000
REMARK  5 active torsions:
REMARK  status: ('A' for Active; 'I' for Inactive)
REMARK    1  A    between atoms: C_2  and  C_3 
REMARK    2  A    between atoms: C_7  and  C_8 
REMARK       I    between atoms: C_8  and  N_9 
REMARK    3  A    between atoms: N_9  and  C_10 
REMARK    4  A    between atoms: C_12  and  N_13 
REMARK       I    between atoms: N_13  and  C_14 
REMARK    5  A    between atoms: C_14  and  C_15 
ROOT
HETATM    1  C   UNL     1     -43.415  56.664 -55.951  1.00  0.00     0.037 A 
HETATM    2  C   UNL     1     -42.878  55.466 -55.462  1.00  0.00     0.059 A 
HETATM    3  C   UNL     1     -42.009  55.462 -54.363  1.00  0.00     0.037 A 
HETATM    4  C   UNL     1     -41.679  56.678 -53.752  1.00  0.00     0.029 A 
HETATM    5  C   UNL     1     -42.187  57.878 -54.247  1.00  0.00     0.004 A 
HETATM    6  C   UNL     1     -43.047  57.871 -55.344  1.00  0.00     0.029 A 
ENDROOT
BRANCH   1   7
HETATM    7  N   UNL     1     -44.316  56.744 -57.037  1.00  0.00    -0.322 N 
HETATM    8  C   UNL     1     -44.014  56.906 -58.375  1.00  0.00     0.274 C 
HETATM    9  O   UNL     1     -42.887  56.946 -58.853  1.00  0.00    -0.266 OA
HETATM   10  H   UNL     1     -45.291  56.611 -56.810  1.00  0.00     0.169 HD
BRANCH   8  11
HETATM   11  C   UNL     1     -45.165  56.999 -59.242  1.00  0.00     0.120 A 
HETATM   12  N   UNL     1     -45.887  55.880 -59.566  1.00  0.00    -0.273 N 
HETATM   13  N   UNL     1     -46.929  56.114 -60.380  1.00  0.00    -0.179 NA
HETATM   14  H   UNL     1     -45.704  54.930 -59.253  1.00  0.00     0.189 HD
HETATM   15  C   UNL     1     -46.874  57.431 -60.603  1.00  0.00     0.056 A 
HETATM   16  C   UNL     1     -45.793  58.031 -59.912  1.00  0.00     0.065 A 
BRANCH  15  17
HETATM   17  C   UNL     1     -47.873  58.088 -61.492  1.00  0.00     0.056 C 
HETATM   18  C   UNL     1     -48.759  57.079 -62.208  1.00  0.00     0.011 C 
ENDBRANCH  15  17
ENDBRANCH   8  11
ENDBRANCH   1   7
BRANCH   3  19
HETATM   19  N   UNL     1     -41.451  54.291 -53.799  1.00  0.00    -0.323 N 
HETATM   20  C   UNL     1     -40.442  53.506 -54.328  1.00  0.00     0.256 C 
HETATM   21  O   UNL     1     -39.797  53.726 -55.346  1.00  0.00    -0.267 OA
HETATM   22  H   UNL     1     -41.874  53.983 -52.935  1.00  0.00     0.169 HD
BRANCH  20  23
HETATM   23  C   UNL     1     -40.139  52.256 -53.573  1.00  0.00     0.032 A 
HETATM   24  C   UNL     1     -40.089  51.054 -54.293  1.00  0.00     0.017 A 
HETATM   25  C   UNL     1     -39.821  49.852 -53.639  1.00  0.00     0.001 A 
HETATM   26  C   UNL     1     -39.595  49.844 -52.263  1.00  0.00     0.000 A 
HETATM   27  C   UNL     1     -39.624  51.039 -51.543  1.00  0.00     0.001 A 
HETATM   28  C   UNL     1     -39.889  52.247 -52.195  1.00  0.00     0.017 A 
ENDBRANCH  20  23
ENDBRANCH   3  19
TORSDOF 5
ENDMDL
MODEL 2
REMARK VINA RESULT:      -8.0      4.796      7.495
REMARK  5 active torsions:
REMARK  status: ('A' for Active; 'I' for Inactive)
REMARK    1  A    between atoms: C_2  and  C_3 
REMARK    2  A    between atoms: C_7  and  C_8 
REMARK       I    between atoms: C_8  and  N_9 
REMARK    3  A    between atoms: N_9  and  C_10 
REMARK    4  A    between atoms: C_12  and  N_13 
REMARK       I    between atoms: N_13  and  C_14 
REMARK    5  A    between atoms: C_14  and  C_15 
ROOT
HETATM    1  C   UNL     1     -44.144  57.343 -52.490  1.00  0.00     0.037 A 
HETATM    2  C   UNL     1     -43.395  56.185 -52.250  1.00  0.00     0.059 A 
HETATM    3  C   UNL     1     -43.119  55.278 -53.283  1.00  0.00     0.037 A 
HETATM    4  C   UNL     1     -43.604  55.544 -54.569  1.00  0.00     0.029 A 
HETATM    5  C   UNL     1     -44.373  56.681 -54.814  1.00  0.00     0.004 A 
HETATM    6  C   UNL     1     -44.645  57.574 -53.777  1.00  0.00     0.029 A 
ENDROOT
BRANCH   1   7
HETATM    7  N   UNL     1     -44.441  58.314 -51.507  1.00  0.00    -0.322 N 
HETATM    8  C   UNL     1     -43.833  59.540 -51.320  1.00  0.00     0.274 C 
HETATM    9  O   UNL     1     -42.960  60.020 -52.032  1.00  0.00    -0.266 OA
HETATM   10  H   UNL     1     -45.226  58.107 -50.907  1.00  0.00     0.169 HD
BRANCH   8  11
HETATM   11  C   UNL     1     -44.333  60.291 -50.192  1.00  0.00     0.120 A 
HETATM   12  N   UNL     1     -45.396  59.828 -49.461  1.00  0.00    -0.273 N 
HETATM   13  N   UNL     1     -45.753  60.627 -48.443  1.00  0.00    -0.179 NA
HETATM   14  H   UNL     1     -45.912  58.967 -49.623  1.00  0.00     0.189 HD
HETATM   15  C   UNL     1     -44.900  61.652 -48.523  1.00  0.00     0.056 A 
HETATM   16  C   UNL     1     -43.989  61.489 -49.597  1.00  0.00     0.065 A 
BRANCH  15  17
HETATM   17  C   UNL     1     -44.985  62.783 -47.556  1.00  0.00     0.056 C 
HETATM   18  C   UNL     1     -45.430  62.327 -46.175  1.00  0.00     0.011 C 
ENDBRANCH  15  17
ENDBRANCH   8  11
ENDBRANCH   1   7
BRANCH   3  19
HETATM   19  N   UNL     1     -42.349  54.104 -53.120  1.00  0.00    -0.323 N 
HETATM   20  C   UNL     1     -41.039  53.899 -53.517  1.00  0.00     0.256 C 
HETATM   21  O   UNL     1     -40.285  54.727 -54.014  1.00  0.00    -0.267 OA
HETATM   22  H   UNL     1     -42.835  53.322 -52.705  1.00  0.00     0.169 HD
BRANCH  20  23
HETATM   23  C   UNL     1     -40.520  52.514 -53.328  1.00  0.00     0.032 A 
HETATM   24  C   UNL     1     -40.000  52.178 -52.070  1.00  0.00     0.017 A 
HETATM   25  C   UNL     1     -39.490  50.900 -51.838  1.00  0.00     0.001 A 
HETATM   26  C   UNL     1     -39.504  49.950 -52.857  1.00  0.00     0.000 A 
HETATM   27  C   UNL     1     -40.040  50.271 -54.105  1.00  0.00     0.001 A 
HETATM   28  C   UNL     1     -40.554  51.549 -54.342  1.00  0.00     0.017 A 
ENDBRANCH  20  23
ENDBRANCH   3  19
TORSDOF 5
ENDMDL
MODEL 3
REMARK VINA RESULT:      -7.9      0.415      1.053
REMARK  5 active torsions:
REMARK  status: ('A' for Active; 'I' for Inactive)
REMARK    1  A    between atoms: C_2  and  C_3 
REMARK    2  A    between atoms: C_7  and  C_8 
REMARK       I    between atoms: C_8  and  N_9 
REMARK    3  A    between atoms: N_9  and  C_10 
REMARK    4  A    between atoms: C_12  and  N_13 
REMARK       I    between atoms: N_13  and  C_14 
REMARK    5  A    between atoms: C_14  and  C_15 
ROOT
HETATM    1  C   UNL     1     -43.565  56.734 -55.561  1.00  0.00     0.037 A 
HETATM    2  C   UNL     1     -42.989  55.510 -55.197  1.00  0.00     0.059 A 
HETATM    3  C   UNL     1     -42.181  55.404 -54.057  1.00  0.00     0.037 A 
HETATM    4  C   UNL     1     -41.953  56.545 -53.277  1.00  0.00     0.029 A 
HETATM    5  C   UNL     1     -42.500  57.774 -53.644  1.00  0.00     0.004 A 
HETATM    6  C   UNL     1     -43.298  57.868 -54.784  1.00  0.00     0.029 A 
ENDROOT
BRANCH   1   7
HETATM    7  N   UNL     1     -44.409  56.912 -56.680  1.00  0.00    -0.322 N 
HETATM    8  C   UNL     1     -44.057  56.896 -58.015  1.00  0.00     0.274 C 
HETATM    9  O   UNL     1     -42.939  56.658 -58.456  1.00  0.00    -0.266 OA
HETATM   10  H   UNL     1     -45.394  57.006 -56.477  1.00  0.00     0.169 HD
BRANCH   8  11
HETATM   11  C   UNL     1     -45.147  57.156 -58.926  1.00  0.00     0.120 A 
HETATM   12  N   UNL     1     -45.873  56.124 -59.460  1.00  0.00    -0.273 N 
HETATM   13  N   UNL     1     -46.854  56.513 -60.290  1.00  0.00    -0.179 NA
HETATM   14  H   UNL     1     -45.733  55.132 -59.285  1.00  0.00     0.189 HD
HETATM   15  C   UNL     1     -46.753  57.845 -60.306  1.00  0.00     0.056 A 
HETATM   16  C   UNL     1     -45.704  58.298 -59.468  1.00  0.00     0.065 A 
BRANCH  15  17
HETATM   17  C   UNL     1     -47.676  58.662 -61.144  1.00  0.00     0.056 C 
HETATM   18  C   UNL     1     -48.575  57.800 -62.017  1.00  0.00     0.011 C 
ENDBRANCH  15  17
ENDBRANCH   8  11
ENDBRANCH   1   7
BRANCH   3  19
HETATM   19  N   UNL     1     -41.589  54.199 -53.615  1.00  0.00    -0.323 N 
HETATM   20  C   UNL     1     -40.516  53.534 -54.182  1.00  0.00     0.256 C 
HETATM   21  O   UNL     1     -39.837  53.912 -55.129  1.00  0.00    -0.267 OA
HETATM   22  H   UNL     1     -42.036  53.764 -52.820  1.00  0.00     0.169 HD
BRANCH  20  23
HETATM   23  C   UNL     1     -40.185  52.214 -53.574  1.00  0.00     0.032 A 
HETATM   24  C   UNL     1     -39.941  52.174 -52.194  1.00  0.00     0.017 A 
HETATM   25  C   UNL     1     -39.615  50.969 -51.572  1.00  0.00     0.001 A 
HETATM   26  C   UNL     1     -39.539  49.797 -52.322  1.00  0.00     0.000 A 
HETATM   27  C   UNL     1     -39.801  49.826 -53.693  1.00  0.00     0.001 A 
HETATM   28  C   UNL     1     -40.130  51.030 -54.320  1.00  0.00     0.017 A 
ENDBRANCH  20  23
ENDBRANCH   3  19
TORSDOF 5
ENDMDL
MODEL 4
REMARK VINA RESULT:      -7.7      3.534      4.524
REMARK  5 active torsions:
REMARK  status: ('A' for Active; 'I' for Inactive)
REMARK    1  A    between atoms: C_2  and  C_3 
REMARK    2  A    between atoms: C_7  and  C_8 
REMARK       I    between atoms: C_8  and  N_9 
REMARK    3  A    between atoms: N_9  and  C_10 
REMARK    4  A    between atoms: C_12  and  N_13 
REMARK       I    between atoms: N_13  and  C_14 
REMARK    5  A    between atoms: C_14  and  C_15 
ROOT
HETATM    1  C   UNL     1     -42.959  57.545 -56.083  1.00  0.00     0.037 A 
HETATM    2  C   UNL     1     -42.268  56.371 -55.757  1.00  0.00     0.059 A 
HETATM    3  C   UNL     1     -42.771  55.481 -54.798  1.00  0.00     0.037 A 
HETATM    4  C   UNL     1     -43.982  55.780 -54.163  1.00  0.00     0.029 A 
HETATM    5  C   UNL     1     -44.666  56.958 -54.460  1.00  0.00     0.004 A 
HETATM    6  C   UNL     1     -44.153  57.839 -55.413  1.00  0.00     0.029 A 
ENDROOT
BRANCH   1   7
HETATM    7  N   UNL     1     -42.528  58.475 -57.055  1.00  0.00    -0.322 N 
HETATM    8  C   UNL     1     -41.956  59.714 -56.844  1.00  0.00     0.274 C 
HETATM    9  O   UNL     1     -41.669  60.191 -55.753  1.00  0.00    -0.266 OA
HETATM   10  H   UNL     1     -42.597  58.171 -58.015  1.00  0.00     0.169 HD
BRANCH   8  11
HETATM   11  C   UNL     1     -41.665  60.454 -58.050  1.00  0.00     0.120 A 
HETATM   12  N   UNL     1     -42.197  60.065 -59.252  1.00  0.00    -0.273 N 
HETATM   13  N   UNL     1     -41.841  60.843 -60.287  1.00  0.00    -0.179 NA
HETATM   14  H   UNL     1     -42.810  59.271 -59.414  1.00  0.00     0.189 HD
HETATM   15  C   UNL     1     -41.040  61.762 -59.740  1.00  0.00     0.056 A 
HETATM   16  C   UNL     1     -40.900  61.565 -58.344  1.00  0.00     0.065 A 
BRANCH  15  17
HETATM   17  C   UNL     1     -40.414  62.817 -60.586  1.00  0.00     0.056 C 
HETATM   18  C   UNL     1     -39.222  63.470 -59.904  1.00  0.00     0.011 C 
ENDBRANCH  15  17
ENDBRANCH   8  11
ENDBRANCH   1   7
BRANCH   3  19
HETATM   19  N   UNL     1     -42.143  54.267 -54.438  1.00  0.00    -0.323 N 
HETATM   20  C   UNL     1     -41.240  54.063 -53.410  1.00  0.00     0.256 C 
HETATM   21  O   UNL     1     -40.879  54.885 -52.576  1.00  0.00    -0.267 OA
HETATM   22  H   UNL     1     -42.354  53.478 -55.033  1.00  0.00     0.169 HD
BRANCH  20  23
HETATM   23  C   UNL     1     -40.643  52.698 -53.341  1.00  0.00     0.032 A 
HETATM   24  C   UNL     1     -40.013  52.321 -52.147  1.00  0.00     0.017 A 
HETATM   25  C   UNL     1     -39.426  51.061 -52.029  1.00  0.00     0.001 A 
HETATM   26  C   UNL     1     -39.472  50.168 -53.099  1.00  0.00     0.000 A 
HETATM   27  C   UNL     1     -40.115  50.530 -54.283  1.00  0.00     0.001 A 
HETATM   28  C   UNL     1     -40.707  51.790 -54.406  1.00  0.00     0.017 A 
ENDBRANCH  20  23
ENDBRANCH   3  19
TORSDOF 5
ENDMDL
MODEL 5
REMARK VINA RESULT:      -7.6      5.110      9.773
REMARK  5 active torsions:
REMARK  status: ('A' for Active; 'I' for Inactive)
REMARK    1  A    between atoms: C_2  and  C_3 
REMARK    2  A    between atoms: C_7  and  C_8 
REMARK       I    between atoms: C_8  and  N_9 
REMARK    3  A    between atoms: N_9  and  C_10 
REMARK    4  A    between atoms: C_12  and  N_13 
REMARK       I    between atoms: N_13  and  C_14 
REMARK    5  A    between atoms: C_14  and  C_15 
ROOT
HETATM    1  C   UNL     1     -43.179  56.662 -52.641  1.00  0.00     0.037 A 
HETATM    2  C   UNL     1     -43.224  57.610 -51.611  1.00  0.00     0.059 A 
HETATM    3  C   UNL     1     -44.051  58.737 -51.703  1.00  0.00     0.037 A 
HETATM    4  C   UNL     1     -44.840  58.908 -52.847  1.00  0.00     0.029 A 
HETATM    5  C   UNL     1     -44.784  57.985 -53.890  1.00  0.00     0.004 A 
HETATM    6  C   UNL     1     -43.953  56.870 -53.789  1.00  0.00     0.029 A 
ENDROOT
BRANCH   1   7
HETATM    7  N   UNL     1     -42.390  55.490 -52.608  1.00  0.00    -0.322 N 
HETATM    8  C   UNL     1     -41.220  55.240 -53.297  1.00  0.00     0.274 C 
HETATM    9  O   UNL     1     -40.632  56.035 -54.019  1.00  0.00    -0.266 OA
HETATM   10  H   UNL     1     -42.691  54.776 -51.960  1.00  0.00     0.169 HD
BRANCH   8  11
HETATM   11  C   UNL     1     -40.671  53.920 -53.086  1.00  0.00     0.120 A 
HETATM   12  N   UNL     1     -40.212  53.544 -51.850  1.00  0.00    -0.273 N 
HETATM   13  N   UNL     1     -39.729  52.293 -51.801  1.00  0.00    -0.179 NA
HETATM   14  H   UNL     1     -40.209  54.113 -51.008  1.00  0.00     0.189 HD
HETATM   15  C   UNL     1     -39.867  51.844 -53.052  1.00  0.00     0.056 A 
HETATM   16  C   UNL     1     -40.453  52.821 -53.894  1.00  0.00     0.065 A 
BRANCH  15  17
HETATM   17  C   UNL     1     -39.418  50.470 -53.414  1.00  0.00     0.056 C 
HETATM   18  C   UNL     1     -40.214  49.892 -54.574  1.00  0.00     0.011 C 
ENDBRANCH  15  17
ENDBRANCH   8  11
ENDBRANCH   1   7
BRANCH   3  19
HETATM   19  N   UNL     1     -44.167  59.719 -50.693  1.00  0.00    -0.323 N 
HETATM   20  C   UNL     1     -45.217  59.892 -49.809  1.00  0.00     0.256 C 
HETATM   21  O   UNL     1     -46.205  59.176 -49.693  1.00  0.00    -0.267 OA
HETATM   22  H   UNL     1     -43.411  60.387 -50.651  1.00  0.00     0.169 HD
BRANCH  20  23
HETATM   23  C   UNL     1     -45.125  61.093 -48.930  1.00  0.00     0.032 A 
HETATM   24  C   UNL     1     -44.646  62.282 -49.497  1.00  0.00     0.017 A 
HETATM   25  C   UNL     1     -44.527  63.435 -48.721  1.00  0.00     0.001 A 
HETATM   26  C   UNL     1     -44.893  63.408 -47.376  1.00  0.00     0.000 A 
HETATM   27  C   UNL     1     -45.390  62.234 -46.810  1.00  0.00     0.001 A 
HETATM   28  C   UNL     1     -45.514  61.077 -47.584  1.00  0.00     0.017 A 
ENDBRANCH  20  23
ENDBRANCH   3  19
TORSDOF 5
ENDMDL
MODEL 6
REMARK VINA RESULT:      -7.5      5.600      7.815
REMARK  5 active torsions:
REMARK  status: ('A' for Active; 'I' for Inactive)
REMARK    1  A    between atoms: C_2  and  C_3 
REMARK    2  A    between atoms: C_7  and  C_8 
REMARK       I    between atoms: C_8  and  N_9 
REMARK    3  A    between atoms: N_9  and  C_10 
REMARK    4  A    between atoms: C_12  and  N_13 
REMARK       I    between atoms: N_13  and  C_14 
REMARK    5  A    between atoms: C_14  and  C_15 
ROOT
HETATM    1  C   UNL     1     -42.710  59.056 -51.692  1.00  0.00     0.037 A 
HETATM    2  C   UNL     1     -42.443  57.685 -51.785  1.00  0.00     0.059 A 
HETATM    3  C   UNL     1     -41.607  57.179 -52.790  1.00  0.00     0.037 A 
HETATM    4  C   UNL     1     -41.036  58.067 -53.708  1.00  0.00     0.029 A 
HETATM    5  C   UNL     1     -41.315  59.432 -53.641  1.00  0.00     0.004 A 
HETATM    6  C   UNL     1     -42.152  59.922 -52.640  1.00  0.00     0.029 A 
ENDROOT
BRANCH   1   7
HETATM    7  N   UNL     1     -43.520  59.641 -50.692  1.00  0.00    -0.322 N 
HETATM    8  C   UNL     1     -44.865  59.948 -50.768  1.00  0.00     0.274 C 
HETATM    9  O   UNL     1     -45.601  59.702 -51.714  1.00  0.00    -0.266 OA
HETATM   10  H   UNL     1     -43.073  59.800 -49.801  1.00  0.00     0.169 HD
BRANCH   8  11
HETATM   11  C   UNL     1     -45.401  60.586 -49.588  1.00  0.00     0.120 A 
HETATM   12  N   UNL     1     -45.541  59.885 -48.418  1.00  0.00    -0.273 N 
HETATM   13  N   UNL     1     -46.052  60.602 -47.405  1.00  0.00    -0.179 NA
HETATM   14  H   UNL     1     -45.300  58.909 -48.265  1.00  0.00     0.189 HD
HETATM   15  C   UNL     1     -46.264  61.809 -47.939  1.00  0.00     0.056 A 
HETATM   16  C   UNL     1     -45.870  61.852 -49.300  1.00  0.00     0.065 A 
BRANCH  15  17
HETATM   17  C   UNL     1     -46.854  62.904 -47.119  1.00  0.00     0.056 C 
HETATM   18  C   UNL     1     -47.831  63.757 -47.913  1.00  0.00     0.011 C 
ENDBRANCH  15  17
ENDBRANCH   8  11
ENDBRANCH   1   7
BRANCH   3  19
HETATM   19  N   UNL     1     -41.273  55.813 -52.929  1.00  0.00    -0.323 N 
HETATM   20  C   UNL     1     -40.982  54.914 -51.917  1.00  0.00     0.256 C 
HETATM   21  O   UNL     1     -41.036  55.124 -50.711  1.00  0.00    -0.267 OA
HETATM   22  H   UNL     1     -41.201  55.480 -53.879  1.00  0.00     0.169 HD
BRANCH  20  23
HETATM   23  C   UNL     1     -40.540  53.562 -52.367  1.00  0.00     0.032 A 
HETATM   24  C   UNL     1     -40.818  53.192 -53.690  1.00  0.00     0.017 A 
HETATM   25  C   UNL     1     -40.438  51.936 -54.164  1.00  0.00     0.001 A 
HETATM   26  C   UNL     1     -39.774  51.047 -53.322  1.00  0.00     0.000 A 
HETATM   27  C   UNL     1     -39.476  51.416 -52.009  1.00  0.00     0.001 A 
HETATM   28  C   UNL     1     -39.852  52.675 -51.531  1.00  0.00     0.017 A 
ENDBRANCH  20  23
ENDBRANCH   3  19
TORSDOF 5
ENDMDL
MODEL 7
REMARK VINA RESULT:      -7.4      3.274      9.369
REMARK  5 active torsions:
REMARK  status: ('A' for Active; 'I' for Inactive)
REMARK    1  A    between atoms: C_2  and  C_3 
REMARK    2  A    between atoms: C_7  and  C_8 
REMARK       I    between atoms: C_8  and  N_9 
REMARK    3  A    between atoms: N_9  and  C_10 
REMARK    4  A    between atoms: C_12  and  N_13 
REMARK       I    between atoms: N_13  and  C_14 
REMARK    5  A    between atoms: C_14  and  C_15 
ROOT
HETATM    1  C   UNL     1     -42.867  56.240 -55.273  1.00  0.00     0.037 A 
HETATM    2  C   UNL     1     -42.382  56.961 -56.372  1.00  0.00     0.059 A 
HETATM    3  C   UNL     1     -43.091  58.054 -56.887  1.00  0.00     0.037 A 
HETATM    4  C   UNL     1     -44.300  58.423 -56.287  1.00  0.00     0.029 A 
HETATM    5  C   UNL     1     -44.806  57.698 -55.209  1.00  0.00     0.004 A 
HETATM    6  C   UNL     1     -44.094  56.608 -54.709  1.00  0.00     0.029 A 
ENDROOT
BRANCH   1   7
HETATM    7  N   UNL     1     -42.197  55.144 -54.685  1.00  0.00    -0.322 N 
HETATM    8  C   UNL     1     -41.349  55.159 -53.595  1.00  0.00     0.274 C 
HETATM    9  O   UNL     1     -41.083  56.139 -52.910  1.00  0.00    -0.266 OA
HETATM   10  H   UNL     1     -42.409  54.238 -55.076  1.00  0.00     0.169 HD
BRANCH   8  11
HETATM   11  C   UNL     1     -40.780  53.874 -53.261  1.00  0.00     0.120 A 
HETATM   12  N   UNL     1     -40.370  53.603 -51.981  1.00  0.00    -0.273 N 
HETATM   13  N   UNL     1     -39.861  52.372 -51.816  1.00  0.00    -0.179 NA
HETATM   14  H   UNL     1     -40.419  54.232 -51.185  1.00  0.00     0.189 HD
HETATM   15  C   UNL     1     -39.930  51.828 -53.035  1.00  0.00     0.056 A 
HETATM   16  C   UNL     1     -40.500  52.724 -53.973  1.00  0.00     0.065 A 
BRANCH  15  17
HETATM   17  C   UNL     1     -39.434  50.443 -53.273  1.00  0.00     0.056 C 
HETATM   18  C   UNL     1     -39.936  49.869 -54.588  1.00  0.00     0.011 C 
ENDBRANCH  15  17
ENDBRANCH   8  11
ENDBRANCH   1   7
BRANCH   3  19
HETATM   19  N   UNL     1     -42.649  58.843 -57.974  1.00  0.00    -0.323 N 
HETATM   20  C   UNL     1     -41.828  59.956 -57.924  1.00  0.00     0.256 C 
HETATM   21  O   UNL     1     -41.275  60.415 -56.932  1.00  0.00    -0.267 OA
HETATM   22  H   UNL     1     -43.015  58.577 -58.877  1.00  0.00     0.169 HD
BRANCH  20  23
HETATM   23  C   UNL     1     -41.629  60.666 -59.220  1.00  0.00     0.032 A 
HETATM   24  C   UNL     1     -42.137  60.063 -60.379  1.00  0.00     0.017 A 
HETATM   25  C   UNL     1     -41.971  60.675 -61.621  1.00  0.00     0.001 A 
HETATM   26  C   UNL     1     -41.304  61.895 -61.712  1.00  0.00     0.000 A 
HETATM   27  C   UNL     1     -40.814  62.511 -60.560  1.00  0.00     0.001 A 
HETATM   28  C   UNL     1     -40.980  61.903 -59.312  1.00  0.00     0.017 A 
ENDBRANCH  20  23
ENDBRANCH   3  19
TORSDOF 5
ENDMDL
MODEL 8
REMARK VINA RESULT:      -7.3      4.267      7.020
REMARK  5 active torsions:
REMARK  status: ('A' for Active; 'I' for Inactive)
REMARK    1  A    between atoms: C_2  and  C_3 
REMARK    2  A    between atoms: C_7  and  C_8 
REMARK       I    between atoms: C_8  and  N_9 
REMARK    3  A    between atoms: N_9  and  C_10 
REMARK    4  A    between atoms: C_12  and  N_13 
REMARK       I    between atoms: N_13  and  C_14 
REMARK    5  A    between atoms: C_14  and  C_15 
ROOT
HETATM    1  C   UNL     1     -43.223  57.485 -53.390  1.00  0.00     0.037 A 
HETATM    2  C   UNL     1     -42.571  56.313 -52.985  1.00  0.00     0.059 A 
HETATM    3  C   UNL     1     -42.532  55.186 -53.817  1.00  0.00     0.037 A 
HETATM    4  C   UNL     1     -43.156  55.243 -55.068  1.00  0.00     0.029 A 
HETATM    5  C   UNL     1     -43.830  56.396 -55.472  1.00  0.00     0.004 A 
HETATM    6  C   UNL     1     -43.866  57.509 -54.633  1.00  0.00     0.029 A 
ENDROOT
BRANCH   1   7
HETATM    7  N   UNL     1     -43.283  58.667 -52.617  1.00  0.00    -0.322 N 
HETATM    8  C   UNL     1     -44.048  58.903 -51.492  1.00  0.00     0.274 C 
HETATM    9  O   UNL     1     -44.770  58.086 -50.935  1.00  0.00    -0.266 OA
HETATM   10  H   UNL     1     -42.649  59.403 -52.891  1.00  0.00     0.169 HD
BRANCH   8  11
HETATM   11  C   UNL     1     -43.923  60.237 -50.952  1.00  0.00     0.120 A 
HETATM   12  N   UNL     1     -43.020  61.122 -51.480  1.00  0.00    -0.273 N 
HETATM   13  N   UNL     1     -43.012  62.323 -50.879  1.00  0.00    -0.179 NA
HETATM   14  H   UNL     1     -42.385  60.949 -52.255  1.00  0.00     0.189 HD
HETATM   15  C   UNL     1     -43.933  62.209 -49.918  1.00  0.00     0.056 A 
HETATM   16  C   UNL     1     -44.535  60.926 -49.923  1.00  0.00     0.065 A 
BRANCH  15  17
HETATM   17  C   UNL     1     -44.212  63.350 -49.001  1.00  0.00     0.056 C 
HETATM   18  C   UNL     1     -43.170  64.451 -49.118  1.00  0.00     0.011 C 
ENDBRANCH  15  17
ENDBRANCH   8  11
ENDBRANCH   1   7
BRANCH   3  19
HETATM   19  N   UNL     1     -41.871  53.981 -53.486  1.00  0.00    -0.323 N 
HETATM   20  C   UNL     1     -40.654  53.532 -53.968  1.00  0.00     0.256 C 
HETATM   21  O   UNL     1     -39.893  54.136 -54.715  1.00  0.00    -0.267 OA
HETATM   22  H   UNL     1     -42.375  53.370 -52.858  1.00  0.00     0.169 HD
BRANCH  20  23
HETATM   23  C   UNL     1     -40.260  52.160 -53.538  1.00  0.00     0.032 A 
HETATM   24  C   UNL     1     -39.853  51.985 -52.208  1.00  0.00     0.017 A 
HETATM   25  C   UNL     1     -39.462  50.726 -51.751  1.00  0.00     0.001 A 
HETATM   26  C   UNL     1     -39.483  49.634 -52.617  1.00  0.00     0.000 A 
HETATM   27  C   UNL     1     -39.906  49.797 -53.937  1.00  0.00     0.001 A 
HETATM   28  C   UNL     1     -40.302  51.056 -54.399  1.00  0.00     0.017 A 
ENDBRANCH  20  23
ENDBRANCH   3  19
TORSDOF 5
ENDMDL
MODEL 9
REMARK VINA RESULT:      -6.8      4.461      9.722
REMARK  5 active torsions:
REMARK  status: ('A' for Active; 'I' for Inactive)
REMARK    1  A    between atoms: C_2  and  C_3 
REMARK    2  A    between atoms: C_7  and  C_8 
REMARK       I    between atoms: C_8  and  N_9 
REMARK    3  A    between atoms: N_9  and  C_10 
REMARK    4  A    between atoms: C_12  and  N_13 
REMARK       I    between atoms: N_13  and  C_14 
REMARK    5  A    between atoms: C_14  and  C_15 
ROOT
HETATM    1  C   UNL     1     -42.842  57.319 -57.511  1.00  0.00     0.037 A 
HETATM    2  C   UNL     1     -42.063  58.413 -57.911  1.00  0.00     0.059 A 
HETATM    3  C   UNL     1     -42.606  59.433 -58.704  1.00  0.00     0.037 A 
HETATM    4  C   UNL     1     -43.947  59.347 -59.096  1.00  0.00     0.029 A 
HETATM    5  C   UNL     1     -44.724  58.250 -58.726  1.00  0.00     0.004 A 
HETATM    6  C   UNL     1     -44.171  57.239 -57.941  1.00  0.00     0.029 A 
ENDROOT
BRANCH   1   7
HETATM    7  N   UNL     1     -42.371  56.268 -56.692  1.00  0.00    -0.322 N 
HETATM    8  C   UNL     1     -42.308  56.234 -55.313  1.00  0.00     0.274 C 
HETATM    9  O   UNL     1     -42.717  57.108 -54.558  1.00  0.00    -0.266 OA
HETATM   10  H   UNL     1     -42.102  55.423 -57.174  1.00  0.00     0.169 HD
BRANCH   8  11
HETATM   11  C   UNL     1     -41.730  55.028 -54.768  1.00  0.00     0.120 A 
HETATM   12  N   UNL     1     -42.208  54.489 -53.603  1.00  0.00    -0.273 N 
HETATM   13  N   UNL     1     -41.577  53.370 -53.215  1.00  0.00    -0.179 NA
HETATM   14  H   UNL     1     -42.969  54.854 -53.035  1.00  0.00     0.189 HD
HETATM   15  C   UNL     1     -40.646  53.182 -54.155  1.00  0.00     0.056 A 
HETATM   16  C   UNL     1     -40.702  54.189 -55.151  1.00  0.00     0.065 A 
BRANCH  15  17
HETATM   17  C   UNL     1     -39.709  52.027 -54.069  1.00  0.00     0.056 C 
HETATM   18  C   UNL     1     -40.391  50.706 -54.389  1.00  0.00     0.011 C 
ENDBRANCH  15  17
ENDBRANCH   8  11
ENDBRANCH   1   7
BRANCH   3  19
HETATM   19  N   UNL     1     -41.890  60.577 -59.122  1.00  0.00    -0.323 N 
HETATM   20  C   UNL     1     -41.490  60.892 -60.409  1.00  0.00     0.256 C 
HETATM   21  O   UNL     1     -41.752  60.270 -61.432  1.00  0.00    -0.267 OA
HETATM   22  H   UNL     1     -41.609  61.205 -58.383  1.00  0.00     0.169 HD
BRANCH  20  23
HETATM   23  C   UNL     1     -40.636  62.108 -60.537  1.00  0.00     0.032 A 
HETATM   24  C   UNL     1     -40.094  62.650 -59.364  1.00  0.00     0.017 A 
HETATM   25  C   UNL     1     -39.296  63.794 -59.420  1.00  0.00     0.001 A 
HETATM   26  C   UNL     1     -39.030  64.396 -60.648  1.00  0.00     0.000 A 
HETATM   27  C   UNL     1     -39.549  63.849 -61.822  1.00  0.00     0.001 A 
HETATM   28  C   UNL     1     -40.347  62.702 -61.771  1.00  0.00     0.017 A 
ENDBRANCH  20  23
ENDBRANCH   3  19
TORSDOF 5
ENDMDL
MODEL 10
REMARK VINA RESULT:      -6.7      5.518      9.459
REMARK  5 active torsions:
REMARK  status: ('A' for Active; 'I' for Inactive)
REMARK    1  A    between atoms: C_2  and  C_3 
REMARK    2  A    between atoms: C_7  and  C_8 
REMARK       I    between atoms: C_8  and  N_9 
REMARK    3  A    between atoms: N_9  and  C_10 
REMARK    4  A    between atoms: C_12  and  N_13 
REMARK       I    between atoms: N_13  and  C_14 
REMARK    5  A    between atoms: C_14  and  C_15 
ROOT
HETATM    1  C   UNL     1     -43.911  57.756 -53.104  1.00  0.00     0.037 A 
HETATM    2  C   UNL     1     -44.069  58.272 -51.812  1.00  0.00     0.059 A 
HETATM    3  C   UNL     1     -44.882  59.389 -51.576  1.00  0.00     0.037 A 
HETATM    4  C   UNL     1     -45.541  59.990 -52.656  1.00  0.00     0.029 A 
HETATM    5  C   UNL     1     -45.370  59.500 -53.950  1.00  0.00     0.004 A 
HETATM    6  C   UNL     1     -44.555  58.391 -54.173  1.00  0.00     0.029 A 
ENDROOT
BRANCH   1   7
HETATM    7  N   UNL     1     -43.130  56.620 -53.414  1.00  0.00    -0.322 N 
HETATM    8  C   UNL     1     -41.762  56.560 -53.598  1.00  0.00     0.274 C 
HETATM    9  O   UNL     1     -40.981  57.493 -53.457  1.00  0.00    -0.266 OA
HETATM   10  H   UNL     1     -43.627  55.742 -53.451  1.00  0.00     0.169 HD
BRANCH   8  11
HETATM   11  C   UNL     1     -41.263  55.252 -53.954  1.00  0.00     0.120 A 
HETATM   12  N   UNL     1     -40.397  55.098 -55.005  1.00  0.00    -0.273 N 
HETATM   13  N   UNL     1     -40.016  53.829 -55.222  1.00  0.00    -0.179 NA
HETATM   14  H   UNL     1     -40.038  55.835 -55.606  1.00  0.00     0.189 HD
HETATM   15  C   UNL     1     -40.668  53.132 -54.286  1.00  0.00     0.056 A 
HETATM   16  C   UNL     1     -41.458  53.975 -53.466  1.00  0.00     0.065 A 
BRANCH  15  17
HETATM   17  C   UNL     1     -40.518  51.652 -54.207  1.00  0.00     0.056 C 
HETATM   18  C   UNL     1     -39.377  51.236 -53.292  1.00  0.00     0.011 C 
ENDBRANCH  15  17
ENDBRANCH   8  11
ENDBRANCH   1   7
BRANCH   3  19
HETATM   19  N   UNL     1     -45.109  59.948 -50.298  1.00  0.00    -0.323 N 
HETATM   20  C   UNL     1     -44.841  61.243 -49.889  1.00  0.00     0.256 C 
HETATM   21  O   UNL     1     -44.426  62.161 -50.586  1.00  0.00    -0.267 OA
HETATM   22  H   UNL     1     -45.468  59.308 -49.604  1.00  0.00     0.169 HD
BRANCH  20  23
HETATM   23  C   UNL     1     -45.068  61.519 -48.441  1.00  0.00     0.032 A 
HETATM   24  C   UNL     1     -45.509  60.460 -47.637  1.00  0.00     0.017 A 
HETATM   25  C   UNL     1     -45.750  60.661 -46.277  1.00  0.00     0.001 A 
HETATM   26  C   UNL     1     -45.542  61.919 -45.713  1.00  0.00     0.000 A 
HETATM   27  C   UNL     1     -45.083  62.973 -46.504  1.00  0.00     0.001 A 
HETATM   28  C   UNL     1     -44.838  62.775 -47.866  1.00  0.00     0.017 A 
ENDBRANCH  20  23
ENDBRANCH   3  19
TORSDOF 5
ENDMDL
