MODEL 1
REMARK VINA RESULT:      -9.4      0.000      0.000
REMARK  6 active torsions:
REMARK  status: ('A' for Active; 'I' for Inactive)
REMARK    1  A    between atoms: C_7  and  N_8 
REMARK       I    between atoms: N_8  and  C_9 
REMARK    2  A    between atoms: C_9  and  C_10 
REMARK    3  A    between atoms: C_10  and  N_11 
REMARK       I    between atoms: N_11  and  C_12 
REMARK    4  A    between atoms: C_12  and  C_13 
REMARK    5  A    between atoms: N_16  and  C_17 
REMARK    6  A    between atoms: C_23  and  O_24 
ROOT
HETATM    1  C   UNL     1     -43.087  59.657 -51.685  1.00  0.00     0.080 C 
HETATM    2  C   UNL     1     -42.372  60.661 -52.599  1.00  0.00     0.029 C 
HETATM    3  C   UNL     1     -41.754  59.987 -53.825  1.00  0.00     0.098 C 
HETATM    4  N   UNL     1     -42.813  59.263 -54.532  1.00  0.00    -0.268 NA
HETATM    5  C   UNL     1     -43.389  58.164 -53.745  1.00  0.00     0.098 C 
HETATM    6  C   UNL     1     -44.028  58.740 -52.479  1.00  0.00     0.029 C 
ENDROOT
BRANCH   1   7
HETATM    7  C   UNL     1     -42.100  58.870 -50.827  1.00  0.00     0.222 C 
HETATM    8  N   UNL     1     -42.476  57.564 -50.607  1.00  0.00    -0.352 N 
HETATM    9  H   UNL     1     -43.362  57.220 -50.957  1.00  0.00     0.162 HD
HETATM   10  O   UNL     1     -41.055  59.329 -50.377  1.00  0.00    -0.273 OA
BRANCH   8  11
HETATM   11  C   UNL     1     -41.605  56.621 -49.935  1.00  0.00     0.225 C 
BRANCH  11  12
HETATM   12  C   UNL     1     -41.738  55.206 -50.505  1.00  0.00     0.239 C 
HETATM   13  N   UNL     1     -40.590  54.795 -51.159  1.00  0.00    -0.326 N 
HETATM   14  H   UNL     1     -39.768  55.387 -51.018  1.00  0.00     0.169 HD
HETATM   15  O   UNL     1     -42.767  54.557 -50.343  1.00  0.00    -0.271 OA
BRANCH  13  16
HETATM   16  C   UNL     1     -40.411  53.644 -51.948  1.00  0.00     0.035 A 
HETATM   17  C   UNL     1     -40.543  53.625 -53.334  1.00  0.00     0.031 A 
HETATM   18  C   UNL     1     -40.300  52.449 -54.049  1.00  0.00     0.022 A 
HETATM   19  C   UNL     1     -39.917  51.283 -53.384  1.00  0.00     0.017 A 
HETATM   20  C   UNL     1     -39.780  51.276 -51.988  1.00  0.00    -0.043 A 
HETATM   21 BR   UNL     1     -39.582  49.739 -54.437  1.00  0.00    -0.051 Br
HETATM   22  C   UNL     1     -39.349  50.053 -51.227  1.00  0.00     0.049 C 
HETATM   23  C   UNL     1     -40.036  52.467 -51.285  1.00  0.00     0.037 A 
ENDBRANCH  13  16
ENDBRANCH  11  12
ENDBRANCH   8  11
ENDBRANCH   1   7
BRANCH   4  24
HETATM   24  C   UNL     1     -42.550  58.948 -55.875  1.00  0.00     0.106 A 
HETATM   25  N   UNL     1     -42.847  57.715 -56.342  1.00  0.00    -0.233 NA
HETATM   26  C   UNL     1     -42.666  57.437 -57.653  1.00  0.00     0.102 A 
HETATM   27  C   UNL     1     -42.171  58.372 -58.575  1.00  0.00    -0.004 A 
HETATM   28  C   UNL     1     -42.992  56.172 -58.133  1.00  0.00     0.095 A 
HETATM   29  C   UNL     1     -41.869  59.643 -58.092  1.00  0.00     0.017 A 
HETATM   30  C   UNL     1     -42.011  58.023 -59.931  1.00  0.00     0.014 A 
HETATM   31  C   UNL     1     -42.073  59.932 -56.743  1.00  0.00     0.045 A 
HETATM   32  C   UNL     1     -42.350  56.744 -60.374  1.00  0.00     0.004 A 
HETATM   33  C   UNL     1     -42.846  55.811 -59.470  1.00  0.00     0.039 A 
BRANCH  28  34
HETATM   34  O   UNL     1     -43.491  55.234 -57.260  1.00  0.00    -0.358 OA
HETATM   35  H   UNL     1     -44.431  55.151 -57.525  1.00  0.00     0.218 HD
ENDBRANCH  28  34
ENDBRANCH   4  24
TORSDOF 6
ENDMDL
MODEL 2
REMARK VINA RESULT:      -9.2      1.941      2.267
REMARK  6 active torsions:
REMARK  status: ('A' for Active; 'I' for Inactive)
REMARK    1  A    between atoms: C_7  and  N_8 
REMARK       I    between atoms: N_8  and  C_9 
REMARK    2  A    between atoms: C_9  and  C_10 
REMARK    3  A    between atoms: C_10  and  N_11 
REMARK       I    between atoms: N_11  and  C_12 
REMARK    4  A    between atoms: C_12  and  C_13 
REMARK    5  A    between atoms: N_16  and  C_17 
REMARK    6  A    between atoms: C_23  and  O_24 
ROOT
HETATM    1  C   UNL     1     -42.959  60.260 -53.341  1.00  0.00     0.080 C 
HETATM    2  C   UNL     1     -42.571  60.690 -54.762  1.00  0.00     0.029 C 
HETATM    3  C   UNL     1     -42.854  59.597 -55.793  1.00  0.00     0.098 C 
HETATM    4  N   UNL     1     -44.270  59.235 -55.701  1.00  0.00    -0.268 NA
HETATM    5  C   UNL     1     -44.632  58.639 -54.407  1.00  0.00     0.098 C 
HETATM    6  C   UNL     1     -44.372  59.660 -53.298  1.00  0.00     0.029 C 
ENDROOT
BRANCH   1   7
HETATM    7  C   UNL     1     -41.917  59.329 -52.727  1.00  0.00     0.222 C 
HETATM    8  N   UNL     1     -42.429  58.475 -51.777  1.00  0.00    -0.352 N 
HETATM    9  H   UNL     1     -43.402  58.534 -51.506  1.00  0.00     0.162 HD
HETATM   10  O   UNL     1     -40.731  59.312 -53.044  1.00  0.00    -0.273 OA
BRANCH   8  11
HETATM   11  C   UNL     1     -41.626  57.424 -51.182  1.00  0.00     0.225 C 
BRANCH  11  12
HETATM   12  C   UNL     1     -41.866  56.067 -51.850  1.00  0.00     0.239 C 
HETATM   13  N   UNL     1     -40.752  55.250 -51.790  1.00  0.00    -0.326 N 
HETATM   14  H   UNL     1     -40.006  55.569 -51.167  1.00  0.00     0.169 HD
HETATM   15  O   UNL     1     -42.956  55.793 -52.343  1.00  0.00    -0.271 OA
BRANCH  13  16
HETATM   16  C   UNL     1     -40.546  54.021 -52.443  1.00  0.00     0.035 A 
HETATM   17  C   UNL     1     -40.636  53.850 -53.822  1.00  0.00     0.031 A 
HETATM   18  C   UNL     1     -40.370  52.604 -54.397  1.00  0.00     0.022 A 
HETATM   19  C   UNL     1     -40.004  51.520 -53.597  1.00  0.00     0.017 A 
HETATM   20  C   UNL     1     -39.909  51.666 -52.206  1.00  0.00    -0.043 A 
HETATM   21 BR   UNL     1     -39.633  49.872 -54.465  1.00  0.00    -0.051 Br
HETATM   22  C   UNL     1     -39.498  50.536 -51.303  1.00  0.00     0.049 C 
HETATM   23  C   UNL     1     -40.189  52.925 -51.645  1.00  0.00     0.037 A 
ENDBRANCH  13  16
ENDBRANCH  11  12
ENDBRANCH   8  11
ENDBRANCH   1   7
BRANCH   4  24
HETATM   24  C   UNL     1     -44.812  58.582 -56.820  1.00  0.00     0.106 A 
HETATM   25  N   UNL     1     -44.032  57.757 -57.553  1.00  0.00    -0.233 NA
HETATM   26  C   UNL     1     -44.574  57.069 -58.585  1.00  0.00     0.102 A 
HETATM   27  C   UNL     1     -45.925  57.171 -58.949  1.00  0.00    -0.004 A 
HETATM   28  C   UNL     1     -43.772  56.204 -59.323  1.00  0.00     0.095 A 
HETATM   29  C   UNL     1     -46.727  58.020 -58.190  1.00  0.00     0.017 A 
HETATM   30  C   UNL     1     -46.432  56.423 -60.030  1.00  0.00     0.014 A 
HETATM   31  C   UNL     1     -46.169  58.715 -57.117  1.00  0.00     0.045 A 
HETATM   32  C   UNL     1     -45.596  55.566 -60.747  1.00  0.00     0.004 A 
HETATM   33  C   UNL     1     -44.257  55.453 -60.391  1.00  0.00     0.039 A 
BRANCH  28  34
HETATM   34  O   UNL     1     -42.446  56.070 -58.986  1.00  0.00    -0.358 OA
HETATM   35  H   UNL     1     -42.037  55.717 -59.804  1.00  0.00     0.218 HD
ENDBRANCH  28  34
ENDBRANCH   4  24
TORSDOF 6
ENDMDL
MODEL 3
REMARK VINA RESULT:      -9.2      2.597      7.177
REMARK  6 active torsions:
REMARK  status: ('A' for Active; 'I' for Inactive)
REMARK    1  A    between atoms: C_7  and  N_8 
REMARK       I    between atoms: N_8  and  C_9 
REMARK    2  A    between atoms: C_9  and  C_10 
REMARK    3  A    between atoms: C_10  and  N_11 
REMARK       I    between atoms: N_11  and  C_12 
REMARK    4  A    between atoms: C_12  and  C_13 
REMARK    5  A    between atoms: N_16  and  C_17 
REMARK    6  A    between atoms: C_23  and  O_24 
ROOT
HETATM    1  C   UNL     1     -42.982  58.558 -51.437  1.00  0.00     0.080 C 
HETATM    2  C   UNL     1     -43.736  57.223 -51.361  1.00  0.00     0.029 C 
HETATM    3  C   UNL     1     -43.246  56.223 -52.409  1.00  0.00     0.098 C 
HETATM    4  N   UNL     1     -41.802  56.045 -52.232  1.00  0.00    -0.268 NA
HETATM    5  C   UNL     1     -41.032  57.270 -52.488  1.00  0.00     0.098 C 
HETATM    6  C   UNL     1     -41.462  58.346 -51.489  1.00  0.00     0.029 C 
ENDROOT
BRANCH   1   7
HETATM    7  C   UNL     1     -43.483  59.427 -52.587  1.00  0.00     0.222 C 
HETATM    8  N   UNL     1     -42.493  60.159 -53.201  1.00  0.00    -0.352 N 
HETATM    9  H   UNL     1     -41.543  60.131 -52.852  1.00  0.00     0.162 HD
HETATM   10  O   UNL     1     -44.652  59.476 -52.959  1.00  0.00    -0.273 OA
BRANCH   8  11
HETATM   11  C   UNL     1     -42.747  60.935 -54.399  1.00  0.00     0.225 C 
BRANCH  11  12
HETATM   12  C   UNL     1     -42.562  60.106 -55.674  1.00  0.00     0.239 C 
HETATM   13  N   UNL     1     -43.613  59.231 -55.885  1.00  0.00    -0.326 N 
HETATM   14  H   UNL     1     -44.435  59.380 -55.295  1.00  0.00     0.169 HD
HETATM   15  O   UNL     1     -41.580  60.266 -56.392  1.00  0.00    -0.271 OA
BRANCH  13  16
HETATM   16  C   UNL     1     -43.701  58.202 -56.841  1.00  0.00     0.035 A 
HETATM   17  C   UNL     1     -43.001  57.002 -56.756  1.00  0.00     0.031 A 
HETATM   18  C   UNL     1     -43.181  56.010 -57.725  1.00  0.00     0.022 A 
HETATM   19  C   UNL     1     -44.069  56.209 -58.784  1.00  0.00     0.017 A 
HETATM   20  C   UNL     1     -44.784  57.411 -58.893  1.00  0.00    -0.043 A 
HETATM   21 BR   UNL     1     -44.273  54.798 -60.037  1.00  0.00    -0.051 Br
HETATM   22  C   UNL     1     -45.769  57.665 -60.000  1.00  0.00     0.049 C 
HETATM   23  C   UNL     1     -44.584  58.400 -57.913  1.00  0.00     0.037 A 
ENDBRANCH  13  16
ENDBRANCH  11  12
ENDBRANCH   8  11
ENDBRANCH   1   7
BRANCH   4  24
HETATM   24  C   UNL     1     -41.254  54.880 -52.791  1.00  0.00     0.106 A 
HETATM   25  N   UNL     1     -40.878  53.864 -51.982  1.00  0.00    -0.233 NA
HETATM   26  C   UNL     1     -40.423  52.712 -52.525  1.00  0.00     0.102 A 
HETATM   27  C   UNL     1     -40.309  52.508 -53.909  1.00  0.00    -0.004 A 
HETATM   28  C   UNL     1     -40.057  51.662 -51.688  1.00  0.00     0.095 A 
HETATM   29  C   UNL     1     -40.700  53.555 -54.741  1.00  0.00     0.017 A 
HETATM   30  C   UNL     1     -39.833  51.282 -54.413  1.00  0.00     0.014 A 
HETATM   31  C   UNL     1     -41.185  54.735 -54.178  1.00  0.00     0.045 A 
HETATM   32  C   UNL     1     -39.476  50.252 -53.542  1.00  0.00     0.004 A 
HETATM   33  C   UNL     1     -39.590  50.442 -52.169  1.00  0.00     0.039 A 
BRANCH  28  34
HETATM   34  O   UNL     1     -40.167  51.823 -50.328  1.00  0.00    -0.358 OA
HETATM   35  H   UNL     1     -40.927  51.250 -50.090  1.00  0.00     0.218 HD
ENDBRANCH  28  34
ENDBRANCH   4  24
TORSDOF 6
ENDMDL
MODEL 4
REMARK VINA RESULT:      -8.7      2.896      7.454
REMARK  6 active torsions:
REMARK  status: ('A' for Active; 'I' for Inactive)
REMARK    1  A    between atoms: C_7  and  N_8 
REMARK       I    between atoms: N_8  and  C_9 
REMARK    2  A    between atoms: C_9  and  C_10 
REMARK    3  A    between atoms: C_10  and  N_11 
REMARK       I    between atoms: N_11  and  C_12 
REMARK    4  A    between atoms: C_12  and  C_13 
REMARK    5  A    between atoms: N_16  and  C_17 
REMARK    6  A    between atoms: C_23  and  O_24 
ROOT
HETATM    1  C   UNL     1     -43.032  58.805 -51.976  1.00  0.00     0.080 C 
HETATM    2  C   UNL     1     -43.907  57.627 -52.426  1.00  0.00     0.029 C 
HETATM    3  C   UNL     1     -43.131  56.627 -53.284  1.00  0.00     0.098 C 
HETATM    4  N   UNL     1     -41.962  56.179 -52.522  1.00  0.00    -0.268 NA
HETATM    5  C   UNL     1     -41.006  57.258 -52.239  1.00  0.00     0.098 C 
HETATM    6  C   UNL     1     -41.697  58.325 -51.388  1.00  0.00     0.029 C 
ENDROOT
BRANCH   1   7
HETATM    7  C   UNL     1     -42.838  59.825 -53.094  1.00  0.00     0.222 C 
HETATM    8  N   UNL     1     -43.969  60.044 -53.847  1.00  0.00    -0.352 N 
HETATM    9  H   UNL     1     -44.812  59.513 -53.671  1.00  0.00     0.162 HD
HETATM   10  O   UNL     1     -41.787  60.421 -53.313  1.00  0.00    -0.273 OA
BRANCH   8  11
HETATM   11  C   UNL     1     -44.022  61.077 -54.863  1.00  0.00     0.225 C 
BRANCH  11  12
HETATM   12  C   UNL     1     -44.506  60.535 -56.211  1.00  0.00     0.239 C 
HETATM   13  N   UNL     1     -44.700  59.166 -56.186  1.00  0.00    -0.326 N 
HETATM   14  H   UNL     1     -44.681  58.737 -55.258  1.00  0.00     0.169 HD
HETATM   15  O   UNL     1     -44.702  61.290 -57.159  1.00  0.00    -0.271 OA
BRANCH  13  16
HETATM   16  C   UNL     1     -44.965  58.311 -57.271  1.00  0.00     0.035 A 
HETATM   17  C   UNL     1     -46.208  58.201 -57.888  1.00  0.00     0.031 A 
HETATM   18  C   UNL     1     -46.376  57.362 -58.993  1.00  0.00     0.022 A 
HETATM   19  C   UNL     1     -45.298  56.629 -59.494  1.00  0.00     0.017 A 
HETATM   20  C   UNL     1     -44.037  56.720 -58.889  1.00  0.00    -0.043 A 
HETATM   21 BR   UNL     1     -45.610  55.537 -61.015  1.00  0.00    -0.051 Br
HETATM   22  C   UNL     1     -42.840  55.970 -59.404  1.00  0.00     0.049 C 
HETATM   23  C   UNL     1     -43.889  57.564 -57.773  1.00  0.00     0.037 A 
ENDBRANCH  13  16
ENDBRANCH  11  12
ENDBRANCH   8  11
ENDBRANCH   1   7
BRANCH   4  24
HETATM   24  C   UNL     1     -41.379  54.973 -52.944  1.00  0.00     0.106 A 
HETATM   25  N   UNL     1     -40.985  54.065 -52.024  1.00  0.00    -0.233 NA
HETATM   26  C   UNL     1     -40.495  52.872 -52.433  1.00  0.00     0.102 A 
HETATM   27  C   UNL     1     -40.363  52.518 -53.784  1.00  0.00    -0.004 A 
HETATM   28  C   UNL     1     -40.111  51.931 -51.481  1.00  0.00     0.095 A 
HETATM   29  C   UNL     1     -40.771  53.456 -54.730  1.00  0.00     0.017 A 
HETATM   30  C   UNL     1     -39.850  51.257 -54.146  1.00  0.00     0.014 A 
HETATM   31  C   UNL     1     -41.292  54.678 -54.305  1.00  0.00     0.045 A 
HETATM   32  C   UNL     1     -39.476  50.340 -53.162  1.00  0.00     0.004 A 
HETATM   33  C   UNL     1     -39.608  50.678 -51.820  1.00  0.00     0.039 A 
BRANCH  28  34
HETATM   34  O   UNL     1     -40.239  52.239 -50.148  1.00  0.00    -0.358 OA
HETATM   35  H   UNL     1     -41.205  52.362 -50.033  1.00  0.00     0.218 HD
ENDBRANCH  28  34
ENDBRANCH   4  24
TORSDOF 6
ENDMDL
MODEL 5
REMARK VINA RESULT:      -8.4      3.390      6.264
REMARK  6 active torsions:
REMARK  status: ('A' for Active; 'I' for Inactive)
REMARK    1  A    between atoms: C_7  and  N_8 
REMARK       I    between atoms: N_8  and  C_9 
REMARK    2  A    between atoms: C_9  and  C_10 
REMARK    3  A    between atoms: C_10  and  N_11 
REMARK       I    between atoms: N_11  and  C_12 
REMARK    4  A    between atoms: C_12  and  C_13 
REMARK    5  A    between atoms: N_16  and  C_17 
REMARK    6  A    between atoms: C_23  and  O_24 
ROOT
HETATM    1  C   UNL     1     -40.591  52.807 -54.139  1.00  0.00     0.080 C 
HETATM    2  C   UNL     1     -42.112  52.875 -54.334  1.00  0.00     0.029 C 
HETATM    3  C   UNL     1     -42.662  54.282 -54.098  1.00  0.00     0.098 C 
HETATM    4  N   UNL     1     -41.956  55.205 -54.989  1.00  0.00    -0.268 NA
HETATM    5  C   UNL     1     -40.519  55.306 -54.699  1.00  0.00     0.098 C 
HETATM    6  C   UNL     1     -39.874  53.933 -54.897  1.00  0.00     0.029 C 
ENDROOT
BRANCH   1   7
HETATM    7  C   UNL     1     -40.211  52.771 -52.662  1.00  0.00     0.222 C 
HETATM    8  N   UNL     1     -40.484  53.942 -51.991  1.00  0.00    -0.352 N 
HETATM    9  H   UNL     1     -40.854  54.742 -52.487  1.00  0.00     0.162 HD
HETATM   10  O   UNL     1     -39.720  51.799 -52.096  1.00  0.00    -0.273 OA
BRANCH   8  11
HETATM   11  C   UNL     1     -40.324  54.054 -50.554  1.00  0.00     0.225 C 
BRANCH  11  12
HETATM   12  C   UNL     1     -40.948  55.340 -50.003  1.00  0.00     0.239 C 
HETATM   13  N   UNL     1     -41.243  56.248 -51.004  1.00  0.00    -0.326 N 
HETATM   14  H   UNL     1     -41.189  55.884 -51.958  1.00  0.00     0.169 HD
HETATM   15  O   UNL     1     -41.155  55.474 -48.801  1.00  0.00    -0.271 OA
BRANCH  13  16
HETATM   16  C   UNL     1     -41.653  57.587 -50.862  1.00  0.00     0.035 A 
HETATM   17  C   UNL     1     -40.862  58.585 -50.298  1.00  0.00     0.031 A 
HETATM   18  C   UNL     1     -41.326  59.902 -50.237  1.00  0.00     0.022 A 
HETATM   19  C   UNL     1     -42.584  60.233 -50.747  1.00  0.00     0.017 A 
HETATM   20  C   UNL     1     -43.400  59.245 -51.316  1.00  0.00    -0.043 A 
HETATM   21 BR   UNL     1     -43.121  62.051 -50.648  1.00  0.00    -0.051 Br
HETATM   22  C   UNL     1     -44.751  59.554 -51.899  1.00  0.00     0.049 C 
HETATM   23  C   UNL     1     -42.919  57.924 -51.362  1.00  0.00     0.037 A 
ENDBRANCH  13  16
ENDBRANCH  11  12
ENDBRANCH   8  11
ENDBRANCH   1   7
BRANCH   4  24
HETATM   24  C   UNL     1     -42.594  56.433 -55.232  1.00  0.00     0.106 A 
HETATM   25  N   UNL     1     -42.057  57.572 -54.741  1.00  0.00    -0.233 NA
HETATM   26  C   UNL     1     -42.629  58.761 -55.040  1.00  0.00     0.102 A 
HETATM   27  C   UNL     1     -43.774  58.883 -55.841  1.00  0.00    -0.004 A 
HETATM   28  C   UNL     1     -42.059  59.933 -54.551  1.00  0.00     0.095 A 
HETATM   29  C   UNL     1     -44.325  57.707 -56.347  1.00  0.00     0.017 A 
HETATM   30  C   UNL     1     -44.319  60.151 -56.121  1.00  0.00     0.014 A 
HETATM   31  C   UNL     1     -43.723  56.484 -56.051  1.00  0.00     0.045 A 
HETATM   32  C   UNL     1     -43.720  61.303 -55.612  1.00  0.00     0.004 A 
HETATM   33  C   UNL     1     -42.581  61.195 -54.822  1.00  0.00     0.039 A 
BRANCH  28  34
HETATM   34  O   UNL     1     -40.929  59.852 -53.773  1.00  0.00    -0.358 OA
HETATM   35  H   UNL     1     -40.319  59.306 -54.312  1.00  0.00     0.218 HD
ENDBRANCH  28  34
ENDBRANCH   4  24
TORSDOF 6
ENDMDL
MODEL 6
REMARK VINA RESULT:      -8.4     16.129     20.656
REMARK  6 active torsions:
REMARK  status: ('A' for Active; 'I' for Inactive)
REMARK    1  A    between atoms: C_7  and  N_8 
REMARK       I    between atoms: N_8  and  C_9 
REMARK    2  A    between atoms: C_9  and  C_10 
REMARK    3  A    between atoms: C_10  and  N_11 
REMARK       I    between atoms: N_11  and  C_12 
REMARK    4  A    between atoms: C_12  and  C_13 
REMARK    5  A    between atoms: N_16  and  C_17 
REMARK    6  A    between atoms: C_23  and  O_24 
ROOT
HETATM    1  C   UNL     1     -32.356  39.702 -52.938  1.00  0.00     0.080 C 
HETATM    2  C   UNL     1     -31.775  40.779 -52.011  1.00  0.00     0.029 C 
HETATM    3  C   UNL     1     -32.203  40.581 -50.557  1.00  0.00     0.098 C 
HETATM    4  N   UNL     1     -31.805  39.233 -50.142  1.00  0.00    -0.268 NA
HETATM    5  C   UNL     1     -32.494  38.171 -50.888  1.00  0.00     0.098 C 
HETATM    6  C   UNL     1     -32.137  38.292 -52.371  1.00  0.00     0.029 C 
ENDROOT
BRANCH   1   7
HETATM    7  C   UNL     1     -33.821  39.970 -53.270  1.00  0.00     0.222 C 
HETATM    8  N   UNL     1     -34.159  41.304 -53.248  1.00  0.00    -0.352 N 
HETATM    9  H   UNL     1     -33.477  42.001 -52.977  1.00  0.00     0.162 HD
HETATM   10  O   UNL     1     -34.639  39.098 -53.549  1.00  0.00    -0.273 OA
BRANCH   8  11
HETATM   11  C   UNL     1     -35.466  41.768 -53.671  1.00  0.00     0.225 C 
BRANCH  11  12
HETATM   12  C   UNL     1     -35.595  41.815 -55.196  1.00  0.00     0.239 C 
HETATM   13  N   UNL     1     -36.433  40.827 -55.680  1.00  0.00    -0.326 N 
HETATM   14  H   UNL     1     -36.987  40.335 -54.974  1.00  0.00     0.169 HD
HETATM   15  O   UNL     1     -35.011  42.672 -55.851  1.00  0.00    -0.271 OA
BRANCH  13  16
HETATM   16  C   UNL     1     -36.647  40.455 -57.020  1.00  0.00     0.035 A 
HETATM   17  C   UNL     1     -36.676  39.136 -57.465  1.00  0.00     0.031 A 
HETATM   18  C   UNL     1     -36.943  38.850 -58.807  1.00  0.00     0.022 A 
HETATM   19  C   UNL     1     -37.189  39.882 -59.714  1.00  0.00     0.017 A 
HETATM   20  C   UNL     1     -37.162  41.219 -59.292  1.00  0.00    -0.043 A 
HETATM   21 BR   UNL     1     -37.569  39.401 -61.511  1.00  0.00    -0.051 Br
HETATM   22  C   UNL     1     -37.443  42.364 -60.224  1.00  0.00     0.049 C 
HETATM   23  C   UNL     1     -36.885  41.487 -57.939  1.00  0.00     0.037 A 
ENDBRANCH  13  16
ENDBRANCH  11  12
ENDBRANCH   8  11
ENDBRANCH   1   7
BRANCH   4  24
HETATM   24  C   UNL     1     -31.719  39.017 -48.757  1.00  0.00     0.106 A 
HETATM   25  N   UNL     1     -30.826  39.722 -48.027  1.00  0.00    -0.233 NA
HETATM   26  C   UNL     1     -30.797  39.570 -46.683  1.00  0.00     0.102 A 
HETATM   27  C   UNL     1     -31.651  38.699 -45.990  1.00  0.00    -0.004 A 
HETATM   28  C   UNL     1     -29.891  40.314 -45.933  1.00  0.00     0.095 A 
HETATM   29  C   UNL     1     -32.572  37.976 -46.745  1.00  0.00     0.017 A 
HETATM   30  C   UNL     1     -31.576  38.590 -44.587  1.00  0.00     0.014 A 
HETATM   31  C   UNL     1     -32.611  38.147 -48.129  1.00  0.00     0.045 A 
HETATM   32  C   UNL     1     -30.654  39.353 -43.870  1.00  0.00     0.004 A 
HETATM   33  C   UNL     1     -29.806  40.223 -44.546  1.00  0.00     0.039 A 
BRANCH  28  34
HETATM   34  O   UNL     1     -29.047  41.186 -46.578  1.00  0.00    -0.358 OA
HETATM   35  H   UNL     1     -28.652  41.706 -45.846  1.00  0.00     0.218 HD
ENDBRANCH  28  34
ENDBRANCH   4  24
TORSDOF 6
ENDMDL
MODEL 7
REMARK VINA RESULT:      -8.2      3.444      6.384
REMARK  6 active torsions:
REMARK  status: ('A' for Active; 'I' for Inactive)
REMARK    1  A    between atoms: C_7  and  N_8 
REMARK       I    between atoms: N_8  and  C_9 
REMARK    2  A    between atoms: C_9  and  C_10 
REMARK    3  A    between atoms: C_10  and  N_11 
REMARK       I    between atoms: N_11  and  C_12 
REMARK    4  A    between atoms: C_12  and  C_13 
REMARK    5  A    between atoms: N_16  and  C_17 
REMARK    6  A    between atoms: C_23  and  O_24 
ROOT
HETATM    1  C   UNL     1     -42.270  54.346 -52.969  1.00  0.00     0.080 C 
HETATM    2  C   UNL     1     -43.534  54.333 -53.839  1.00  0.00     0.029 C 
HETATM    3  C   UNL     1     -43.645  55.582 -54.714  1.00  0.00     0.098 C 
HETATM    4  N   UNL     1     -42.428  55.684 -55.523  1.00  0.00    -0.268 NA
HETATM    5  C   UNL     1     -41.214  55.890 -54.721  1.00  0.00     0.098 C 
HETATM    6  C   UNL     1     -41.021  54.688 -53.794  1.00  0.00     0.029 C 
ENDROOT
BRANCH   1   7
HETATM    7  C   UNL     1     -42.427  55.256 -51.754  1.00  0.00     0.222 C 
HETATM    8  N   UNL     1     -41.236  55.574 -51.142  1.00  0.00    -0.352 N 
HETATM    9  H   UNL     1     -40.368  55.172 -51.472  1.00  0.00     0.162 HD
HETATM   10  O   UNL     1     -43.501  55.690 -51.349  1.00  0.00    -0.273 OA
BRANCH   8  11
HETATM   11  C   UNL     1     -41.166  56.536 -50.060  1.00  0.00     0.225 C 
BRANCH  11  12
HETATM   12  C   UNL     1     -41.029  57.972 -50.572  1.00  0.00     0.239 C 
HETATM   13  N   UNL     1     -42.251  58.612 -50.667  1.00  0.00    -0.326 N 
HETATM   14  H   UNL     1     -43.035  58.132 -50.219  1.00  0.00     0.169 HD
HETATM   15  O   UNL     1     -39.926  58.445 -50.830  1.00  0.00    -0.271 OA
BRANCH  13  16
HETATM   16  C   UNL     1     -42.530  59.858 -51.258  1.00  0.00     0.035 A 
HETATM   17  C   UNL     1     -42.578  60.071 -52.634  1.00  0.00     0.031 A 
HETATM   18  C   UNL     1     -42.910  61.331 -53.141  1.00  0.00     0.022 A 
HETATM   19  C   UNL     1     -43.202  62.387 -52.276  1.00  0.00     0.017 A 
HETATM   20  C   UNL     1     -43.157  62.199 -50.887  1.00  0.00    -0.043 A 
HETATM   21 BR   UNL     1     -43.670  64.055 -53.052  1.00  0.00    -0.051 Br
HETATM   22  C   UNL     1     -43.485  63.297 -49.914  1.00  0.00     0.049 C 
HETATM   23  C   UNL     1     -42.814  60.926 -50.395  1.00  0.00     0.037 A 
ENDBRANCH  13  16
ENDBRANCH  11  12
ENDBRANCH   8  11
ENDBRANCH   1   7
BRANCH   4  24
HETATM   24  C   UNL     1     -42.518  56.491 -56.669  1.00  0.00     0.106 A 
HETATM   25  N   UNL     1     -42.185  57.798 -56.592  1.00  0.00    -0.233 NA
HETATM   26  C   UNL     1     -42.197  58.556 -57.713  1.00  0.00     0.102 A 
HETATM   27  C   UNL     1     -42.549  58.055 -58.975  1.00  0.00    -0.004 A 
HETATM   28  C   UNL     1     -41.833  59.897 -57.632  1.00  0.00     0.095 A 
HETATM   29  C   UNL     1     -42.889  56.706 -59.052  1.00  0.00     0.017 A 
HETATM   30  C   UNL     1     -42.536  58.894 -60.106  1.00  0.00     0.014 A 
HETATM   31  C   UNL     1     -42.859  55.923 -57.898  1.00  0.00     0.045 A 
HETATM   32  C   UNL     1     -42.165  60.234 -59.985  1.00  0.00     0.004 A 
HETATM   33  C   UNL     1     -41.809  60.740 -58.740  1.00  0.00     0.039 A 
BRANCH  28  34
HETATM   34  O   UNL     1     -41.470  60.419 -56.413  1.00  0.00    -0.358 OA
HETATM   35  H   UNL     1     -40.837  61.130 -56.648  1.00  0.00     0.218 HD
ENDBRANCH  28  34
ENDBRANCH   4  24
TORSDOF 6
ENDMDL
MODEL 8
REMARK VINA RESULT:      -8.2      3.483      8.386
REMARK  6 active torsions:
REMARK  status: ('A' for Active; 'I' for Inactive)
REMARK    1  A    between atoms: C_7  and  N_8 
REMARK       I    between atoms: N_8  and  C_9 
REMARK    2  A    between atoms: C_9  and  C_10 
REMARK    3  A    between atoms: C_10  and  N_11 
REMARK       I    between atoms: N_11  and  C_12 
REMARK    4  A    between atoms: C_12  and  C_13 
REMARK    5  A    between atoms: N_16  and  C_17 
REMARK    6  A    between atoms: C_23  and  O_24 
ROOT
HETATM    1  C   UNL     1     -42.722  58.325 -51.561  1.00  0.00     0.080 C 
HETATM    2  C   UNL     1     -43.534  57.358 -52.433  1.00  0.00     0.029 C 
HETATM    3  C   UNL     1     -42.638  56.404 -53.224  1.00  0.00     0.098 C 
HETATM    4  N   UNL     1     -41.778  55.692 -52.276  1.00  0.00    -0.268 NA
HETATM    5  C   UNL     1     -40.849  56.576 -51.559  1.00  0.00     0.098 C 
HETATM    6  C   UNL     1     -41.656  57.586 -50.739  1.00  0.00     0.029 C 
ENDROOT
BRANCH   1   7
HETATM    7  C   UNL     1     -42.129  59.467 -52.382  1.00  0.00     0.222 C 
HETATM    8  N   UNL     1     -43.069  60.203 -53.066  1.00  0.00    -0.352 N 
HETATM    9  H   UNL     1     -44.046  59.939 -53.039  1.00  0.00     0.162 HD
HETATM   10  O   UNL     1     -40.932  59.735 -52.433  1.00  0.00    -0.273 OA
BRANCH   8  11
HETATM   11  C   UNL     1     -42.717  61.411 -53.788  1.00  0.00     0.225 C 
BRANCH  11  12
HETATM   12  C   UNL     1     -43.147  61.351 -55.256  1.00  0.00     0.239 C 
HETATM   13  N   UNL     1     -42.111  60.967 -56.088  1.00  0.00    -0.326 N 
HETATM   14  H   UNL     1     -41.280  60.602 -55.617  1.00  0.00     0.169 HD
HETATM   15  O   UNL     1     -44.302  61.605 -55.585  1.00  0.00    -0.271 OA
BRANCH  13  16
HETATM   16  C   UNL     1     -42.085  60.975 -57.495  1.00  0.00     0.035 A 
HETATM   17  C   UNL     1     -42.961  60.242 -58.292  1.00  0.00     0.031 A 
HETATM   18  C   UNL     1     -42.900  60.343 -59.685  1.00  0.00     0.022 A 
HETATM   19  C   UNL     1     -41.964  61.183 -60.292  1.00  0.00     0.017 A 
HETATM   20  C   UNL     1     -41.069  61.929 -59.512  1.00  0.00    -0.043 A 
HETATM   21 BR   UNL     1     -41.970  61.280 -62.188  1.00  0.00    -0.051 Br
HETATM   22  C   UNL     1     -40.060  62.864 -60.116  1.00  0.00     0.049 C 
HETATM   23  C   UNL     1     -41.142  61.809 -58.112  1.00  0.00     0.037 A 
ENDBRANCH  13  16
ENDBRANCH  11  12
ENDBRANCH   8  11
ENDBRANCH   1   7
BRANCH   4  24
HETATM   24  C   UNL     1     -41.208  54.496 -52.742  1.00  0.00     0.106 A 
HETATM   25  N   UNL     1     -40.880  53.525 -51.860  1.00  0.00    -0.233 NA
HETATM   26  C   UNL     1     -40.404  52.344 -52.317  1.00  0.00     0.102 A 
HETATM   27  C   UNL     1     -40.219  52.065 -53.679  1.00  0.00    -0.004 A 
HETATM   28  C   UNL     1     -40.088  51.339 -51.406  1.00  0.00     0.095 A 
HETATM   29  C   UNL     1     -40.559  53.067 -54.586  1.00  0.00     0.017 A 
HETATM   30  C   UNL     1     -39.724  50.812 -54.092  1.00  0.00     0.014 A 
HETATM   31  C   UNL     1     -41.067  54.277 -54.113  1.00  0.00     0.045 A 
HETATM   32  C   UNL     1     -39.419  49.830 -53.148  1.00  0.00     0.004 A 
HETATM   33  C   UNL     1     -39.603  50.093 -51.796  1.00  0.00     0.039 A 
BRANCH  28  34
HETATM   34  O   UNL     1     -40.268  51.573 -50.064  1.00  0.00    -0.358 OA
HETATM   35  H   UNL     1     -39.378  51.851 -49.758  1.00  0.00     0.218 HD
ENDBRANCH  28  34
ENDBRANCH   4  24
TORSDOF 6
ENDMDL
MODEL 9
REMARK VINA RESULT:      -8.1      2.793      7.351
REMARK  6 active torsions:
REMARK  status: ('A' for Active; 'I' for Inactive)
REMARK    1  A    between atoms: C_7  and  N_8 
REMARK       I    between atoms: N_8  and  C_9 
REMARK    2  A    between atoms: C_9  and  C_10 
REMARK    3  A    between atoms: C_10  and  N_11 
REMARK       I    between atoms: N_11  and  C_12 
REMARK    4  A    between atoms: C_12  and  C_13 
REMARK    5  A    between atoms: N_16  and  C_17 
REMARK    6  A    between atoms: C_23  and  O_24 
ROOT
HETATM    1  C   UNL     1     -41.588  59.211 -51.533  1.00  0.00     0.080 C 
HETATM    2  C   UNL     1     -41.554  58.373 -50.248  1.00  0.00     0.029 C 
HETATM    3  C   UNL     1     -41.815  56.891 -50.518  1.00  0.00     0.098 C 
HETATM    4  N   UNL     1     -40.832  56.425 -51.500  1.00  0.00    -0.268 NA
HETATM    5  C   UNL     1     -40.965  57.078 -52.809  1.00  0.00     0.098 C 
HETATM    6  C   UNL     1     -40.731  58.581 -52.641  1.00  0.00     0.029 C 
ENDROOT
BRANCH   1   7
HETATM    7  C   UNL     1     -43.016  59.486 -51.993  1.00  0.00     0.222 C 
HETATM    8  N   UNL     1     -43.111  59.860 -53.314  1.00  0.00    -0.352 N 
HETATM    9  H   UNL     1     -42.276  59.981 -53.873  1.00  0.00     0.162 HD
HETATM   10  O   UNL     1     -44.007  59.376 -51.277  1.00  0.00    -0.273 OA
BRANCH   8  11
HETATM   11  C   UNL     1     -44.393  60.028 -53.971  1.00  0.00     0.225 C 
BRANCH  11  12
HETATM   12  C   UNL     1     -44.759  58.820 -54.837  1.00  0.00     0.239 C 
HETATM   13  N   UNL     1     -44.500  59.040 -56.178  1.00  0.00    -0.326 N 
HETATM   14  H   UNL     1     -43.942  59.871 -56.387  1.00  0.00     0.169 HD
HETATM   15  O   UNL     1     -45.207  57.795 -54.331  1.00  0.00    -0.271 OA
BRANCH  13  16
HETATM   16  C   UNL     1     -44.869  58.236 -57.272  1.00  0.00     0.035 A 
HETATM   17  C   UNL     1     -46.151  58.205 -57.815  1.00  0.00     0.031 A 
HETATM   18  C   UNL     1     -46.423  57.413 -58.935  1.00  0.00     0.022 A 
HETATM   19  C   UNL     1     -45.413  56.651 -59.524  1.00  0.00     0.017 A 
HETATM   20  C   UNL     1     -44.115  56.663 -58.995  1.00  0.00    -0.043 A 
HETATM   21 BR   UNL     1     -45.866  55.628 -61.058  1.00  0.00    -0.051 Br
HETATM   22  C   UNL     1     -42.988  55.879 -59.606  1.00  0.00     0.049 C 
HETATM   23  C   UNL     1     -43.862  57.460 -57.863  1.00  0.00     0.037 A 
ENDBRANCH  13  16
ENDBRANCH  11  12
ENDBRANCH   8  11
ENDBRANCH   1   7
BRANCH   4  24
HETATM   24  C   UNL     1     -40.630  55.036 -51.554  1.00  0.00     0.106 A 
HETATM   25  N   UNL     1     -40.564  54.418 -52.755  1.00  0.00    -0.233 NA
HETATM   26  C   UNL     1     -40.293  53.094 -52.809  1.00  0.00     0.102 A 
HETATM   27  C   UNL     1     -40.078  52.307 -51.668  1.00  0.00    -0.004 A 
HETATM   28  C   UNL     1     -40.205  52.467 -54.049  1.00  0.00     0.095 A 
HETATM   29  C   UNL     1     -40.144  52.947 -50.432  1.00  0.00     0.017 A 
HETATM   30  C   UNL     1     -39.793  50.933 -51.791  1.00  0.00     0.014 A 
HETATM   31  C   UNL     1     -40.407  54.315 -50.380  1.00  0.00     0.045 A 
HETATM   32  C   UNL     1     -39.713  50.340 -53.051  1.00  0.00     0.004 A 
HETATM   33  C   UNL     1     -39.919  51.111 -54.189  1.00  0.00     0.039 A 
BRANCH  28  34
HETATM   34  O   UNL     1     -40.398  53.210 -55.189  1.00  0.00    -0.358 OA
HETATM   35  H   UNL     1     -39.699  52.884 -55.795  1.00  0.00     0.218 HD
ENDBRANCH  28  34
ENDBRANCH   4  24
TORSDOF 6
ENDMDL
MODEL 10
REMARK VINA RESULT:      -8.0      3.248      6.311
REMARK  6 active torsions:
REMARK  status: ('A' for Active; 'I' for Inactive)
REMARK    1  A    between atoms: C_7  and  N_8 
REMARK       I    between atoms: N_8  and  C_9 
REMARK    2  A    between atoms: C_9  and  C_10 
REMARK    3  A    between atoms: C_10  and  N_11 
REMARK       I    between atoms: N_11  and  C_12 
REMARK    4  A    between atoms: C_12  and  C_13 
REMARK    5  A    between atoms: N_16  and  C_17 
REMARK    6  A    between atoms: C_23  and  O_24 
ROOT
HETATM    1  C   UNL     1     -41.518  53.536 -52.503  1.00  0.00     0.080 C 
HETATM    2  C   UNL     1     -42.935  54.032 -52.819  1.00  0.00     0.029 C 
HETATM    3  C   UNL     1     -42.926  55.265 -53.724  1.00  0.00     0.098 C 
HETATM    4  N   UNL     1     -42.180  54.935 -54.940  1.00  0.00    -0.268 NA
HETATM    5  C   UNL     1     -40.763  54.639 -54.689  1.00  0.00     0.098 C 
HETATM    6  C   UNL     1     -40.664  53.417 -53.774  1.00  0.00     0.029 C 
ENDROOT
BRANCH   1   7
HETATM    7  C   UNL     1     -40.844  54.390 -51.432  1.00  0.00     0.222 C 
HETATM    8  N   UNL     1     -41.458  55.604 -51.225  1.00  0.00    -0.352 N 
HETATM    9  H   UNL     1     -42.249  55.882 -51.793  1.00  0.00     0.162 HD
HETATM   10  O   UNL     1     -39.856  54.044 -50.791  1.00  0.00    -0.273 OA
BRANCH   8  11
HETATM   11  C   UNL     1     -41.051  56.493 -50.154  1.00  0.00     0.225 C 
BRANCH  11  12
HETATM   12  C   UNL     1     -40.978  57.952 -50.613  1.00  0.00     0.239 C 
HETATM   13  N   UNL     1     -42.232  58.512 -50.777  1.00  0.00    -0.326 N 
HETATM   14  H   UNL     1     -43.010  57.965 -50.402  1.00  0.00     0.169 HD
HETATM   15  O   UNL     1     -39.896  58.507 -50.776  1.00  0.00    -0.271 OA
BRANCH  13  16
HETATM   16  C   UNL     1     -42.555  59.756 -51.350  1.00  0.00     0.035 A 
HETATM   17  C   UNL     1     -42.717  59.962 -52.718  1.00  0.00     0.031 A 
HETATM   18  C   UNL     1     -43.085  61.220 -53.203  1.00  0.00     0.022 A 
HETATM   19  C   UNL     1     -43.300  62.282 -52.322  1.00  0.00     0.017 A 
HETATM   20  C   UNL     1     -43.140  62.101 -50.941  1.00  0.00    -0.043 A 
HETATM   21 BR   UNL     1     -43.824  63.948 -53.066  1.00  0.00    -0.051 Br
HETATM   22  C   UNL     1     -43.382  63.205 -49.951  1.00  0.00     0.049 C 
HETATM   23  C   UNL     1     -42.762  60.830 -50.472  1.00  0.00     0.037 A 
ENDBRANCH  13  16
ENDBRANCH  11  12
ENDBRANCH   8  11
ENDBRANCH   1   7
BRANCH   4  24
HETATM   24  C   UNL     1     -42.419  55.761 -56.051  1.00  0.00     0.106 A 
HETATM   25  N   UNL     1     -43.071  55.262 -57.125  1.00  0.00    -0.233 NA
HETATM   26  C   UNL     1     -43.369  56.079 -58.162  1.00  0.00     0.102 A 
HETATM   27  C   UNL     1     -43.028  57.439 -58.191  1.00  0.00    -0.004 A 
HETATM   28  C   UNL     1     -44.060  55.566 -59.256  1.00  0.00     0.095 A 
HETATM   29  C   UNL     1     -42.357  57.951 -57.082  1.00  0.00     0.017 A 
HETATM   30  C   UNL     1     -43.372  58.239 -59.298  1.00  0.00     0.014 A 
HETATM   31  C   UNL     1     -42.066  57.110 -56.007  1.00  0.00     0.045 A 
HETATM   32  C   UNL     1     -44.065  57.688 -60.376  1.00  0.00     0.004 A 
HETATM   33  C   UNL     1     -44.413  56.342 -60.356  1.00  0.00     0.039 A 
BRANCH  28  34
HETATM   34  O   UNL     1     -44.421  54.239 -59.256  1.00  0.00    -0.358 OA
HETATM   35  H   UNL     1     -44.768  54.097 -58.349  1.00  0.00     0.218 HD
ENDBRANCH  28  34
ENDBRANCH   4  24
TORSDOF 6
ENDMDL
