MODEL 1
REMARK VINA RESULT:      -8.7      0.000      0.000
REMARK  10 active torsions:
REMARK  status: ('A' for Active; 'I' for Inactive)
REMARK    1  A    between atoms: C_2  and  C_3 
REMARK    2  A    between atoms: C_3  and  C_4 
REMARK    3  A    between atoms: C_4  and  O_5 
REMARK    4  A    between atoms: O_5  and  C_6 
REMARK    5  A    between atoms: C_9  and  C_10 
REMARK       I    between atoms: C_10  and  N_11 
REMARK    6  A    between atoms: N_11  and  C_12 
REMARK    7  A    between atoms: C_12  and  N_13 
REMARK    8  A    between atoms: N_13  and  C_14 
REMARK    9  A    between atoms: C_16  and  C_17 
REMARK   10  A    between atoms: C_26  and  O_27 
ROOT
HETATM    1  N   UNL     1     -42.424  58.272 -52.786  1.00  0.00    -0.333 N 
HETATM    2  H   UNL     1     -41.721  58.964 -52.542  1.00  0.00     0.168 HD
ENDROOT
BRANCH   1   3
HETATM    3  C   UNL     1     -43.255  57.954 -51.741  1.00  0.00     0.179 C 
HETATM    4  S   UNL     1     -44.886  58.268 -51.935  1.00  0.00    -0.040 SA
BRANCH   3   5
HETATM    5  N   UNL     1     -42.633  57.514 -50.591  1.00  0.00    -0.299 N 
HETATM    6  C   UNL     1     -41.327  57.052 -50.579  1.00  0.00     0.257 C 
HETATM    7  O   UNL     1     -40.362  57.805 -50.503  1.00  0.00    -0.267 OA
HETATM    8  H   UNL     1     -43.276  56.959 -50.043  1.00  0.00     0.171 HD
BRANCH   6   9
HETATM    9  C   UNL     1     -41.134  55.567 -50.611  1.00  0.00     0.032 A 
HETATM   10  C   UNL     1     -41.449  54.786 -51.733  1.00  0.00     0.020 A 
HETATM   11  C   UNL     1     -41.147  53.421 -51.745  1.00  0.00     0.038 A 
HETATM   12  C   UNL     1     -40.502  52.836 -50.659  1.00  0.00     0.068 A 
HETATM   13  C   UNL     1     -40.225  53.591 -49.520  1.00  0.00     0.038 A 
HETATM   14  C   UNL     1     -40.535  54.954 -49.500  1.00  0.00     0.020 A 
BRANCH  12  15
HETATM   15  O   UNL     1     -40.191  51.510 -50.782  1.00  0.00    -0.351 OA
BRANCH  15  16
HETATM   16  C   UNL     1     -39.283  51.241 -51.859  1.00  0.00     0.175 C 
BRANCH  16  17
HETATM   17  C   UNL     1     -39.586  49.841 -52.386  1.00  0.00     0.026 C 
BRANCH  17  18
HETATM   18  C   UNL     1     -39.803  49.842 -53.897  1.00  0.00    -0.002 C 
HETATM   19  C   UNL     1     -40.244  51.209 -54.396  1.00  0.00     0.005 C 
ENDBRANCH  17  18
ENDBRANCH  16  17
ENDBRANCH  15  16
ENDBRANCH  12  15
ENDBRANCH   6   9
ENDBRANCH   3   5
ENDBRANCH   1   3
BRANCH   1  20
HETATM   20  C   UNL     1     -42.504  57.939 -54.152  1.00  0.00     0.035 A 
HETATM   21  C   UNL     1     -42.317  58.866 -55.180  1.00  0.00     0.048 A 
HETATM   22  C   UNL     1     -42.286  58.455 -56.525  1.00  0.00     0.053 A 
HETATM   23  C   UNL     1     -42.476  57.092 -56.819  1.00  0.00     0.086 A 
HETATM   24  C   UNL     1     -42.704  56.155 -55.802  1.00  0.00    -0.026 A 
HETATM   25  C   UNL     1     -42.892  54.697 -56.108  1.00  0.00     0.051 C 
HETATM   26  C   UNL     1     -42.679  56.588 -54.469  1.00  0.00     0.039 A 
BRANCH  22  27
HETATM   27  C   UNL     1     -41.999  59.412 -57.590  1.00  0.00     0.183 A 
HETATM   28  O   UNL     1     -41.202  60.481 -57.276  1.00  0.00    -0.289 OA
HETATM   29  C   UNL     1     -41.083  61.158 -58.454  1.00  0.00     0.106 A 
HETATM   30  C   UNL     1     -41.812  60.472 -59.413  1.00  0.00     0.093 A 
HETATM   31  C   UNL     1     -40.361  62.321 -58.688  1.00  0.00     0.040 A 
HETATM   32  N   UNL     1     -42.417  59.378 -58.845  1.00  0.00    -0.221 NA
HETATM   33  C   UNL     1     -41.823  60.954 -60.727  1.00  0.00     0.034 A 
HETATM   34  C   UNL     1     -41.096  62.121 -61.010  1.00  0.00     0.002 A 
HETATM   35  C   UNL     1     -40.384  62.793 -60.007  1.00  0.00     0.003 A 
ENDBRANCH  22  27
BRANCH  23  36
HETATM   36  O   UNL     1     -42.429  56.615 -58.107  1.00  0.00    -0.359 OA
HETATM   37  H   UNL     1     -41.824  55.843 -58.137  1.00  0.00     0.218 HD
ENDBRANCH  23  36
ENDBRANCH   1  20
TORSDOF 10
ENDMDL
MODEL 2
REMARK VINA RESULT:      -8.6      1.560      2.223
REMARK  10 active torsions:
REMARK  status: ('A' for Active; 'I' for Inactive)
REMARK    1  A    between atoms: C_2  and  C_3 
REMARK    2  A    between atoms: C_3  and  C_4 
REMARK    3  A    between atoms: C_4  and  O_5 
REMARK    4  A    between atoms: O_5  and  C_6 
REMARK    5  A    between atoms: C_9  and  C_10 
REMARK       I    between atoms: C_10  and  N_11 
REMARK    6  A    between atoms: N_11  and  C_12 
REMARK    7  A    between atoms: C_12  and  N_13 
REMARK    8  A    between atoms: N_13  and  C_14 
REMARK    9  A    between atoms: C_16  and  C_17 
REMARK   10  A    between atoms: C_26  and  O_27 
ROOT
HETATM    1  N   UNL     1     -44.782  57.280 -52.740  1.00  0.00    -0.333 N 
HETATM    2  H   UNL     1     -45.651  56.807 -52.508  1.00  0.00     0.168 HD
ENDROOT
BRANCH   1   3
HETATM    3  C   UNL     1     -44.234  57.955 -51.678  1.00  0.00     0.179 C 
HETATM    4  S   UNL     1     -44.699  59.547 -51.460  1.00  0.00    -0.040 SA
BRANCH   3   5
HETATM    5  N   UNL     1     -43.263  57.277 -50.972  1.00  0.00    -0.299 N 
HETATM    6  C   UNL     1     -41.921  57.321 -51.316  1.00  0.00     0.257 C 
HETATM    7  O   UNL     1     -41.179  58.230 -50.960  1.00  0.00    -0.267 OA
HETATM    8  H   UNL     1     -43.599  56.357 -50.723  1.00  0.00     0.171 HD
BRANCH   6   9
HETATM    9  C   UNL     1     -41.389  56.170 -52.112  1.00  0.00     0.032 A 
HETATM   10  C   UNL     1     -41.575  54.833 -51.729  1.00  0.00     0.020 A 
HETATM   11  C   UNL     1     -41.152  53.797 -52.567  1.00  0.00     0.038 A 
HETATM   12  C   UNL     1     -40.574  54.085 -53.800  1.00  0.00     0.068 A 
HETATM   13  C   UNL     1     -40.341  55.408 -54.172  1.00  0.00     0.038 A 
HETATM   14  C   UNL     1     -40.755  56.447 -53.333  1.00  0.00     0.020 A 
BRANCH  12  15
HETATM   15  O   UNL     1     -40.244  53.010 -54.579  1.00  0.00    -0.351 OA
BRANCH  15  16
HETATM   16  C   UNL     1     -40.767  51.771 -54.082  1.00  0.00     0.175 C 
BRANCH  16  17
HETATM   17  C   UNL     1     -39.725  50.686 -54.344  1.00  0.00     0.026 C 
BRANCH  17  18
HETATM   18  C   UNL     1     -39.652  49.686 -53.194  1.00  0.00    -0.002 C 
HETATM   19  C   UNL     1     -39.554  50.389 -51.849  1.00  0.00     0.005 C 
ENDBRANCH  17  18
ENDBRANCH  16  17
ENDBRANCH  15  16
ENDBRANCH  12  15
ENDBRANCH   6   9
ENDBRANCH   3   5
ENDBRANCH   1   3
BRANCH   1  20
HETATM   20  C   UNL     1     -44.254  56.994 -54.014  1.00  0.00     0.035 A 
HETATM   21  C   UNL     1     -43.794  57.977 -54.893  1.00  0.00     0.048 A 
HETATM   22  C   UNL     1     -43.163  57.627 -56.101  1.00  0.00     0.053 A 
HETATM   23  C   UNL     1     -43.031  56.264 -56.422  1.00  0.00     0.086 A 
HETATM   24  C   UNL     1     -43.522  55.266 -55.570  1.00  0.00    -0.026 A 
HETATM   25  C   UNL     1     -43.370  53.808 -55.900  1.00  0.00     0.051 C 
HETATM   26  C   UNL     1     -44.100  55.645 -54.351  1.00  0.00     0.039 A 
BRANCH  22  27
HETATM   27  C   UNL     1     -42.602  58.655 -56.973  1.00  0.00     0.183 A 
HETATM   28  O   UNL     1     -42.904  58.579 -58.308  1.00  0.00    -0.289 OA
HETATM   29  C   UNL     1     -42.286  59.670 -58.845  1.00  0.00     0.106 A 
HETATM   30  C   UNL     1     -41.644  60.343 -57.818  1.00  0.00     0.093 A 
HETATM   31  C   UNL     1     -42.290  60.069 -60.175  1.00  0.00     0.040 A 
HETATM   32  N   UNL     1     -41.826  59.671 -56.634  1.00  0.00    -0.221 NA
HETATM   33  C   UNL     1     -40.956  61.527 -58.111  1.00  0.00     0.034 A 
HETATM   34  C   UNL     1     -40.945  61.973 -59.442  1.00  0.00     0.002 A 
HETATM   35  C   UNL     1     -41.596  61.254 -60.453  1.00  0.00     0.003 A 
ENDBRANCH  22  27
BRANCH  23  36
HETATM   36  O   UNL     1     -42.400  55.848 -57.570  1.00  0.00    -0.359 OA
HETATM   37  H   UNL     1     -43.079  55.617 -58.240  1.00  0.00     0.218 HD
ENDBRANCH  23  36
ENDBRANCH   1  20
TORSDOF 10
ENDMDL
MODEL 3
REMARK VINA RESULT:      -8.5      2.940      7.981
REMARK  10 active torsions:
REMARK  status: ('A' for Active; 'I' for Inactive)
REMARK    1  A    between atoms: C_2  and  C_3 
REMARK    2  A    between atoms: C_3  and  C_4 
REMARK    3  A    between atoms: C_4  and  O_5 
REMARK    4  A    between atoms: O_5  and  C_6 
REMARK    5  A    between atoms: C_9  and  C_10 
REMARK       I    between atoms: C_10  and  N_11 
REMARK    6  A    between atoms: N_11  and  C_12 
REMARK    7  A    between atoms: C_12  and  N_13 
REMARK    8  A    between atoms: N_13  and  C_14 
REMARK    9  A    between atoms: C_16  and  C_17 
REMARK   10  A    between atoms: C_26  and  O_27 
ROOT
HETATM    1  N   UNL     1     -45.004  57.624 -56.026  1.00  0.00    -0.333 N 
HETATM    2  H   UNL     1     -46.000  57.608 -56.225  1.00  0.00     0.168 HD
ENDROOT
BRANCH   1   3
HETATM    3  C   UNL     1     -44.267  58.239 -57.007  1.00  0.00     0.179 C 
HETATM    4  S   UNL     1     -43.907  57.342 -58.372  1.00  0.00    -0.040 SA
BRANCH   3   5
HETATM    5  N   UNL     1     -43.801  59.501 -56.705  1.00  0.00    -0.299 N 
HETATM    6  C   UNL     1     -42.493  59.741 -56.315  1.00  0.00     0.257 C 
HETATM    7  O   UNL     1     -41.580  59.879 -57.121  1.00  0.00    -0.267 OA
HETATM    8  H   UNL     1     -44.495  60.004 -56.168  1.00  0.00     0.171 HD
BRANCH   6   9
HETATM    9  C   UNL     1     -42.241  59.879 -54.845  1.00  0.00     0.032 A 
HETATM   10  C   UNL     1     -42.877  60.848 -54.054  1.00  0.00     0.020 A 
HETATM   11  C   UNL     1     -42.685  60.860 -52.670  1.00  0.00     0.038 A 
HETATM   12  C   UNL     1     -41.891  59.891 -52.063  1.00  0.00     0.068 A 
HETATM   13  C   UNL     1     -41.217  58.952 -52.842  1.00  0.00     0.038 A 
HETATM   14  C   UNL     1     -41.398  58.942 -54.228  1.00  0.00     0.020 A 
BRANCH  12  15
HETATM   15  O   UNL     1     -41.808  59.943 -50.699  1.00  0.00    -0.351 OA
BRANCH  15  16
HETATM   16  C   UNL     1     -40.691  59.212 -50.174  1.00  0.00     0.175 C 
BRANCH  16  17
HETATM   17  C   UNL     1     -39.485  60.147 -50.162  1.00  0.00     0.026 C 
BRANCH  17  18
HETATM   18  C   UNL     1     -38.173  59.375 -50.275  1.00  0.00    -0.002 C 
HETATM   19  C   UNL     1     -37.129  59.903 -49.304  1.00  0.00     0.005 C 
ENDBRANCH  17  18
ENDBRANCH  16  17
ENDBRANCH  15  16
ENDBRANCH  12  15
ENDBRANCH   6   9
ENDBRANCH   3   5
ENDBRANCH   1   3
BRANCH   1  20
HETATM   20  C   UNL     1     -44.632  57.187 -54.740  1.00  0.00     0.035 A 
HETATM   21  C   UNL     1     -43.783  56.101 -54.514  1.00  0.00     0.048 A 
HETATM   22  C   UNL     1     -43.346  55.784 -53.215  1.00  0.00     0.053 A 
HETATM   23  C   UNL     1     -43.806  56.566 -52.139  1.00  0.00     0.086 A 
HETATM   24  C   UNL     1     -44.690  57.634 -52.344  1.00  0.00    -0.026 A 
HETATM   25  C   UNL     1     -45.172  58.483 -51.202  1.00  0.00     0.051 C 
HETATM   26  C   UNL     1     -45.066  57.956 -53.656  1.00  0.00     0.039 A 
BRANCH  22  27
HETATM   27  C   UNL     1     -42.386  54.706 -52.993  1.00  0.00     0.183 A 
HETATM   28  O   UNL     1     -42.070  53.916 -54.067  1.00  0.00    -0.289 OA
HETATM   29  C   UNL     1     -41.143  53.047 -53.572  1.00  0.00     0.106 A 
HETATM   30  C   UNL     1     -40.949  53.350 -52.233  1.00  0.00     0.093 A 
HETATM   31  C   UNL     1     -40.483  52.038 -54.260  1.00  0.00     0.040 A 
HETATM   32  N   UNL     1     -41.769  54.389 -51.867  1.00  0.00    -0.221 NA
HETATM   33  C   UNL     1     -40.012  52.612 -51.501  1.00  0.00     0.034 A 
HETATM   34  C   UNL     1     -39.313  51.589 -52.162  1.00  0.00     0.002 A 
HETATM   35  C   UNL     1     -39.550  51.306 -53.514  1.00  0.00     0.003 A 
ENDBRANCH  22  27
BRANCH  23  36
HETATM   36  O   UNL     1     -43.399  56.334 -50.848  1.00  0.00    -0.359 OA
HETATM   37  H   UNL     1     -42.662  55.687 -50.859  1.00  0.00     0.218 HD
ENDBRANCH  23  36
ENDBRANCH   1  20
TORSDOF 10
ENDMDL
MODEL 4
REMARK VINA RESULT:      -8.4      2.933      8.548
REMARK  10 active torsions:
REMARK  status: ('A' for Active; 'I' for Inactive)
REMARK    1  A    between atoms: C_2  and  C_3 
REMARK    2  A    between atoms: C_3  and  C_4 
REMARK    3  A    between atoms: C_4  and  O_5 
REMARK    4  A    between atoms: O_5  and  C_6 
REMARK    5  A    between atoms: C_9  and  C_10 
REMARK       I    between atoms: C_10  and  N_11 
REMARK    6  A    between atoms: N_11  and  C_12 
REMARK    7  A    between atoms: C_12  and  N_13 
REMARK    8  A    between atoms: N_13  and  C_14 
REMARK    9  A    between atoms: C_16  and  C_17 
REMARK   10  A    between atoms: C_26  and  O_27 
ROOT
HETATM    1  N   UNL     1     -44.646  57.505 -56.254  1.00  0.00    -0.333 N 
HETATM    2  H   UNL     1     -45.625  57.470 -56.524  1.00  0.00     0.168 HD
ENDROOT
BRANCH   1   3
HETATM    3  C   UNL     1     -43.854  58.147 -57.172  1.00  0.00     0.179 C 
HETATM    4  S   UNL     1     -43.213  57.223 -58.411  1.00  0.00    -0.040 SA
BRANCH   3   5
HETATM    5  N   UNL     1     -43.576  59.471 -56.904  1.00  0.00    -0.299 N 
HETATM    6  C   UNL     1     -42.350  59.892 -56.415  1.00  0.00     0.257 C 
HETATM    7  O   UNL     1     -41.389  60.108 -57.145  1.00  0.00    -0.267 OA
HETATM    8  H   UNL     1     -44.374  59.906 -56.461  1.00  0.00     0.171 HD
BRANCH   6   9
HETATM    9  C   UNL     1     -42.256  60.130 -54.939  1.00  0.00     0.032 A 
HETATM   10  C   UNL     1     -42.990  61.130 -54.284  1.00  0.00     0.020 A 
HETATM   11  C   UNL     1     -42.946  61.234 -52.891  1.00  0.00     0.038 A 
HETATM   12  C   UNL     1     -42.200  60.326 -52.143  1.00  0.00     0.068 A 
HETATM   13  C   UNL     1     -41.431  59.357 -52.785  1.00  0.00     0.038 A 
HETATM   14  C   UNL     1     -41.465  59.255 -54.179  1.00  0.00     0.020 A 
BRANCH  12  15
HETATM   15  O   UNL     1     -42.262  60.466 -50.784  1.00  0.00    -0.351 OA
BRANCH  15  16
HETATM   16  C   UNL     1     -42.865  61.700 -50.371  1.00  0.00     0.175 C 
BRANCH  16  17
HETATM   17  C   UNL     1     -43.942  61.372 -49.340  1.00  0.00     0.026 C 
BRANCH  17  18
HETATM   18  C   UNL     1     -45.341  61.656 -49.877  1.00  0.00    -0.002 C 
HETATM   19  C   UNL     1     -45.396  62.983 -50.617  1.00  0.00     0.005 C 
ENDBRANCH  17  18
ENDBRANCH  16  17
ENDBRANCH  15  16
ENDBRANCH  12  15
ENDBRANCH   6   9
ENDBRANCH   3   5
ENDBRANCH   1   3
BRANCH   1  20
HETATM   20  C   UNL     1     -44.358  57.061 -54.948  1.00  0.00     0.035 A 
HETATM   21  C   UNL     1     -43.526  55.974 -54.674  1.00  0.00     0.048 A 
HETATM   22  C   UNL     1     -43.174  55.650 -53.350  1.00  0.00     0.053 A 
HETATM   23  C   UNL     1     -43.704  56.426 -52.303  1.00  0.00     0.086 A 
HETATM   24  C   UNL     1     -44.572  57.496 -52.559  1.00  0.00    -0.026 A 
HETATM   25  C   UNL     1     -45.128  58.338 -51.447  1.00  0.00     0.051 C 
HETATM   26  C   UNL     1     -44.862  57.824 -53.891  1.00  0.00     0.039 A 
BRANCH  22  27
HETATM   27  C   UNL     1     -42.231  54.571 -53.072  1.00  0.00     0.183 A 
HETATM   28  O   UNL     1     -41.983  53.678 -54.082  1.00  0.00    -0.289 OA
HETATM   29  C   UNL     1     -41.054  52.832 -53.550  1.00  0.00     0.106 A 
HETATM   30  C   UNL     1     -40.793  53.250 -52.254  1.00  0.00     0.093 A 
HETATM   31  C   UNL     1     -40.451  51.747 -54.171  1.00  0.00     0.040 A 
HETATM   32  N   UNL     1     -41.570  54.340 -51.949  1.00  0.00    -0.221 NA
HETATM   33  C   UNL     1     -39.841  52.555 -51.499  1.00  0.00     0.034 A 
HETATM   34  C   UNL     1     -39.197  51.458 -52.093  1.00  0.00     0.002 A 
HETATM   35  C   UNL     1     -39.502  51.060 -53.402  1.00  0.00     0.003 A 
ENDBRANCH  22  27
BRANCH  23  36
HETATM   36  O   UNL     1     -43.381  56.187 -50.989  1.00  0.00    -0.359 OA
HETATM   37  H   UNL     1     -42.825  55.381 -50.940  1.00  0.00     0.218 HD
ENDBRANCH  23  36
ENDBRANCH   1  20
TORSDOF 10
ENDMDL
MODEL 5
REMARK VINA RESULT:      -8.2      3.026      7.154
REMARK  10 active torsions:
REMARK  status: ('A' for Active; 'I' for Inactive)
REMARK    1  A    between atoms: C_2  and  C_3 
REMARK    2  A    between atoms: C_3  and  C_4 
REMARK    3  A    between atoms: C_4  and  O_5 
REMARK    4  A    between atoms: O_5  and  C_6 
REMARK    5  A    between atoms: C_9  and  C_10 
REMARK       I    between atoms: C_10  and  N_11 
REMARK    6  A    between atoms: N_11  and  C_12 
REMARK    7  A    between atoms: C_12  and  N_13 
REMARK    8  A    between atoms: N_13  and  C_14 
REMARK    9  A    between atoms: C_16  and  C_17 
REMARK   10  A    between atoms: C_26  and  O_27 
ROOT
HETATM    1  N   UNL     1     -45.670  58.456 -55.591  1.00  0.00    -0.333 N 
HETATM    2  H   UNL     1     -46.676  58.354 -55.696  1.00  0.00     0.168 HD
ENDROOT
BRANCH   1   3
HETATM    3  C   UNL     1     -45.011  58.577 -56.789  1.00  0.00     0.179 C 
HETATM    4  S   UNL     1     -45.946  58.712 -58.168  1.00  0.00    -0.040 SA
BRANCH   3   5
HETATM    5  N   UNL     1     -43.638  58.454 -56.733  1.00  0.00    -0.299 N 
HETATM    6  C   UNL     1     -42.965  57.359 -57.248  1.00  0.00     0.257 C 
HETATM    7  O   UNL     1     -42.665  57.267 -58.434  1.00  0.00    -0.267 OA
HETATM    8  H   UNL     1     -43.302  58.764 -55.831  1.00  0.00     0.171 HD
BRANCH   6   9
HETATM    9  C   UNL     1     -42.563  56.293 -56.275  1.00  0.00     0.032 A 
HETATM   10  C   UNL     1     -41.576  56.491 -55.298  1.00  0.00     0.020 A 
HETATM   11  C   UNL     1     -41.320  55.499 -54.348  1.00  0.00     0.038 A 
HETATM   12  C   UNL     1     -42.064  54.323 -54.344  1.00  0.00     0.068 A 
HETATM   13  C   UNL     1     -43.016  54.094 -55.336  1.00  0.00     0.038 A 
HETATM   14  C   UNL     1     -43.269  55.080 -56.295  1.00  0.00     0.020 A 
BRANCH  12  15
HETATM   15  O   UNL     1     -41.787  53.434 -53.342  1.00  0.00    -0.351 OA
BRANCH  15  16
HETATM   16  C   UNL     1     -40.403  53.423 -52.966  1.00  0.00     0.175 C 
BRANCH  16  17
HETATM   17  C   UNL     1     -39.917  51.976 -53.016  1.00  0.00     0.026 C 
BRANCH  17  18
HETATM   18  C   UNL     1     -40.290  51.302 -54.333  1.00  0.00    -0.002 C 
HETATM   19  C   UNL     1     -39.738  49.887 -54.412  1.00  0.00     0.005 C 
ENDBRANCH  17  18
ENDBRANCH  16  17
ENDBRANCH  15  16
ENDBRANCH  12  15
ENDBRANCH   6   9
ENDBRANCH   3   5
ENDBRANCH   1   3
BRANCH   1  20
HETATM   20  C   UNL     1     -45.211  58.631 -54.271  1.00  0.00     0.035 A 
HETATM   21  C   UNL     1     -44.549  57.634 -53.551  1.00  0.00     0.048 A 
HETATM   22  C   UNL     1     -44.003  57.901 -52.282  1.00  0.00     0.053 A 
HETATM   23  C   UNL     1     -44.162  59.189 -51.738  1.00  0.00     0.086 A 
HETATM   24  C   UNL     1     -44.858  60.189 -52.430  1.00  0.00    -0.026 A 
HETATM   25  C   UNL     1     -45.018  61.570 -51.861  1.00  0.00     0.051 C 
HETATM   26  C   UNL     1     -45.346  59.906 -53.713  1.00  0.00     0.039 A 
BRANCH  22  27
HETATM   27  C   UNL     1     -43.233  56.885 -51.573  1.00  0.00     0.183 A 
HETATM   28  O   UNL     1     -41.922  57.170 -51.295  1.00  0.00    -0.289 OA
HETATM   29  C   UNL     1     -41.487  56.075 -50.607  1.00  0.00     0.106 A 
HETATM   30  C   UNL     1     -42.547  55.188 -50.508  1.00  0.00     0.093 A 
HETATM   31  C   UNL     1     -40.221  55.861 -50.078  1.00  0.00     0.040 A 
HETATM   32  N   UNL     1     -43.646  55.700 -51.152  1.00  0.00    -0.221 NA
HETATM   33  C   UNL     1     -42.362  53.987 -49.812  1.00  0.00     0.034 A 
HETATM   34  C   UNL     1     -41.100  53.736 -49.250  1.00  0.00     0.002 A 
HETATM   35  C   UNL     1     -40.050  54.654 -49.386  1.00  0.00     0.003 A 
ENDBRANCH  22  27
BRANCH  23  36
HETATM   36  O   UNL     1     -43.630  59.531 -50.518  1.00  0.00    -0.359 OA
HETATM   37  H   UNL     1     -43.719  58.768 -49.907  1.00  0.00     0.218 HD
ENDBRANCH  23  36
ENDBRANCH   1  20
TORSDOF 10
ENDMDL
MODEL 6
REMARK VINA RESULT:      -8.1      2.889      7.668
REMARK  10 active torsions:
REMARK  status: ('A' for Active; 'I' for Inactive)
REMARK    1  A    between atoms: C_2  and  C_3 
REMARK    2  A    between atoms: C_3  and  C_4 
REMARK    3  A    between atoms: C_4  and  O_5 
REMARK    4  A    between atoms: O_5  and  C_6 
REMARK    5  A    between atoms: C_9  and  C_10 
REMARK       I    between atoms: C_10  and  N_11 
REMARK    6  A    between atoms: N_11  and  C_12 
REMARK    7  A    between atoms: C_12  and  N_13 
REMARK    8  A    between atoms: N_13  and  C_14 
REMARK    9  A    between atoms: C_16  and  C_17 
REMARK   10  A    between atoms: C_26  and  O_27 
ROOT
HETATM    1  N   UNL     1     -44.319  58.531 -50.861  1.00  0.00    -0.333 N 
HETATM    2  H   UNL     1     -44.524  57.990 -50.025  1.00  0.00     0.168 HD
ENDROOT
BRANCH   1   3
HETATM    3  C   UNL     1     -44.148  59.869 -50.611  1.00  0.00     0.179 C 
HETATM    4  S   UNL     1     -45.414  60.679 -49.875  1.00  0.00    -0.040 SA
BRANCH   3   5
HETATM    5  N   UNL     1     -42.989  60.429 -51.105  1.00  0.00    -0.299 N 
HETATM    6  C   UNL     1     -42.990  61.397 -52.096  1.00  0.00     0.257 C 
HETATM    7  O   UNL     1     -43.154  62.588 -51.854  1.00  0.00    -0.267 OA
HETATM    8  H   UNL     1     -42.285  59.713 -51.223  1.00  0.00     0.171 HD
BRANCH   6   9
HETATM    9  C   UNL     1     -42.728  60.933 -53.496  1.00  0.00     0.032 A 
HETATM   10  C   UNL     1     -41.858  59.872 -53.792  1.00  0.00     0.020 A 
HETATM   11  C   UNL     1     -41.736  59.412 -55.106  1.00  0.00     0.038 A 
HETATM   12  C   UNL     1     -42.500  59.978 -56.122  1.00  0.00     0.068 A 
HETATM   13  C   UNL     1     -43.333  61.062 -55.849  1.00  0.00     0.038 A 
HETATM   14  C   UNL     1     -43.452  61.532 -54.538  1.00  0.00     0.020 A 
BRANCH  12  15
HETATM   15  O   UNL     1     -42.360  59.425 -57.365  1.00  0.00    -0.351 OA
BRANCH  15  16
HETATM   16  C   UNL     1     -42.371  57.991 -57.349  1.00  0.00     0.175 C 
BRANCH  16  17
HETATM   17  C   UNL     1     -43.428  57.521 -58.345  1.00  0.00     0.026 C 
BRANCH  17  18
HETATM   18  C   UNL     1     -42.816  56.682 -59.463  1.00  0.00    -0.002 C 
HETATM   19  C   UNL     1     -43.611  55.409 -59.705  1.00  0.00     0.005 C 
ENDBRANCH  17  18
ENDBRANCH  16  17
ENDBRANCH  15  16
ENDBRANCH  12  15
ENDBRANCH   6   9
ENDBRANCH   3   5
ENDBRANCH   1   3
BRANCH   1  20
HETATM   20  C   UNL     1     -44.082  57.779 -52.029  1.00  0.00     0.035 A 
HETATM   21  C   UNL     1     -43.176  56.718 -52.088  1.00  0.00     0.048 A 
HETATM   22  C   UNL     1     -43.069  55.924 -53.244  1.00  0.00     0.053 A 
HETATM   23  C   UNL     1     -43.873  56.239 -54.355  1.00  0.00     0.086 A 
HETATM   24  C   UNL     1     -44.759  57.325 -54.326  1.00  0.00    -0.026 A 
HETATM   25  C   UNL     1     -45.632  57.656 -55.503  1.00  0.00     0.051 C 
HETATM   26  C   UNL     1     -44.879  58.065 -53.142  1.00  0.00     0.039 A 
BRANCH  22  27
HETATM   27  C   UNL     1     -42.189  54.760 -53.270  1.00  0.00     0.183 A 
HETATM   28  O   UNL     1     -41.585  54.403 -52.093  1.00  0.00    -0.289 OA
HETATM   29  C   UNL     1     -40.875  53.284 -52.416  1.00  0.00     0.106 A 
HETATM   30  C   UNL     1     -41.079  53.025 -53.762  1.00  0.00     0.093 A 
HETATM   31  C   UNL     1     -40.088  52.513 -51.570  1.00  0.00     0.040 A 
HETATM   32  N   UNL     1     -41.894  53.989 -54.304  1.00  0.00    -0.221 NA
HETATM   33  C   UNL     1     -40.476  51.899 -54.334  1.00  0.00     0.034 A 
HETATM   34  C   UNL     1     -39.682  51.084 -53.511  1.00  0.00     0.002 A 
HETATM   35  C   UNL     1     -39.489  51.391 -52.157  1.00  0.00     0.003 A 
ENDBRANCH  22  27
BRANCH  23  36
HETATM   36  O   UNL     1     -43.844  55.490 -55.507  1.00  0.00    -0.359 OA
HETATM   37  H   UNL     1     -44.742  55.137 -55.680  1.00  0.00     0.218 HD
ENDBRANCH  23  36
ENDBRANCH   1  20
TORSDOF 10
ENDMDL
MODEL 7
REMARK VINA RESULT:      -8.0      2.074      2.535
REMARK  10 active torsions:
REMARK  status: ('A' for Active; 'I' for Inactive)
REMARK    1  A    between atoms: C_2  and  C_3 
REMARK    2  A    between atoms: C_3  and  C_4 
REMARK    3  A    between atoms: C_4  and  O_5 
REMARK    4  A    between atoms: O_5  and  C_6 
REMARK    5  A    between atoms: C_9  and  C_10 
REMARK       I    between atoms: C_10  and  N_11 
REMARK    6  A    between atoms: N_11  and  C_12 
REMARK    7  A    between atoms: C_12  and  N_13 
REMARK    8  A    between atoms: N_13  and  C_14 
REMARK    9  A    between atoms: C_16  and  C_17 
REMARK   10  A    between atoms: C_26  and  O_27 
ROOT
HETATM    1  N   UNL     1     -44.811  58.982 -54.300  1.00  0.00    -0.333 N 
HETATM    2  H   UNL     1     -45.796  58.734 -54.306  1.00  0.00     0.168 HD
ENDROOT
BRANCH   1   3
HETATM    3  C   UNL     1     -44.371  59.422 -53.078  1.00  0.00     0.179 C 
HETATM    4  S   UNL     1     -44.147  61.070 -52.892  1.00  0.00    -0.040 SA
BRANCH   3   5
HETATM    5  N   UNL     1     -44.047  58.440 -52.166  1.00  0.00    -0.299 N 
HETATM    6  C   UNL     1     -42.740  58.062 -51.907  1.00  0.00     0.257 C 
HETATM    7  O   UNL     1     -42.023  58.668 -51.118  1.00  0.00    -0.267 OA
HETATM    8  H   UNL     1     -44.695  57.668 -52.249  1.00  0.00     0.171 HD
BRANCH   6   9
HETATM    9  C   UNL     1     -42.241  56.833 -52.603  1.00  0.00     0.032 A 
HETATM   10  C   UNL     1     -42.948  55.621 -52.601  1.00  0.00     0.020 A 
HETATM   11  C   UNL     1     -42.488  54.539 -53.357  1.00  0.00     0.038 A 
HETATM   12  C   UNL     1     -41.346  54.667 -54.142  1.00  0.00     0.068 A 
HETATM   13  C   UNL     1     -40.609  55.851 -54.117  1.00  0.00     0.038 A 
HETATM   14  C   UNL     1     -41.060  56.932 -53.355  1.00  0.00     0.020 A 
BRANCH  12  15
HETATM   15  O   UNL     1     -41.003  53.579 -54.895  1.00  0.00    -0.351 OA
BRANCH  15  16
HETATM   16  C   UNL     1     -41.201  52.334 -54.210  1.00  0.00     0.175 C 
BRANCH  16  17
HETATM   17  C   UNL     1     -40.023  52.131 -53.260  1.00  0.00     0.026 C 
BRANCH  17  18
HETATM   18  C   UNL     1     -39.140  50.967 -53.698  1.00  0.00    -0.002 C 
HETATM   19  C   UNL     1     -39.959  49.855 -54.335  1.00  0.00     0.005 C 
ENDBRANCH  17  18
ENDBRANCH  16  17
ENDBRANCH  15  16
ENDBRANCH  12  15
ENDBRANCH   6   9
ENDBRANCH   3   5
ENDBRANCH   1   3
BRANCH   1  20
HETATM   20  C   UNL     1     -44.094  58.654 -55.468  1.00  0.00     0.035 A 
HETATM   21  C   UNL     1     -43.450  59.603 -56.265  1.00  0.00     0.048 A 
HETATM   22  C   UNL     1     -42.645  59.208 -57.350  1.00  0.00     0.053 A 
HETATM   23  C   UNL     1     -42.526  57.836 -57.636  1.00  0.00     0.086 A 
HETATM   24  C   UNL     1     -43.197  56.873 -56.870  1.00  0.00    -0.026 A 
HETATM   25  C   UNL     1     -43.061  55.405 -57.161  1.00  0.00     0.051 C 
HETATM   26  C   UNL     1     -43.950  57.296 -55.765  1.00  0.00     0.039 A 
BRANCH  22  27
HETATM   27  C   UNL     1     -41.901  60.196 -58.124  1.00  0.00     0.183 A 
HETATM   28  O   UNL     1     -42.167  60.274 -59.466  1.00  0.00    -0.289 OA
HETATM   29  C   UNL     1     -41.367  61.290 -59.900  1.00  0.00     0.106 A 
HETATM   30  C   UNL     1     -40.660  61.769 -58.809  1.00  0.00     0.093 A 
HETATM   31  C   UNL     1     -41.265  61.787 -61.192  1.00  0.00     0.040 A 
HETATM   32  N   UNL     1     -40.985  61.046 -57.688  1.00  0.00    -0.221 NA
HETATM   33  C   UNL     1     -39.784  62.847 -58.990  1.00  0.00     0.034 A 
HETATM   34  C   UNL     1     -39.659  63.388 -60.280  1.00  0.00     0.002 A 
HETATM   35  C   UNL     1     -40.383  62.863 -61.359  1.00  0.00     0.003 A 
ENDBRANCH  22  27
BRANCH  23  36
HETATM   36  O   UNL     1     -41.735  57.375 -58.661  1.00  0.00    -0.359 OA
HETATM   37  H   UNL     1     -40.879  57.071 -58.290  1.00  0.00     0.218 HD
ENDBRANCH  23  36
ENDBRANCH   1  20
TORSDOF 10
ENDMDL
MODEL 8
REMARK VINA RESULT:      -7.7      2.886      5.878
REMARK  10 active torsions:
REMARK  status: ('A' for Active; 'I' for Inactive)
REMARK    1  A    between atoms: C_2  and  C_3 
REMARK    2  A    between atoms: C_3  and  C_4 
REMARK    3  A    between atoms: C_4  and  O_5 
REMARK    4  A    between atoms: O_5  and  C_6 
REMARK    5  A    between atoms: C_9  and  C_10 
REMARK       I    between atoms: C_10  and  N_11 
REMARK    6  A    between atoms: N_11  and  C_12 
REMARK    7  A    between atoms: C_12  and  N_13 
REMARK    8  A    between atoms: N_13  and  C_14 
REMARK    9  A    between atoms: C_16  and  C_17 
REMARK   10  A    between atoms: C_26  and  O_27 
ROOT
HETATM    1  N   UNL     1     -46.357  61.089 -54.289  1.00  0.00    -0.333 N 
HETATM    2  H   UNL     1     -47.171  60.952 -54.881  1.00  0.00     0.168 HD
ENDROOT
BRANCH   1   3
HETATM    3  C   UNL     1     -46.673  61.520 -53.025  1.00  0.00     0.179 C 
HETATM    4  S   UNL     1     -46.646  63.170 -52.749  1.00  0.00    -0.040 SA
BRANCH   3   5
HETATM    5  N   UNL     1     -46.866  60.531 -52.083  1.00  0.00    -0.299 N 
HETATM    6  C   UNL     1     -46.055  60.393 -50.969  1.00  0.00     0.257 C 
HETATM    7  O   UNL     1     -46.228  61.042 -49.943  1.00  0.00    -0.267 OA
HETATM    8  H   UNL     1     -47.096  59.660 -52.543  1.00  0.00     0.171 HD
BRANCH   6   9
HETATM    9  C   UNL     1     -44.970  59.364 -51.046  1.00  0.00     0.032 A 
HETATM   10  C   UNL     1     -45.233  57.993 -51.189  1.00  0.00     0.020 A 
HETATM   11  C   UNL     1     -44.180  57.091 -51.365  1.00  0.00     0.038 A 
HETATM   12  C   UNL     1     -42.868  57.549 -51.434  1.00  0.00     0.068 A 
HETATM   13  C   UNL     1     -42.589  58.902 -51.248  1.00  0.00     0.038 A 
HETATM   14  C   UNL     1     -43.638  59.807 -51.062  1.00  0.00     0.020 A 
BRANCH  12  15
HETATM   15  O   UNL     1     -41.908  56.604 -51.669  1.00  0.00    -0.351 OA
BRANCH  15  16
HETATM   16  C   UNL     1     -41.171  56.245 -50.492  1.00  0.00     0.175 C 
BRANCH  16  17
HETATM   17  C   UNL     1     -41.780  54.962 -49.933  1.00  0.00     0.026 C 
BRANCH  17  18
HETATM   18  C   UNL     1     -41.501  53.765 -50.836  1.00  0.00    -0.002 C 
HETATM   19  C   UNL     1     -40.010  53.487 -50.950  1.00  0.00     0.005 C 
ENDBRANCH  17  18
ENDBRANCH  16  17
ENDBRANCH  15  16
ENDBRANCH  12  15
ENDBRANCH   6   9
ENDBRANCH   3   5
ENDBRANCH   1   3
BRANCH   1  20
HETATM   20  C   UNL     1     -45.133  60.642 -54.824  1.00  0.00     0.035 A 
HETATM   21  C   UNL     1     -44.633  59.354 -54.624  1.00  0.00     0.048 A 
HETATM   22  C   UNL     1     -43.467  58.922 -55.283  1.00  0.00     0.053 A 
HETATM   23  C   UNL     1     -42.795  59.826 -56.126  1.00  0.00     0.086 A 
HETATM   24  C   UNL     1     -43.261  61.135 -56.306  1.00  0.00    -0.026 A 
HETATM   25  C   UNL     1     -42.557  62.099 -57.217  1.00  0.00     0.051 C 
HETATM   26  C   UNL     1     -44.453  61.518 -55.676  1.00  0.00     0.039 A 
BRANCH  22  27
HETATM   27  C   UNL     1     -42.998  57.546 -55.144  1.00  0.00     0.183 A 
HETATM   28  O   UNL     1     -41.646  57.351 -55.037  1.00  0.00    -0.289 OA
HETATM   29  C   UNL     1     -41.522  56.001 -54.882  1.00  0.00     0.106 A 
HETATM   30  C   UNL     1     -42.794  55.452 -54.907  1.00  0.00     0.093 A 
HETATM   31  C   UNL     1     -40.348  55.278 -54.716  1.00  0.00     0.040 A 
HETATM   32  N   UNL     1     -43.726  56.441 -55.104  1.00  0.00    -0.221 NA
HETATM   33  C   UNL     1     -42.938  54.070 -54.734  1.00  0.00     0.034 A 
HETATM   34  C   UNL     1     -41.777  53.302 -54.551  1.00  0.00     0.002 A 
HETATM   35  C   UNL     1     -40.508  53.896 -54.547  1.00  0.00     0.003 A 
ENDBRANCH  22  27
BRANCH  23  36
HETATM   36  O   UNL     1     -41.668  59.465 -56.824  1.00  0.00    -0.359 OA
HETATM   37  H   UNL     1     -41.887  58.714 -57.416  1.00  0.00     0.218 HD
ENDBRANCH  23  36
ENDBRANCH   1  20
TORSDOF 10
ENDMDL
MODEL 9
REMARK VINA RESULT:      -7.7      5.279      9.669
REMARK  10 active torsions:
REMARK  status: ('A' for Active; 'I' for Inactive)
REMARK    1  A    between atoms: C_2  and  C_3 
REMARK    2  A    between atoms: C_3  and  C_4 
REMARK    3  A    between atoms: C_4  and  O_5 
REMARK    4  A    between atoms: O_5  and  C_6 
REMARK    5  A    between atoms: C_9  and  C_10 
REMARK       I    between atoms: C_10  and  N_11 
REMARK    6  A    between atoms: N_11  and  C_12 
REMARK    7  A    between atoms: C_12  and  N_13 
REMARK    8  A    between atoms: N_13  and  C_14 
REMARK    9  A    between atoms: C_16  and  C_17 
REMARK   10  A    between atoms: C_26  and  O_27 
ROOT
HETATM    1  N   UNL     1     -42.479  60.046 -51.724  1.00  0.00    -0.333 N 
HETATM    2  H   UNL     1     -41.552  60.453 -51.801  1.00  0.00     0.168 HD
ENDROOT
BRANCH   1   3
HETATM    3  C   UNL     1     -43.342  60.804 -50.973  1.00  0.00     0.179 C 
HETATM    4  S   UNL     1     -43.355  62.453 -51.252  1.00  0.00    -0.040 SA
BRANCH   3   5
HETATM    5  N   UNL     1     -44.024  60.132 -49.981  1.00  0.00    -0.299 N 
HETATM    6  C   UNL     1     -45.338  60.423 -49.649  1.00  0.00     0.257 C 
HETATM    7  O   UNL     1     -46.291  59.955 -50.263  1.00  0.00    -0.267 OA
HETATM    8  H   UNL     1     -43.417  59.984 -49.186  1.00  0.00     0.171 HD
BRANCH   6   9
HETATM    9  C   UNL     1     -45.555  61.305 -48.459  1.00  0.00     0.032 A 
HETATM   10  C   UNL     1     -46.124  62.584 -48.557  1.00  0.00     0.020 A 
HETATM   11  C   UNL     1     -46.403  63.318 -47.401  1.00  0.00     0.038 A 
HETATM   12  C   UNL     1     -46.150  62.773 -46.146  1.00  0.00     0.068 A 
HETATM   13  C   UNL     1     -45.544  61.523 -46.035  1.00  0.00     0.038 A 
HETATM   14  C   UNL     1     -45.253  60.789 -47.189  1.00  0.00     0.020 A 
BRANCH  12  15
HETATM   15  O   UNL     1     -46.510  63.537 -45.070  1.00  0.00    -0.351 OA
BRANCH  15  16
HETATM   16  C   UNL     1     -45.742  64.743 -44.952  1.00  0.00     0.175 C 
BRANCH  16  17
HETATM   17  C   UNL     1     -44.329  64.356 -44.525  1.00  0.00     0.026 C 
BRANCH  17  18
HETATM   18  C   UNL     1     -44.275  63.952 -43.055  1.00  0.00    -0.002 C 
HETATM   19  C   UNL     1     -43.307  62.801 -42.828  1.00  0.00     0.005 C 
ENDBRANCH  17  18
ENDBRANCH  16  17
ENDBRANCH  15  16
ENDBRANCH  12  15
ENDBRANCH   6   9
ENDBRANCH   3   5
ENDBRANCH   1   3
BRANCH   1  20
HETATM   20  C   UNL     1     -42.719  58.920 -52.535  1.00  0.00     0.035 A 
HETATM   21  C   UNL     1     -42.008  57.723 -52.416  1.00  0.00     0.048 A 
HETATM   22  C   UNL     1     -42.372  56.590 -53.167  1.00  0.00     0.053 A 
HETATM   23  C   UNL     1     -43.449  56.694 -54.065  1.00  0.00     0.086 A 
HETATM   24  C   UNL     1     -44.148  57.898 -54.225  1.00  0.00    -0.026 A 
HETATM   25  C   UNL     1     -45.309  58.011 -55.171  1.00  0.00     0.051 C 
HETATM   26  C   UNL     1     -43.794  58.994 -53.426  1.00  0.00     0.039 A 
BRANCH  22  27
HETATM   27  C   UNL     1     -41.686  55.316 -52.973  1.00  0.00     0.183 A 
HETATM   28  O   UNL     1     -41.470  54.544 -54.084  1.00  0.00    -0.289 OA
HETATM   29  C   UNL     1     -40.790  53.463 -53.604  1.00  0.00     0.106 A 
HETATM   30  C   UNL     1     -40.634  53.633 -52.237  1.00  0.00     0.093 A 
HETATM   31  C   UNL     1     -40.315  52.378 -54.328  1.00  0.00     0.040 A 
HETATM   32  N   UNL     1     -41.234  54.802 -51.840  1.00  0.00    -0.221 NA
HETATM   33  C   UNL     1     -39.933  52.662 -51.510  1.00  0.00     0.034 A 
HETATM   34  C   UNL     1     -39.425  51.554 -52.206  1.00  0.00     0.002 A 
HETATM   35  C   UNL     1     -39.618  51.414 -53.587  1.00  0.00     0.003 A 
ENDBRANCH  22  27
BRANCH  23  36
HETATM   36  O   UNL     1     -43.879  55.621 -54.809  1.00  0.00    -0.359 OA
HETATM   37  H   UNL     1     -43.727  54.799 -54.297  1.00  0.00     0.218 HD
ENDBRANCH  23  36
ENDBRANCH   1  20
TORSDOF 10
ENDMDL
MODEL 10
REMARK VINA RESULT:      -7.6      3.483      9.181
REMARK  10 active torsions:
REMARK  status: ('A' for Active; 'I' for Inactive)
REMARK    1  A    between atoms: C_2  and  C_3 
REMARK    2  A    between atoms: C_3  and  C_4 
REMARK    3  A    between atoms: C_4  and  O_5 
REMARK    4  A    between atoms: O_5  and  C_6 
REMARK    5  A    between atoms: C_9  and  C_10 
REMARK       I    between atoms: C_10  and  N_11 
REMARK    6  A    between atoms: N_11  and  C_12 
REMARK    7  A    between atoms: C_12  and  N_13 
REMARK    8  A    between atoms: N_13  and  C_14 
REMARK    9  A    between atoms: C_16  and  C_17 
REMARK   10  A    between atoms: C_26  and  O_27 
ROOT
HETATM    1  N   UNL     1     -42.182  56.836 -57.267  1.00  0.00    -0.333 N 
HETATM    2  H   UNL     1     -41.366  57.159 -57.778  1.00  0.00     0.168 HD
ENDROOT
BRANCH   1   3
HETATM    3  C   UNL     1     -43.255  56.563 -58.078  1.00  0.00     0.179 C 
HETATM    4  S   UNL     1     -42.927  56.020 -59.625  1.00  0.00    -0.040 SA
BRANCH   3   5
HETATM    5  N   UNL     1     -44.494  56.880 -57.562  1.00  0.00    -0.299 N 
HETATM    6  C   UNL     1     -45.025  58.157 -57.626  1.00  0.00     0.257 C 
HETATM    7  O   UNL     1     -45.618  58.576 -58.614  1.00  0.00    -0.267 OA
HETATM    8  H   UNL     1     -44.622  56.419 -56.671  1.00  0.00     0.171 HD
BRANCH   6   9
HETATM    9  C   UNL     1     -44.890  59.008 -56.400  1.00  0.00     0.032 A 
HETATM   10  C   UNL     1     -44.464  60.344 -56.447  1.00  0.00     0.020 A 
HETATM   11  C   UNL     1     -44.463  61.122 -55.286  1.00  0.00     0.038 A 
HETATM   12  C   UNL     1     -44.914  60.587 -54.083  1.00  0.00     0.068 A 
HETATM   13  C   UNL     1     -45.296  59.248 -54.013  1.00  0.00     0.038 A 
HETATM   14  C   UNL     1     -45.291  58.463 -55.170  1.00  0.00     0.020 A 
BRANCH  12  15
HETATM   15  O   UNL     1     -44.934  61.436 -53.012  1.00  0.00    -0.351 OA
BRANCH  15  16
HETATM   16  C   UNL     1     -46.208  61.488 -52.356  1.00  0.00     0.175 C 
BRANCH  16  17
HETATM   17  C   UNL     1     -45.956  61.627 -50.857  1.00  0.00     0.026 C 
BRANCH  17  18
HETATM   18  C   UNL     1     -44.989  60.563 -50.346  1.00  0.00    -0.002 C 
HETATM   19  C   UNL     1     -45.589  59.170 -50.443  1.00  0.00     0.005 C 
ENDBRANCH  17  18
ENDBRANCH  16  17
ENDBRANCH  15  16
ENDBRANCH  12  15
ENDBRANCH   6   9
ENDBRANCH   3   5
ENDBRANCH   1   3
BRANCH   1  20
HETATM   20  C   UNL     1     -41.978  56.573 -55.898  1.00  0.00     0.035 A 
HETATM   21  C   UNL     1     -41.645  55.311 -55.401  1.00  0.00     0.048 A 
HETATM   22  C   UNL     1     -41.332  55.130 -54.041  1.00  0.00     0.053 A 
HETATM   23  C   UNL     1     -41.391  56.243 -53.183  1.00  0.00     0.086 A 
HETATM   24  C   UNL     1     -41.762  57.508 -53.658  1.00  0.00    -0.026 A 
HETATM   25  C   UNL     1     -41.811  58.704 -52.749  1.00  0.00     0.051 C 
HETATM   26  C   UNL     1     -42.018  57.665 -55.027  1.00  0.00     0.039 A 
BRANCH  22  27
HETATM   27  C   UNL     1     -40.895  53.830 -53.543  1.00  0.00     0.183 A 
HETATM   28  O   UNL     1     -40.801  52.809 -54.453  1.00  0.00    -0.289 OA
HETATM   29  C   UNL     1     -40.340  51.756 -53.716  1.00  0.00     0.106 A 
HETATM   30  C   UNL     1     -40.184  52.189 -52.409  1.00  0.00     0.093 A 
HETATM   31  C   UNL     1     -40.057  50.474 -54.166  1.00  0.00     0.040 A 
HETATM   32  N   UNL     1     -40.569  53.503 -52.303  1.00  0.00    -0.221 NA
HETATM   33  C   UNL     1     -39.688  51.293 -51.454  1.00  0.00     0.034 A 
HETATM   34  C   UNL     1     -39.378  49.989 -51.870  1.00  0.00     0.002 A 
HETATM   35  C   UNL     1     -39.564  49.588 -53.199  1.00  0.00     0.003 A 
ENDBRANCH  22  27
BRANCH  23  36
HETATM   36  O   UNL     1     -41.070  56.148 -51.850  1.00  0.00    -0.359 OA
HETATM   37  H   UNL     1     -40.602  56.965 -51.576  1.00  0.00     0.218 HD
ENDBRANCH  23  36
ENDBRANCH   1  20
TORSDOF 10
ENDMDL
