MODEL 1
REMARK VINA RESULT:      -8.8      0.000      0.000
REMARK  7 active torsions:
REMARK  status: ('A' for Active; 'I' for Inactive)
REMARK    1  A    between atoms: C_2  and  O_3 
REMARK    2  A    between atoms: O_3  and  C_4 
REMARK    3  A    between atoms: C_4  and  C_5 
REMARK    4  A    between atoms: C_8  and  N_9 
REMARK       I    between atoms: N_9  and  C_10 
REMARK    5  A    between atoms: C_10  and  C_11 
REMARK    6  A    between atoms: C_11  and  N_12 
REMARK    7  A    between atoms: C_18  and  C_19 
ROOT
HETATM    1  N   UNL     1     -43.838  57.913 -53.163  1.00  0.00    -0.063 N 
HETATM    2  H   UNL     1     -44.638  57.944 -52.516  1.00  0.00     0.280 HD
HETATM    3  C   UNL     1     -44.215  56.891 -54.226  1.00  0.00     0.240 C 
HETATM    4  C   UNL     1     -43.910  55.463 -53.825  1.00  0.00     0.083 C 
HETATM    5  C   UNL     1     -42.501  55.337 -53.263  1.00  0.00     0.131 A 
HETATM    6  N   UNL     1     -42.255  53.923 -52.892  1.00  0.00    -0.251 NA
HETATM    7  C   UNL     1     -41.178  53.544 -53.530  1.00  0.00     0.132 A 
HETATM    8  C   UNL     1     -40.624  54.651 -54.402  1.00  0.00     0.272 A 
HETATM    9  O   UNL     1     -39.639  54.639 -55.097  1.00  0.00    -0.266 OA
HETATM   10  N   UNL     1     -41.493  55.677 -54.216  1.00  0.00    -0.327 N 
HETATM   11  C   UNL     1     -42.420  56.174 -51.994  1.00  0.00     0.083 C 
HETATM   12  C   UNL     1     -42.618  57.640 -52.300  1.00  0.00     0.240 C 
HETATM   13  H   UNL     1     -41.348  56.565 -54.697  1.00  0.00     0.165 HD
ENDROOT
BRANCH   1  14
HETATM   14  C   UNL     1     -43.723  59.342 -53.792  1.00  0.00     0.337 C 
BRANCH  14  15
HETATM   15  C   UNL     1     -42.324  59.666 -54.346  1.00  0.00     0.248 C 
HETATM   16  N   UNL     1     -41.950  59.400 -55.622  1.00  0.00    -0.326 N 
HETATM   17  H   UNL     1     -41.006  59.745 -55.791  1.00  0.00     0.169 HD
HETATM   18  O   UNL     1     -41.490  60.235 -53.627  1.00  0.00    -0.271 OA
BRANCH  16  19
HETATM   19  C   UNL     1     -42.574  58.825 -56.741  1.00  0.00     0.034 A 
HETATM   20  C   UNL     1     -42.344  57.546 -57.243  1.00  0.00     0.030 A 
HETATM   21  C   UNL     1     -43.070  57.083 -58.353  1.00  0.00     0.020 A 
HETATM   22  C   UNL     1     -44.028  57.892 -58.977  1.00  0.00     0.039 A 
HETATM   23  C   UNL     1     -44.238  59.184 -58.495  1.00  0.00     0.020 A 
HETATM   24  C   UNL     1     -43.513  59.642 -57.391  1.00  0.00     0.030 A 
BRANCH  22  25
HETATM   25  C   UNL     1     -44.784  57.340 -60.134  1.00  0.00     0.293 C 
HETATM   26  O   UNL     1     -45.845  57.805 -60.518  1.00  0.00    -0.259 OA
BRANCH  25  27
HETATM   27  O   UNL     1     -44.110  56.301 -60.680  1.00  0.00    -0.318 OA
BRANCH  27  28
HETATM   28  C   UNL     1     -44.876  55.114 -60.940  1.00  0.00     0.174 C 
HETATM   29  C   UNL     1     -44.714  54.137 -59.791  1.00  0.00     0.034 C 
ENDBRANCH  27  28
ENDBRANCH  25  27
ENDBRANCH  22  25
ENDBRANCH  16  19
ENDBRANCH  14  15
ENDBRANCH   1  14
BRANCH   7  30
HETATM   30  C   UNL     1     -40.577  52.199 -53.405  1.00  0.00    -0.001 A 
HETATM   31  C   UNL     1     -40.158  51.674 -52.178  1.00  0.00     0.037 A 
HETATM   32  C   UNL     1     -39.608  50.391 -52.121  1.00  0.00     0.035 A 
HETATM   33 CL   UNL     1     -39.097  49.751 -50.608  1.00  0.00    -0.084 Cl
HETATM   34  C   UNL     1     -39.468  49.624 -53.275  1.00  0.00     0.024 A 
HETATM   35  C   UNL     1     -39.879  50.143 -54.501  1.00  0.00     0.003 A 
HETATM   36  C   UNL     1     -40.431  51.424 -54.566  1.00  0.00     0.014 A 
ENDBRANCH   7  30
TORSDOF 7
ENDMDL
MODEL 2
REMARK VINA RESULT:      -8.6      1.541      2.197
REMARK  7 active torsions:
REMARK  status: ('A' for Active; 'I' for Inactive)
REMARK    1  A    between atoms: C_2  and  O_3 
REMARK    2  A    between atoms: O_3  and  C_4 
REMARK    3  A    between atoms: C_4  and  C_5 
REMARK    4  A    between atoms: C_8  and  N_9 
REMARK       I    between atoms: N_9  and  C_10 
REMARK    5  A    between atoms: C_10  and  C_11 
REMARK    6  A    between atoms: C_11  and  N_12 
REMARK    7  A    between atoms: C_18  and  C_19 
ROOT
HETATM    1  N   UNL     1     -43.874  58.489 -54.617  1.00  0.00    -0.063 N 
HETATM    2  H   UNL     1     -44.668  58.763 -54.021  1.00  0.00     0.280 HD
HETATM    3  C   UNL     1     -44.273  57.157 -55.237  1.00  0.00     0.240 C 
HETATM    4  C   UNL     1     -43.980  55.967 -54.348  1.00  0.00     0.083 C 
HETATM    5  C   UNL     1     -42.567  56.033 -53.786  1.00  0.00     0.131 A 
HETATM    6  N   UNL     1     -42.333  54.845 -52.929  1.00  0.00    -0.251 NA
HETATM    7  C   UNL     1     -41.266  54.246 -53.393  1.00  0.00     0.132 A 
HETATM    8  C   UNL     1     -40.709  54.956 -54.609  1.00  0.00     0.272 A 
HETATM    9  O   UNL     1     -39.731  54.680 -55.258  1.00  0.00    -0.266 OA
HETATM   10  N   UNL     1     -41.564  55.992 -54.802  1.00  0.00    -0.327 N 
HETATM   11  C   UNL     1     -42.464  57.271 -52.905  1.00  0.00     0.083 C 
HETATM   12  C   UNL     1     -42.649  58.530 -53.720  1.00  0.00     0.240 C 
HETATM   13  H   UNL     1     -41.415  56.644 -55.573  1.00  0.00     0.165 HD
ENDROOT
BRANCH   1  14
HETATM   14  C   UNL     1     -43.750  59.592 -55.720  1.00  0.00     0.337 C 
BRANCH  14  15
HETATM   15  C   UNL     1     -42.395  59.589 -56.452  1.00  0.00     0.248 C 
HETATM   16  N   UNL     1     -42.167  58.888 -57.589  1.00  0.00    -0.326 N 
HETATM   17  H   UNL     1     -41.225  59.071 -57.933  1.00  0.00     0.169 HD
HETATM   18  O   UNL     1     -41.461  60.285 -56.028  1.00  0.00    -0.271 OA
BRANCH  16  19
HETATM   19  C   UNL     1     -42.932  58.037 -58.403  1.00  0.00     0.034 A 
HETATM   20  C   UNL     1     -42.839  56.648 -58.456  1.00  0.00     0.030 A 
HETATM   21  C   UNL     1     -43.697  55.915 -59.293  1.00  0.00     0.020 A 
HETATM   22  C   UNL     1     -44.653  56.559 -60.089  1.00  0.00     0.039 A 
HETATM   23  C   UNL     1     -44.726  57.952 -60.060  1.00  0.00     0.020 A 
HETATM   24  C   UNL     1     -43.871  58.678 -59.228  1.00  0.00     0.030 A 
BRANCH  22  25
HETATM   25  C   UNL     1     -45.552  55.730 -60.937  1.00  0.00     0.293 C 
HETATM   26  O   UNL     1     -45.138  54.902 -61.731  1.00  0.00    -0.259 OA
BRANCH  25  27
HETATM   27  O   UNL     1     -46.846  56.018 -60.666  1.00  0.00    -0.318 OA
BRANCH  27  28
HETATM   28  C   UNL     1     -47.643  56.462 -61.776  1.00  0.00     0.174 C 
HETATM   29  C   UNL     1     -48.015  57.920 -61.589  1.00  0.00     0.034 C 
ENDBRANCH  27  28
ENDBRANCH  25  27
ENDBRANCH  22  25
ENDBRANCH  16  19
ENDBRANCH  14  15
ENDBRANCH   1  14
BRANCH   7  30
HETATM   30  C   UNL     1     -40.679  53.030 -52.793  1.00  0.00    -0.001 A 
HETATM   31  C   UNL     1     -40.237  51.950 -53.563  1.00  0.00     0.037 A 
HETATM   32  C   UNL     1     -39.680  50.831 -52.937  1.00  0.00     0.035 A 
HETATM   33 CL   UNL     1     -39.135  49.507 -53.892  1.00  0.00    -0.084 Cl
HETATM   34  C   UNL     1     -39.561  50.775 -51.551  1.00  0.00     0.024 A 
HETATM   35  C   UNL     1     -40.004  51.846 -50.778  1.00  0.00     0.003 A 
HETATM   36  C   UNL     1     -40.560  52.969 -51.395  1.00  0.00     0.014 A 
ENDBRANCH   7  30
TORSDOF 7
ENDMDL
MODEL 3
REMARK VINA RESULT:      -8.5      4.997      8.406
REMARK  7 active torsions:
REMARK  status: ('A' for Active; 'I' for Inactive)
REMARK    1  A    between atoms: C_2  and  O_3 
REMARK    2  A    between atoms: O_3  and  C_4 
REMARK    3  A    between atoms: C_4  and  C_5 
REMARK    4  A    between atoms: C_8  and  N_9 
REMARK       I    between atoms: N_9  and  C_10 
REMARK    5  A    between atoms: C_10  and  C_11 
REMARK    6  A    between atoms: C_11  and  N_12 
REMARK    7  A    between atoms: C_18  and  C_19 
ROOT
HETATM    1  N   UNL     1     -42.613  58.900 -50.829  1.00  0.00    -0.063 N 
HETATM    2  H   UNL     1     -42.980  58.943 -49.869  1.00  0.00     0.280 HD
HETATM    3  C   UNL     1     -43.571  57.996 -51.591  1.00  0.00     0.240 C 
HETATM    4  C   UNL     1     -43.260  56.522 -51.437  1.00  0.00     0.083 C 
HETATM    5  C   UNL     1     -41.780  56.244 -51.657  1.00  0.00     0.131 A 
HETATM    6  N   UNL     1     -41.534  54.791 -51.499  1.00  0.00    -0.251 NA
HETATM    7  C   UNL     1     -40.959  54.381 -52.601  1.00  0.00     0.132 A 
HETATM    8  C   UNL     1     -40.795  55.506 -53.600  1.00  0.00     0.272 A 
HETATM    9  O   UNL     1     -40.289  55.472 -54.694  1.00  0.00    -0.266 OA
HETATM   10  N   UNL     1     -41.344  56.579 -52.976  1.00  0.00    -0.327 N 
HETATM   11  C   UNL     1     -40.995  56.972 -50.574  1.00  0.00     0.083 C 
HETATM   12  C   UNL     1     -41.162  58.468 -50.698  1.00  0.00     0.240 C 
HETATM   13  H   UNL     1     -41.364  57.488 -53.439  1.00  0.00     0.165 HD
ENDROOT
BRANCH   1  14
HETATM   14  C   UNL     1     -42.673  60.361 -51.390  1.00  0.00     0.337 C 
BRANCH  14  15
HETATM   15  C   UNL     1     -44.079  60.794 -51.844  1.00  0.00     0.248 C 
HETATM   16  N   UNL     1     -45.035  61.229 -50.987  1.00  0.00    -0.326 N 
HETATM   17  H   UNL     1     -45.866  61.515 -51.503  1.00  0.00     0.169 HD
HETATM   18  O   UNL     1     -44.367  60.795 -53.050  1.00  0.00    -0.271 OA
BRANCH  16  19
HETATM   19  C   UNL     1     -45.113  61.419 -49.598  1.00  0.00     0.034 A 
HETATM   20  C   UNL     1     -45.498  60.466 -48.658  1.00  0.00     0.030 A 
HETATM   21  C   UNL     1     -45.495  60.783 -47.290  1.00  0.00     0.020 A 
HETATM   22  C   UNL     1     -45.112  62.054 -46.844  1.00  0.00     0.039 A 
HETATM   23  C   UNL     1     -44.757  63.020 -47.786  1.00  0.00     0.020 A 
HETATM   24  C   UNL     1     -44.762  62.702 -49.147  1.00  0.00     0.030 A 
BRANCH  22  25
HETATM   25  C   UNL     1     -45.104  62.326 -45.381  1.00  0.00     0.293 C 
HETATM   26  O   UNL     1     -44.563  61.590 -44.572  1.00  0.00    -0.259 OA
BRANCH  25  27
HETATM   27  O   UNL     1     -45.744  63.489 -45.118  1.00  0.00    -0.318 OA
BRANCH  27  28
HETATM   28  C   UNL     1     -45.403  64.135 -43.881  1.00  0.00     0.174 C 
HETATM   29  C   UNL     1     -44.037  64.782 -44.000  1.00  0.00     0.034 C 
ENDBRANCH  27  28
ENDBRANCH  25  27
ENDBRANCH  22  25
ENDBRANCH  16  19
ENDBRANCH  14  15
ENDBRANCH   1  14
BRANCH   7  30
HETATM   30  C   UNL     1     -40.521  52.988 -52.830  1.00  0.00    -0.001 A 
HETATM   31  C   UNL     1     -40.073  52.160 -51.796  1.00  0.00     0.037 A 
HETATM   32  C   UNL     1     -39.682  50.848 -52.074  1.00  0.00     0.035 A 
HETATM   33 CL   UNL     1     -39.136  49.834 -50.794  1.00  0.00    -0.084 Cl
HETATM   34  C   UNL     1     -39.730  50.350 -53.373  1.00  0.00     0.024 A 
HETATM   35  C   UNL     1     -40.170  51.171 -54.409  1.00  0.00     0.003 A 
HETATM   36  C   UNL     1     -40.564  52.484 -54.140  1.00  0.00     0.014 A 
ENDBRANCH   7  30
TORSDOF 7
ENDMDL
MODEL 4
REMARK VINA RESULT:      -8.5      4.692      8.957
REMARK  7 active torsions:
REMARK  status: ('A' for Active; 'I' for Inactive)
REMARK    1  A    between atoms: C_2  and  O_3 
REMARK    2  A    between atoms: O_3  and  C_4 
REMARK    3  A    between atoms: C_4  and  C_5 
REMARK    4  A    between atoms: C_8  and  N_9 
REMARK       I    between atoms: N_9  and  C_10 
REMARK    5  A    between atoms: C_10  and  C_11 
REMARK    6  A    between atoms: C_11  and  N_12 
REMARK    7  A    between atoms: C_18  and  C_19 
ROOT
HETATM    1  N   UNL     1     -44.472  58.188 -53.884  1.00  0.00    -0.063 N 
HETATM    2  H   UNL     1     -45.228  57.548 -54.165  1.00  0.00     0.280 HD
HETATM    3  C   UNL     1     -43.915  57.616 -52.589  1.00  0.00     0.240 C 
HETATM    4  C   UNL     1     -44.692  58.040 -51.360  1.00  0.00     0.083 C 
HETATM    5  C   UNL     1     -44.947  59.540 -51.358  1.00  0.00     0.131 A 
HETATM    6  N   UNL     1     -45.704  59.899 -50.135  1.00  0.00    -0.251 NA
HETATM    7  C   UNL     1     -45.012  60.821 -49.516  1.00  0.00     0.132 A 
HETATM    8  C   UNL     1     -43.725  61.140 -50.247  1.00  0.00     0.272 A 
HETATM    9  O   UNL     1     -42.879  61.950 -49.960  1.00  0.00    -0.266 OA
HETATM   10  N   UNL     1     -43.742  60.306 -51.318  1.00  0.00    -0.327 N 
HETATM   11  C   UNL     1     -45.818  59.874 -52.562  1.00  0.00     0.083 C 
HETATM   12  C   UNL     1     -45.094  59.574 -53.853  1.00  0.00     0.240 C 
HETATM   13  H   UNL     1     -42.975  60.318 -51.990  1.00  0.00     0.165 HD
ENDROOT
BRANCH   1  14
HETATM   14  C   UNL     1     -43.396  58.125 -55.020  1.00  0.00     0.337 C 
BRANCH  14  15
HETATM   15  C   UNL     1     -43.700  57.077 -56.105  1.00  0.00     0.248 C 
HETATM   16  N   UNL     1     -43.312  55.781 -56.018  1.00  0.00    -0.326 N 
HETATM   17  H   UNL     1     -43.664  55.253 -56.815  1.00  0.00     0.169 HD
HETATM   18  O   UNL     1     -44.368  57.393 -57.101  1.00  0.00    -0.271 OA
BRANCH  16  19
HETATM   19  C   UNL     1     -42.602  55.018 -55.077  1.00  0.00     0.034 A 
HETATM   20  C   UNL     1     -43.108  54.509 -53.882  1.00  0.00     0.030 A 
HETATM   21  C   UNL     1     -42.292  53.727 -53.048  1.00  0.00     0.020 A 
HETATM   22  C   UNL     1     -40.963  53.448 -53.392  1.00  0.00     0.039 A 
HETATM   23  C   UNL     1     -40.446  53.983 -54.572  1.00  0.00     0.020 A 
HETATM   24  C   UNL     1     -41.260  54.762 -55.399  1.00  0.00     0.030 A 
BRANCH  22  25
HETATM   25  C   UNL     1     -40.154  52.593 -52.482  1.00  0.00     0.293 C 
HETATM   26  O   UNL     1     -40.263  52.626 -51.267  1.00  0.00    -0.259 OA
BRANCH  25  27
HETATM   27  O   UNL     1     -39.336  51.789 -53.201  1.00  0.00    -0.318 OA
BRANCH  27  28
HETATM   28  C   UNL     1     -39.662  50.390 -53.201  1.00  0.00     0.174 C 
HETATM   29  C   UNL     1     -40.317  50.017 -54.517  1.00  0.00     0.034 C 
ENDBRANCH  27  28
ENDBRANCH  25  27
ENDBRANCH  22  25
ENDBRANCH  16  19
ENDBRANCH  14  15
ENDBRANCH   1  14
BRANCH   7  30
HETATM   30  C   UNL     1     -45.444  61.470 -48.261  1.00  0.00    -0.001 A 
HETATM   31  C   UNL     1     -44.811  61.236 -47.036  1.00  0.00     0.037 A 
HETATM   32  C   UNL     1     -45.258  61.889 -45.885  1.00  0.00     0.035 A 
HETATM   33 CL   UNL     1     -44.471  61.599 -44.382  1.00  0.00    -0.084 Cl
HETATM   34  C   UNL     1     -46.334  62.772 -45.939  1.00  0.00     0.024 A 
HETATM   35  C   UNL     1     -46.972  63.006 -47.155  1.00  0.00     0.003 A 
HETATM   36  C   UNL     1     -46.530  62.359 -48.311  1.00  0.00     0.014 A 
ENDBRANCH   7  30
TORSDOF 7
ENDMDL
MODEL 5
REMARK VINA RESULT:      -8.4      2.025      2.844
REMARK  7 active torsions:
REMARK  status: ('A' for Active; 'I' for Inactive)
REMARK    1  A    between atoms: C_2  and  O_3 
REMARK    2  A    between atoms: O_3  and  C_4 
REMARK    3  A    between atoms: C_4  and  C_5 
REMARK    4  A    between atoms: C_8  and  N_9 
REMARK       I    between atoms: N_9  and  C_10 
REMARK    5  A    between atoms: C_10  and  C_11 
REMARK    6  A    between atoms: C_11  and  N_12 
REMARK    7  A    between atoms: C_18  and  C_19 
ROOT
HETATM    1  N   UNL     1     -42.951  59.061 -55.267  1.00  0.00    -0.063 N 
HETATM    2  H   UNL     1     -42.327  59.561 -55.914  1.00  0.00     0.280 HD
HETATM    3  C   UNL     1     -42.202  59.005 -53.943  1.00  0.00     0.240 C 
HETATM    4  C   UNL     1     -41.227  57.851 -53.850  1.00  0.00     0.083 C 
HETATM    5  C   UNL     1     -41.872  56.546 -54.295  1.00  0.00     0.131 A 
HETATM    6  N   UNL     1     -40.876  55.453 -54.180  1.00  0.00    -0.251 NA
HETATM    7  C   UNL     1     -41.410  54.532 -53.419  1.00  0.00     0.132 A 
HETATM    8  C   UNL     1     -42.787  54.933 -52.935  1.00  0.00     0.272 A 
HETATM    9  O   UNL     1     -43.552  54.309 -52.243  1.00  0.00    -0.266 OA
HETATM   10  N   UNL     1     -42.975  56.165 -53.472  1.00  0.00    -0.327 N 
HETATM   11  C   UNL     1     -42.250  56.681 -55.764  1.00  0.00     0.083 C 
HETATM   12  C   UNL     1     -43.298  57.752 -55.956  1.00  0.00     0.240 C 
HETATM   13  H   UNL     1     -43.843  56.673 -53.300  1.00  0.00     0.165 HD
ENDROOT
BRANCH   1  14
HETATM   14  C   UNL     1     -44.241  59.937 -55.131  1.00  0.00     0.337 C 
BRANCH  14  15
HETATM   15  C   UNL     1     -44.363  61.033 -56.206  1.00  0.00     0.248 C 
HETATM   16  N   UNL     1     -44.846  60.803 -57.451  1.00  0.00    -0.326 N 
HETATM   17  H   UNL     1     -44.890  61.673 -57.978  1.00  0.00     0.169 HD
HETATM   18  O   UNL     1     -44.052  62.202 -55.935  1.00  0.00    -0.271 OA
BRANCH  16  19
HETATM   19  C   UNL     1     -45.333  59.678 -58.135  1.00  0.00     0.034 A 
HETATM   20  C   UNL     1     -46.431  58.903 -57.765  1.00  0.00     0.030 A 
HETATM   21  C   UNL     1     -46.833  57.821 -58.566  1.00  0.00     0.020 A 
HETATM   22  C   UNL     1     -46.143  57.497 -59.741  1.00  0.00     0.039 A 
HETATM   23  C   UNL     1     -45.025  58.252 -60.097  1.00  0.00     0.020 A 
HETATM   24  C   UNL     1     -44.627  59.327 -59.297  1.00  0.00     0.030 A 
BRANCH  22  25
HETATM   25  C   UNL     1     -46.629  56.356 -60.564  1.00  0.00     0.293 C 
HETATM   26  O   UNL     1     -47.809  56.167 -60.806  1.00  0.00    -0.259 OA
BRANCH  25  27
HETATM   27  O   UNL     1     -45.583  55.617 -61.001  1.00  0.00    -0.318 OA
BRANCH  27  28
HETATM   28  C   UNL     1     -45.244  54.466 -60.210  1.00  0.00     0.174 C 
HETATM   29  C   UNL     1     -43.981  54.743 -59.417  1.00  0.00     0.034 C 
ENDBRANCH  27  28
ENDBRANCH  25  27
ENDBRANCH  22  25
ENDBRANCH  16  19
ENDBRANCH  14  15
ENDBRANCH   1  14
BRANCH   7  30
HETATM   30  C   UNL     1     -40.744  53.256 -53.083  1.00  0.00    -0.001 A 
HETATM   31  C   UNL     1     -40.537  52.245 -54.027  1.00  0.00     0.037 A 
HETATM   32  C   UNL     1     -39.890  51.064 -53.651  1.00  0.00     0.035 A 
HETATM   33 CL   UNL     1     -39.636  49.826 -54.819  1.00  0.00    -0.084 Cl
HETATM   34  C   UNL     1     -39.450  50.878 -52.344  1.00  0.00     0.024 A 
HETATM   35  C   UNL     1     -39.657  51.879 -51.397  1.00  0.00     0.003 A 
HETATM   36  C   UNL     1     -40.301  53.063 -51.765  1.00  0.00     0.014 A 
ENDBRANCH   7  30
TORSDOF 7
ENDMDL
MODEL 6
REMARK VINA RESULT:      -8.4      1.861      2.379
REMARK  7 active torsions:
REMARK  status: ('A' for Active; 'I' for Inactive)
REMARK    1  A    between atoms: C_2  and  O_3 
REMARK    2  A    between atoms: O_3  and  C_4 
REMARK    3  A    between atoms: C_4  and  C_5 
REMARK    4  A    between atoms: C_8  and  N_9 
REMARK       I    between atoms: N_9  and  C_10 
REMARK    5  A    between atoms: C_10  and  C_11 
REMARK    6  A    between atoms: C_11  and  N_12 
REMARK    7  A    between atoms: C_18  and  C_19 
ROOT
HETATM    1  N   UNL     1     -42.585  59.514 -53.058  1.00  0.00    -0.063 N 
HETATM    2  H   UNL     1     -42.067  60.180 -52.469  1.00  0.00     0.280 HD
HETATM    3  C   UNL     1     -43.314  58.595 -52.089  1.00  0.00     0.240 C 
HETATM    4  C   UNL     1     -42.463  57.447 -51.590  1.00  0.00     0.083 C 
HETATM    5  C   UNL     1     -41.744  56.753 -52.737  1.00  0.00     0.131 A 
HETATM    6  N   UNL     1     -40.931  55.639 -52.193  1.00  0.00    -0.251 NA
HETATM    7  C   UNL     1     -41.304  54.554 -52.823  1.00  0.00     0.132 A 
HETATM    8  C   UNL     1     -42.411  54.835 -53.816  1.00  0.00     0.272 A 
HETATM    9  O   UNL     1     -42.960  54.067 -54.567  1.00  0.00    -0.266 OA
HETATM   10  N   UNL     1     -42.643  56.165 -53.679  1.00  0.00    -0.327 N 
HETATM   11  C   UNL     1     -40.793  57.756 -53.377  1.00  0.00     0.083 C 
HETATM   12  C   UNL     1     -41.555  58.905 -53.995  1.00  0.00     0.240 C 
HETATM   13  H   UNL     1     -43.356  56.623 -54.246  1.00  0.00     0.165 HD
ENDROOT
BRANCH   1  14
HETATM   14  C   UNL     1     -43.608  60.361 -53.887  1.00  0.00     0.337 C 
BRANCH  14  15
HETATM   15  C   UNL     1     -44.980  59.685 -54.057  1.00  0.00     0.248 C 
HETATM   16  N   UNL     1     -45.289  58.882 -55.104  1.00  0.00    -0.326 N 
HETATM   17  H   UNL     1     -46.226  58.498 -54.990  1.00  0.00     0.169 HD
HETATM   18  O   UNL     1     -45.853  59.830 -53.188  1.00  0.00    -0.271 OA
BRANCH  16  19
HETATM   19  C   UNL     1     -44.606  58.432 -56.245  1.00  0.00     0.034 A 
HETATM   20  C   UNL     1     -43.845  57.268 -56.343  1.00  0.00     0.030 A 
HETATM   21  C   UNL     1     -43.245  56.919 -57.563  1.00  0.00     0.020 A 
HETATM   22  C   UNL     1     -43.391  57.727 -58.698  1.00  0.00     0.039 A 
HETATM   23  C   UNL     1     -44.127  58.908 -58.594  1.00  0.00     0.020 A 
HETATM   24  C   UNL     1     -44.722  59.253 -57.378  1.00  0.00     0.030 A 
BRANCH  22  25
HETATM   25  C   UNL     1     -42.753  57.293 -59.971  1.00  0.00     0.293 C 
HETATM   26  O   UNL     1     -42.019  58.015 -60.625  1.00  0.00    -0.259 OA
BRANCH  25  27
HETATM   27  O   UNL     1     -43.087  56.011 -60.248  1.00  0.00    -0.318 OA
BRANCH  27  28
HETATM   28  C   UNL     1     -44.432  55.789 -60.699  1.00  0.00     0.174 C 
HETATM   29  C   UNL     1     -45.007  54.564 -60.014  1.00  0.00     0.034 C 
ENDBRANCH  27  28
ENDBRANCH  25  27
ENDBRANCH  22  25
ENDBRANCH  16  19
ENDBRANCH  14  15
ENDBRANCH   1  14
BRANCH   7  30
HETATM   30  C   UNL     1     -40.707  53.222 -52.590  1.00  0.00    -0.001 A 
HETATM   31  C   UNL     1     -40.416  52.336 -53.632  1.00  0.00     0.037 A 
HETATM   32  C   UNL     1     -39.840  51.094 -53.349  1.00  0.00     0.035 A 
HETATM   33 CL   UNL     1     -39.481  50.011 -54.637  1.00  0.00    -0.084 Cl
HETATM   34  C   UNL     1     -39.554  50.724 -52.038  1.00  0.00     0.024 A 
HETATM   35  C   UNL     1     -39.846  51.599 -50.995  1.00  0.00     0.003 A 
HETATM   36  C   UNL     1     -40.420  52.843 -51.269  1.00  0.00     0.014 A 
ENDBRANCH   7  30
TORSDOF 7
ENDMDL
MODEL 7
REMARK VINA RESULT:      -8.2      4.986      9.377
REMARK  7 active torsions:
REMARK  status: ('A' for Active; 'I' for Inactive)
REMARK    1  A    between atoms: C_2  and  O_3 
REMARK    2  A    between atoms: O_3  and  C_4 
REMARK    3  A    between atoms: C_4  and  C_5 
REMARK    4  A    between atoms: C_8  and  N_9 
REMARK       I    between atoms: N_9  and  C_10 
REMARK    5  A    between atoms: C_10  and  C_11 
REMARK    6  A    between atoms: C_11  and  N_12 
REMARK    7  A    between atoms: C_18  and  C_19 
ROOT
HETATM    1  N   UNL     1     -41.612  59.085 -53.339  1.00  0.00    -0.063 N 
HETATM    2  H   UNL     1     -40.672  59.491 -53.434  1.00  0.00     0.280 HD
HETATM    3  C   UNL     1     -42.578  60.221 -53.644  1.00  0.00     0.240 C 
HETATM    4  C   UNL     1     -42.869  61.103 -52.449  1.00  0.00     0.083 C 
HETATM    5  C   UNL     1     -43.202  60.272 -51.218  1.00  0.00     0.131 A 
HETATM    6  N   UNL     1     -43.480  61.183 -50.082  1.00  0.00    -0.251 NA
HETATM    7  C   UNL     1     -44.670  60.875 -49.631  1.00  0.00     0.132 A 
HETATM    8  C   UNL     1     -45.302  59.757 -50.434  1.00  0.00     0.272 A 
HETATM    9  O   UNL     1     -46.371  59.226 -50.269  1.00  0.00    -0.266 OA
HETATM   10  N   UNL     1     -44.377  59.478 -51.387  1.00  0.00    -0.327 N 
HETATM   11  C   UNL     1     -41.975  59.443 -50.861  1.00  0.00     0.083 C 
HETATM   12  C   UNL     1     -41.653  58.454 -51.957  1.00  0.00     0.240 C 
HETATM   13  H   UNL     1     -44.554  58.745 -52.075  1.00  0.00     0.165 HD
ENDROOT
BRANCH   1  14
HETATM   14  C   UNL     1     -41.721  57.964 -54.427  1.00  0.00     0.337 C 
BRANCH  14  15
HETATM   15  C   UNL     1     -43.072  57.225 -54.424  1.00  0.00     0.248 C 
HETATM   16  N   UNL     1     -43.195  55.904 -54.149  1.00  0.00    -0.326 N 
HETATM   17  H   UNL     1     -44.178  55.634 -54.148  1.00  0.00     0.169 HD
HETATM   18  O   UNL     1     -44.120  57.851 -54.638  1.00  0.00    -0.271 OA
BRANCH  16  19
HETATM   19  C   UNL     1     -42.303  54.869 -53.822  1.00  0.00     0.034 A 
HETATM   20  C   UNL     1     -42.117  54.313 -52.558  1.00  0.00     0.030 A 
HETATM   21  C   UNL     1     -41.214  53.252 -52.380  1.00  0.00     0.020 A 
HETATM   22  C   UNL     1     -40.482  52.739 -53.459  1.00  0.00     0.039 A 
HETATM   23  C   UNL     1     -40.644  53.315 -54.719  1.00  0.00     0.020 A 
HETATM   24  C   UNL     1     -41.543  54.371 -54.892  1.00  0.00     0.030 A 
BRANCH  22  25
HETATM   25  C   UNL     1     -39.558  51.598 -53.216  1.00  0.00     0.293 C 
HETATM   26  O   UNL     1     -39.202  50.832 -54.096  1.00  0.00    -0.259 OA
BRANCH  25  27
HETATM   27  O   UNL     1     -39.174  51.576 -51.918  1.00  0.00    -0.318 OA
BRANCH  27  28
HETATM   28  C   UNL     1     -39.261  50.306 -51.252  1.00  0.00     0.174 C 
HETATM   29  C   UNL     1     -40.296  50.377 -50.145  1.00  0.00     0.034 C 
ENDBRANCH  27  28
ENDBRANCH  25  27
ENDBRANCH  22  25
ENDBRANCH  16  19
ENDBRANCH  14  15
ENDBRANCH   1  14
BRANCH   7  30
HETATM   30  C   UNL     1     -45.307  61.537 -48.473  1.00  0.00    -0.001 A 
HETATM   31  C   UNL     1     -46.382  62.421 -48.611  1.00  0.00     0.037 A 
HETATM   32  C   UNL     1     -46.951  63.007 -47.477  1.00  0.00     0.035 A 
HETATM   33 CL   UNL     1     -48.276  64.091 -47.654  1.00  0.00    -0.084 Cl
HETATM   34  C   UNL     1     -46.457  62.725 -46.206  1.00  0.00     0.024 A 
HETATM   35  C   UNL     1     -45.384  61.849 -46.062  1.00  0.00     0.003 A 
HETATM   36  C   UNL     1     -44.811  61.257 -47.190  1.00  0.00     0.014 A 
ENDBRANCH   7  30
TORSDOF 7
ENDMDL
MODEL 8
REMARK VINA RESULT:      -8.1      2.031      2.754
REMARK  7 active torsions:
REMARK  status: ('A' for Active; 'I' for Inactive)
REMARK    1  A    between atoms: C_2  and  O_3 
REMARK    2  A    between atoms: O_3  and  C_4 
REMARK    3  A    between atoms: C_4  and  C_5 
REMARK    4  A    between atoms: C_8  and  N_9 
REMARK       I    between atoms: N_9  and  C_10 
REMARK    5  A    between atoms: C_10  and  C_11 
REMARK    6  A    between atoms: C_11  and  N_12 
REMARK    7  A    between atoms: C_18  and  C_19 
ROOT
HETATM    1  N   UNL     1     -42.892  58.651 -50.927  1.00  0.00    -0.063 N 
HETATM    2  H   UNL     1     -43.201  58.816 -49.959  1.00  0.00     0.280 HD
HETATM    3  C   UNL     1     -43.821  57.576 -51.472  1.00  0.00     0.240 C 
HETATM    4  C   UNL     1     -43.385  56.168 -51.123  1.00  0.00     0.083 C 
HETATM    5  C   UNL     1     -41.905  55.962 -51.409  1.00  0.00     0.131 A 
HETATM    6  N   UNL     1     -41.535  54.572 -51.055  1.00  0.00    -0.251 NA
HETATM    7  C   UNL     1     -41.000  54.037 -52.123  1.00  0.00     0.132 A 
HETATM    8  C   UNL     1     -40.989  55.003 -53.288  1.00  0.00     0.272 A 
HETATM    9  O   UNL     1     -40.552  54.836 -54.399  1.00  0.00    -0.266 OA
HETATM   10  N   UNL     1     -41.581  56.119 -52.792  1.00  0.00    -0.327 N 
HETATM   11  C   UNL     1     -41.113  56.901 -50.508  1.00  0.00     0.083 C 
HETATM   12  C   UNL     1     -41.407  58.345 -50.841  1.00  0.00     0.240 C 
HETATM   13  H   UNL     1     -41.702  56.942 -53.382  1.00  0.00     0.165 HD
ENDROOT
BRANCH   1  14
HETATM   14  C   UNL     1     -43.104  59.999 -51.693  1.00  0.00     0.337 C 
BRANCH  14  15
HETATM   15  C   UNL     1     -44.583  60.355 -51.928  1.00  0.00     0.248 C 
HETATM   16  N   UNL     1     -45.202  60.210 -53.125  1.00  0.00    -0.326 N 
HETATM   17  H   UNL     1     -46.188  60.450 -53.043  1.00  0.00     0.169 HD
HETATM   18  O   UNL     1     -45.280  60.756 -50.984  1.00  0.00    -0.271 OA
BRANCH  16  19
HETATM   19  C   UNL     1     -44.811  59.763 -54.397  1.00  0.00     0.034 A 
HETATM   20  C   UNL     1     -44.233  60.541 -55.400  1.00  0.00     0.030 A 
HETATM   21  C   UNL     1     -43.855  59.953 -56.618  1.00  0.00     0.020 A 
HETATM   22  C   UNL     1     -44.053  58.587 -56.853  1.00  0.00     0.039 A 
HETATM   23  C   UNL     1     -44.659  57.813 -55.863  1.00  0.00     0.020 A 
HETATM   24  C   UNL     1     -45.036  58.401 -54.652  1.00  0.00     0.030 A 
BRANCH  22  25
HETATM   25  C   UNL     1     -43.609  58.014 -58.153  1.00  0.00     0.293 C 
HETATM   26  O   UNL     1     -42.738  58.520 -58.840  1.00  0.00    -0.259 OA
BRANCH  25  27
HETATM   27  O   UNL     1     -44.287  56.872 -58.416  1.00  0.00    -0.318 OA
BRANCH  27  28
HETATM   28  C   UNL     1     -43.491  55.727 -58.761  1.00  0.00     0.174 C 
HETATM   29  C   UNL     1     -44.261  54.837 -59.718  1.00  0.00     0.034 C 
ENDBRANCH  27  28
ENDBRANCH  25  27
ENDBRANCH  22  25
ENDBRANCH  16  19
ENDBRANCH  14  15
ENDBRANCH   1  14
BRANCH   7  30
HETATM   30  C   UNL     1     -40.467  52.659 -52.174  1.00  0.00    -0.001 A 
HETATM   31  C   UNL     1     -40.282  51.968 -53.376  1.00  0.00     0.037 A 
HETATM   32  C   UNL     1     -39.764  50.671 -53.360  1.00  0.00     0.035 A 
HETATM   33 CL   UNL     1     -39.535  49.829 -54.844  1.00  0.00    -0.084 Cl
HETATM   34  C   UNL     1     -39.430  50.051 -52.159  1.00  0.00     0.024 A 
HETATM   35  C   UNL     1     -39.617  50.731 -50.958  1.00  0.00     0.003 A 
HETATM   36  C   UNL     1     -40.133  52.029 -50.964  1.00  0.00     0.014 A 
ENDBRANCH   7  30
TORSDOF 7
ENDMDL
MODEL 9
REMARK VINA RESULT:      -8.1      1.821      2.306
REMARK  7 active torsions:
REMARK  status: ('A' for Active; 'I' for Inactive)
REMARK    1  A    between atoms: C_2  and  O_3 
REMARK    2  A    between atoms: O_3  and  C_4 
REMARK    3  A    between atoms: C_4  and  C_5 
REMARK    4  A    between atoms: C_8  and  N_9 
REMARK       I    between atoms: N_9  and  C_10 
REMARK    5  A    between atoms: C_10  and  C_11 
REMARK    6  A    between atoms: C_11  and  N_12 
REMARK    7  A    between atoms: C_18  and  C_19 
ROOT
HETATM    1  N   UNL     1     -42.235  58.764 -54.382  1.00  0.00    -0.063 N 
HETATM    2  H   UNL     1     -41.693  59.256 -55.105  1.00  0.00     0.280 HD
HETATM    3  C   UNL     1     -41.242  58.450 -53.272  1.00  0.00     0.240 C 
HETATM    4  C   UNL     1     -40.456  57.177 -53.509  1.00  0.00     0.083 C 
HETATM    5  C   UNL     1     -41.372  56.031 -53.913  1.00  0.00     0.131 A 
HETATM    6  N   UNL     1     -40.554  54.813 -54.127  1.00  0.00    -0.251 NA
HETATM    7  C   UNL     1     -41.050  53.882 -53.352  1.00  0.00     0.132 A 
HETATM    8  C   UNL     1     -42.216  54.395 -52.534  1.00  0.00     0.272 A 
HETATM    9  O   UNL     1     -42.904  53.795 -51.746  1.00  0.00    -0.266 OA
HETATM   10  N   UNL     1     -42.322  55.698 -52.900  1.00  0.00    -0.327 N 
HETATM   11  C   UNL     1     -42.027  56.393 -55.239  1.00  0.00     0.083 C 
HETATM   12  C   UNL     1     -42.916  57.606 -55.091  1.00  0.00     0.240 C 
HETATM   13  H   UNL     1     -43.047  56.288 -52.490  1.00  0.00     0.165 HD
ENDROOT
BRANCH   1  14
HETATM   14  C   UNL     1     -43.318  59.776 -53.879  1.00  0.00     0.337 C 
BRANCH  14  15
HETATM   15  C   UNL     1     -42.978  61.248 -54.175  1.00  0.00     0.248 C 
HETATM   16  N   UNL     1     -42.794  61.730 -55.429  1.00  0.00    -0.326 N 
HETATM   17  H   UNL     1     -42.634  62.736 -55.399  1.00  0.00     0.169 HD
HETATM   18  O   UNL     1     -42.903  62.066 -53.246  1.00  0.00    -0.271 OA
BRANCH  16  19
HETATM   19  C   UNL     1     -42.829  61.180 -56.720  1.00  0.00     0.034 A 
HETATM   20  C   UNL     1     -41.726  60.898 -57.524  1.00  0.00     0.030 A 
HETATM   21  C   UNL     1     -41.906  60.310 -58.787  1.00  0.00     0.020 A 
HETATM   22  C   UNL     1     -43.185  60.002 -59.264  1.00  0.00     0.039 A 
HETATM   23  C   UNL     1     -44.293  60.311 -58.474  1.00  0.00     0.020 A 
HETATM   24  C   UNL     1     -44.111  60.897 -57.219  1.00  0.00     0.030 A 
BRANCH  22  25
HETATM   25  C   UNL     1     -43.313  59.357 -60.600  1.00  0.00     0.293 C 
HETATM   26  O   UNL     1     -43.813  59.915 -61.562  1.00  0.00    -0.259 OA
BRANCH  25  27
HETATM   27  O   UNL     1     -42.778  58.114 -60.571  1.00  0.00    -0.318 OA
BRANCH  27  28
HETATM   28  C   UNL     1     -43.684  57.039 -60.274  1.00  0.00     0.174 C 
HETATM   29  C   UNL     1     -42.916  55.867 -59.694  1.00  0.00     0.034 C 
ENDBRANCH  27  28
ENDBRANCH  25  27
ENDBRANCH  22  25
ENDBRANCH  16  19
ENDBRANCH  14  15
ENDBRANCH   1  14
BRANCH   7  30
HETATM   30  C   UNL     1     -40.531  52.499 -53.293  1.00  0.00    -0.001 A 
HETATM   31  C   UNL     1     -40.127  51.898 -52.097  1.00  0.00     0.037 A 
HETATM   32  C   UNL     1     -39.656  50.582 -52.103  1.00  0.00     0.035 A 
HETATM   33 CL   UNL     1     -39.164  49.848 -50.627  1.00  0.00    -0.084 Cl
HETATM   34  C   UNL     1     -39.580  49.859 -53.291  1.00  0.00     0.024 A 
HETATM   35  C   UNL     1     -39.976  50.453 -54.487  1.00  0.00     0.003 A 
HETATM   36  C   UNL     1     -40.450  51.768 -54.488  1.00  0.00     0.014 A 
ENDBRANCH   7  30
TORSDOF 7
ENDMDL
MODEL 10
REMARK VINA RESULT:      -8.0      1.877      2.577
REMARK  7 active torsions:
REMARK  status: ('A' for Active; 'I' for Inactive)
REMARK    1  A    between atoms: C_2  and  O_3 
REMARK    2  A    between atoms: O_3  and  C_4 
REMARK    3  A    between atoms: C_4  and  C_5 
REMARK    4  A    between atoms: C_8  and  N_9 
REMARK       I    between atoms: N_9  and  C_10 
REMARK    5  A    between atoms: C_10  and  C_11 
REMARK    6  A    between atoms: C_11  and  N_12 
REMARK    7  A    between atoms: C_18  and  C_19 
ROOT
HETATM    1  N   UNL     1     -43.331  58.531 -50.946  1.00  0.00    -0.063 N 
HETATM    2  H   UNL     1     -43.483  58.634 -49.933  1.00  0.00     0.280 HD
HETATM    3  C   UNL     1     -44.257  57.403 -51.382  1.00  0.00     0.240 C 
HETATM    4  C   UNL     1     -43.664  56.025 -51.181  1.00  0.00     0.083 C 
HETATM    5  C   UNL     1     -42.242  55.952 -51.719  1.00  0.00     0.131 A 
HETATM    6  N   UNL     1     -41.714  54.584 -51.501  1.00  0.00    -0.251 NA
HETATM    7  C   UNL     1     -41.330  54.134 -52.668  1.00  0.00     0.132 A 
HETATM    8  C   UNL     1     -41.590  55.140 -53.770  1.00  0.00     0.272 A 
HETATM    9  O   UNL     1     -41.336  55.050 -54.945  1.00  0.00    -0.266 OA
HETATM   10  N   UNL     1     -42.171  56.185 -53.126  1.00  0.00    -0.327 N 
HETATM   11  C   UNL     1     -41.382  56.918 -50.917  1.00  0.00     0.083 C 
HETATM   12  C   UNL     1     -41.834  58.345 -51.124  1.00  0.00     0.240 C 
HETATM   13  H   UNL     1     -42.451  57.016 -53.647  1.00  0.00     0.165 HD
ENDROOT
BRANCH   1  14
HETATM   14  C   UNL     1     -43.770  59.884 -51.598  1.00  0.00     0.337 C 
BRANCH  14  15
HETATM   15  C   UNL     1     -45.245  59.912 -52.039  1.00  0.00     0.248 C 
HETATM   16  N   UNL     1     -45.646  59.663 -53.310  1.00  0.00    -0.326 N 
HETATM   17  H   UNL     1     -46.663  59.679 -53.368  1.00  0.00     0.169 HD
HETATM   18  O   UNL     1     -46.137  60.127 -51.204  1.00  0.00    -0.271 OA
BRANCH  16  19
HETATM   19  C   UNL     1     -44.995  59.345 -54.512  1.00  0.00     0.034 A 
HETATM   20  C   UNL     1     -44.384  60.249 -55.380  1.00  0.00     0.030 A 
HETATM   21  C   UNL     1     -43.733  59.786 -56.536  1.00  0.00     0.020 A 
HETATM   22  C   UNL     1     -43.689  58.420 -56.842  1.00  0.00     0.039 A 
HETATM   23  C   UNL     1     -44.327  57.517 -55.991  1.00  0.00     0.020 A 
HETATM   24  C   UNL     1     -44.974  57.981 -54.842  1.00  0.00     0.030 A 
BRANCH  22  25
HETATM   25  C   UNL     1     -42.964  57.986 -58.067  1.00  0.00     0.293 C 
HETATM   26  O   UNL     1     -41.894  58.462 -58.410  1.00  0.00    -0.259 OA
BRANCH  25  27
HETATM   27  O   UNL     1     -43.648  56.998 -58.689  1.00  0.00    -0.318 OA
BRANCH  27  28
HETATM   28  C   UNL     1     -44.491  57.399 -59.780  1.00  0.00     0.174 C 
HETATM   29  C   UNL     1     -45.846  56.730 -59.654  1.00  0.00     0.034 C 
ENDBRANCH  27  28
ENDBRANCH  25  27
ENDBRANCH  22  25
ENDBRANCH  16  19
ENDBRANCH  14  15
ENDBRANCH   1  14
BRANCH   7  30
HETATM   30  C   UNL     1     -40.712  52.808 -52.876  1.00  0.00    -0.001 A 
HETATM   31  C   UNL     1     -40.222  52.033 -51.820  1.00  0.00     0.037 A 
HETATM   32  C   UNL     1     -39.659  50.780 -52.079  1.00  0.00     0.035 A 
HETATM   33 CL   UNL     1     -39.061  49.831 -50.774  1.00  0.00    -0.084 Cl
HETATM   34  C   UNL     1     -39.576  50.291 -53.380  1.00  0.00     0.024 A 
HETATM   35  C   UNL     1     -40.058  51.060 -54.437  1.00  0.00     0.003 A 
HETATM   36  C   UNL     1     -40.624  52.312 -54.187  1.00  0.00     0.014 A 
ENDBRANCH   7  30
TORSDOF 7
ENDMDL
