MODEL 1
REMARK VINA RESULT:     -10.3      0.000      0.000
REMARK  7 active torsions:
REMARK  status: ('A' for Active; 'I' for Inactive)
REMARK    1  A    between atoms: C_2  and  C_3 
REMARK    2  A    between atoms: C_4  and  N_5 
REMARK    3  A    between atoms: N_5  and  C_6 
REMARK    4  A    between atoms: C_8  and  N_9 
REMARK    5  A    between atoms: C_11  and  C_12 
REMARK    6  A    between atoms: C_12  and  N_13 
REMARK    7  A    between atoms: C_17  and  C_18 
ROOT
HETATM    1  C   UNL     1     -42.942  59.165 -53.957  1.00  0.00     0.218 C 
ENDROOT
BRANCH   1   2
HETATM    2  C   UNL     1     -42.661  59.160 -55.444  1.00  0.00     0.166 A 
HETATM    3  N   UNL     1     -41.889  60.146 -55.905  1.00  0.00    -0.200 NA
HETATM    4  C   UNL     1     -41.703  60.144 -57.212  1.00  0.00     0.219 A 
HETATM    5  N   UNL     1     -42.190  59.246 -58.046  1.00  0.00    -0.031 NA
HETATM    6  C   UNL     1     -42.926  58.281 -57.504  1.00  0.00     0.731 A 
HETATM    7  N   UNL     1     -43.158  58.173 -56.199  1.00  0.00    -0.045 NA
BRANCH   4   8
HETATM    8  N   UNL     1     -40.899  61.134 -57.742  1.00  0.00    -0.270 NA
HETATM    9  H   UNL     1     -40.234  61.443 -57.047  1.00  0.00     0.127 HD
HETATM   10  H   UNL     1     -41.462  61.843 -58.192  1.00  0.00     0.127 HD
ENDBRANCH   4   8
BRANCH   6  11
HETATM   11  N   UNL     1     -43.468  57.277 -58.309  1.00  0.00    -0.188 N 
HETATM   12  H   UNL     1     -43.081  56.383 -58.040  1.00  0.00     0.184 HD
BRANCH  11  13
HETATM   13  C   UNL     1     -44.710  57.212 -58.971  1.00  0.00     0.055 A 
HETATM   14  C   UNL     1     -45.044  56.080 -59.749  1.00  0.00    -0.031 A 
HETATM   15  C   UNL     1     -46.279  56.040 -60.425  1.00  0.00     0.009 A 
HETATM   16  C   UNL     1     -47.180  57.099 -60.341  1.00  0.00     0.001 A 
HETATM   17  C   UNL     1     -46.851  58.219 -59.590  1.00  0.00     0.002 A 
HETATM   18  C   UNL     1     -45.626  58.276 -58.922  1.00  0.00     0.030 A 
BRANCH  14  19
HETATM   19  C   UNL     1     -44.088  54.925 -59.953  1.00  0.00     0.036 C 
HETATM   20  C   UNL     1     -44.677  53.614 -59.448  1.00  0.00     0.010 C 
ENDBRANCH  14  19
ENDBRANCH  11  13
ENDBRANCH   6  11
ENDBRANCH   1   2
BRANCH   1  21
HETATM   21  N   UNL     1     -42.192  58.191 -53.193  1.00  0.00    -0.260 N 
HETATM   22  C   UNL     1     -40.895  58.357 -52.835  1.00  0.00     0.326 C 
HETATM   23  O   UNL     1     -40.140  59.254 -53.170  1.00  0.00    -0.247 OA
HETATM   24  N   UNL     1     -40.547  57.357 -51.961  1.00  0.00    -0.321 N 
HETATM   25  C   UNL     1     -41.599  56.377 -51.785  1.00  0.00     0.140 C 
HETATM   26  H   UNL     1     -39.586  57.253 -51.666  1.00  0.00     0.165 HD
HETATM   27  C   UNL     1     -42.738  57.151 -52.495  1.00  0.00     0.261 C 
HETATM   28  C   UNL     1     -41.955  56.189 -50.312  1.00  0.00     0.054 C 
HETATM   29  O   UNL     1     -43.929  56.868 -52.445  1.00  0.00    -0.270 OA
BRANCH  25  30
HETATM   30  C   UNL     1     -41.194  55.067 -52.456  1.00  0.00    -0.020 A 
HETATM   31  C   UNL     1     -40.624  53.994 -51.747  1.00  0.00     0.022 A 
HETATM   32  C   UNL     1     -40.306  52.777 -52.379  1.00  0.00    -0.025 A 
HETATM   33  C   UNL     1     -40.551  52.627 -53.762  1.00  0.00    -0.026 A 
HETATM   34  C   UNL     1     -39.751  51.703 -51.665  1.00  0.00     0.012 A 
HETATM   35  C   UNL     1     -41.091  53.701 -54.479  1.00  0.00     0.013 A 
HETATM   36  C   UNL     1     -40.251  51.407 -54.390  1.00  0.00     0.012 A 
HETATM   37  C   UNL     1     -41.404  54.902 -53.837  1.00  0.00     0.011 A 
HETATM   38  C   UNL     1     -39.712  50.346 -53.662  1.00  0.00     0.001 A 
HETATM   39  C   UNL     1     -39.460  50.495 -52.300  1.00  0.00     0.001 A 
ENDBRANCH  25  30
ENDBRANCH   1  21
TORSDOF 7
ENDMDL
MODEL 2
REMARK VINA RESULT:     -10.3      0.857      1.744
REMARK  7 active torsions:
REMARK  status: ('A' for Active; 'I' for Inactive)
REMARK    1  A    between atoms: C_2  and  C_3 
REMARK    2  A    between atoms: C_4  and  N_5 
REMARK    3  A    between atoms: N_5  and  C_6 
REMARK    4  A    between atoms: C_8  and  N_9 
REMARK    5  A    between atoms: C_11  and  C_12 
REMARK    6  A    between atoms: C_12  and  N_13 
REMARK    7  A    between atoms: C_17  and  C_18 
ROOT
HETATM    1  C   UNL     1     -43.092  59.068 -54.532  1.00  0.00     0.218 C 
ENDROOT
BRANCH   1   2
HETATM    2  C   UNL     1     -42.487  59.245 -55.908  1.00  0.00     0.166 A 
HETATM    3  N   UNL     1     -41.950  60.437 -56.171  1.00  0.00    -0.200 NA
HETATM    4  C   UNL     1     -41.476  60.578 -57.395  1.00  0.00     0.219 A 
HETATM    5  N   UNL     1     -41.476  59.638 -58.320  1.00  0.00    -0.031 NA
HETATM    6  C   UNL     1     -42.005  58.470 -57.971  1.00  0.00     0.731 A 
HETATM    7  N   UNL     1     -42.489  58.212 -56.758  1.00  0.00    -0.045 NA
BRANCH   4   8
HETATM    8  N   UNL     1     -40.894  61.787 -57.717  1.00  0.00    -0.270 NA
HETATM    9  H   UNL     1     -39.983  61.855 -57.285  1.00  0.00     0.127 HD
HETATM   10  H   UNL     1     -41.541  62.546 -57.553  1.00  0.00     0.127 HD
ENDBRANCH   4   8
BRANCH   6  11
HETATM   11  N   UNL     1     -42.032  57.412 -58.881  1.00  0.00    -0.188 N 
HETATM   12  H   UNL     1     -41.137  56.943 -58.880  1.00  0.00     0.184 HD
BRANCH  11  13
HETATM   13  C   UNL     1     -43.112  56.630 -59.336  1.00  0.00     0.055 A 
HETATM   14  C   UNL     1     -44.104  57.200 -60.166  1.00  0.00    -0.031 A 
HETATM   15  C   UNL     1     -45.191  56.411 -60.593  1.00  0.00     0.009 A 
HETATM   16  C   UNL     1     -45.306  55.077 -60.210  1.00  0.00     0.001 A 
HETATM   17  C   UNL     1     -44.343  54.517 -59.383  1.00  0.00     0.002 A 
HETATM   18  C   UNL     1     -43.265  55.289 -58.945  1.00  0.00     0.030 A 
BRANCH  14  19
HETATM   19  C   UNL     1     -44.091  58.660 -60.561  1.00  0.00     0.036 C 
HETATM   20  C   UNL     1     -45.142  59.457 -59.800  1.00  0.00     0.010 C 
ENDBRANCH  14  19
ENDBRANCH  11  13
ENDBRANCH   6  11
ENDBRANCH   1   2
BRANCH   1  21
HETATM   21  N   UNL     1     -42.378  58.153 -53.666  1.00  0.00    -0.260 N 
HETATM   22  C   UNL     1     -41.125  58.381 -53.205  1.00  0.00     0.326 C 
HETATM   23  O   UNL     1     -40.375  59.294 -53.508  1.00  0.00    -0.247 OA
HETATM   24  N   UNL     1     -40.821  57.429 -52.264  1.00  0.00    -0.321 N 
HETATM   25  C   UNL     1     -41.849  56.416 -52.141  1.00  0.00     0.140 C 
HETATM   26  H   UNL     1     -39.886  57.372 -51.882  1.00  0.00     0.165 HD
HETATM   27  C   UNL     1     -42.947  57.119 -52.977  1.00  0.00     0.261 C 
HETATM   28  C   UNL     1     -42.327  56.270 -50.697  1.00  0.00     0.054 C 
HETATM   29  O   UNL     1     -44.128  56.793 -53.019  1.00  0.00    -0.270 OA
BRANCH  25  30
HETATM   30  C   UNL     1     -41.341  55.098 -52.720  1.00  0.00    -0.020 A 
HETATM   31  C   UNL     1     -40.796  54.076 -51.922  1.00  0.00     0.022 A 
HETATM   32  C   UNL     1     -40.381  52.850 -52.474  1.00  0.00    -0.025 A 
HETATM   33  C   UNL     1     -40.501  52.638 -53.865  1.00  0.00    -0.026 A 
HETATM   34  C   UNL     1     -39.851  51.826 -51.672  1.00  0.00     0.012 A 
HETATM   35  C   UNL     1     -41.015  53.662 -54.669  1.00  0.00     0.013 A 
HETATM   36  C   UNL     1     -40.104  51.408 -54.415  1.00  0.00     0.012 A 
HETATM   37  C   UNL     1     -41.425  54.873 -54.106  1.00  0.00     0.011 A 
HETATM   38  C   UNL     1     -39.591  50.397 -53.601  1.00  0.00     0.001 A 
HETATM   39  C   UNL     1     -39.463  50.607 -52.230  1.00  0.00     0.001 A 
ENDBRANCH  25  30
ENDBRANCH   1  21
TORSDOF 7
ENDMDL
MODEL 3
REMARK VINA RESULT:     -10.1      1.850      7.706
REMARK  7 active torsions:
REMARK  status: ('A' for Active; 'I' for Inactive)
REMARK    1  A    between atoms: C_2  and  C_3 
REMARK    2  A    between atoms: C_4  and  N_5 
REMARK    3  A    between atoms: N_5  and  C_6 
REMARK    4  A    between atoms: C_8  and  N_9 
REMARK    5  A    between atoms: C_11  and  C_12 
REMARK    6  A    between atoms: C_12  and  N_13 
REMARK    7  A    between atoms: C_17  and  C_18 
ROOT
HETATM    1  C   UNL     1     -42.479  58.081 -51.860  1.00  0.00     0.218 C 
ENDROOT
BRANCH   1   2
HETATM    2  C   UNL     1     -42.468  56.593 -51.584  1.00  0.00     0.166 A 
HETATM    3  N   UNL     1     -43.594  56.072 -51.095  1.00  0.00    -0.200 NA
HETATM    4  C   UNL     1     -43.538  54.783 -50.817  1.00  0.00     0.219 A 
HETATM    5  N   UNL     1     -42.488  54.010 -51.015  1.00  0.00    -0.031 NA
HETATM    6  C   UNL     1     -41.413  54.600 -51.530  1.00  0.00     0.731 A 
HETATM    7  N   UNL     1     -41.368  55.885 -51.869  1.00  0.00    -0.045 NA
BRANCH   4   8
HETATM    8  N   UNL     1     -44.681  54.187 -50.323  1.00  0.00    -0.270 NA
HETATM    9  H   UNL     1     -44.520  53.199 -50.182  1.00  0.00     0.127 HD
HETATM   10  H   UNL     1     -45.484  54.449 -50.878  1.00  0.00     0.127 HD
ENDBRANCH   4   8
BRANCH   6  11
HETATM   11  N   UNL     1     -40.262  53.855 -51.789  1.00  0.00    -0.188 N 
HETATM   12  H   UNL     1     -39.542  54.104 -51.125  1.00  0.00     0.184 HD
BRANCH  11  13
HETATM   13  C   UNL     1     -40.113  52.584 -52.377  1.00  0.00     0.055 A 
HETATM   14  C   UNL     1     -40.482  52.374 -53.725  1.00  0.00    -0.031 A 
HETATM   15  C   UNL     1     -40.349  51.092 -54.292  1.00  0.00     0.009 A 
HETATM   16  C   UNL     1     -39.862  50.022 -53.545  1.00  0.00     0.001 A 
HETATM   17  C   UNL     1     -39.512  50.218 -52.216  1.00  0.00     0.002 A 
HETATM   18  C   UNL     1     -39.646  51.483 -51.639  1.00  0.00     0.030 A 
BRANCH  14  19
HETATM   19  C   UNL     1     -41.091  53.465 -54.578  1.00  0.00     0.036 C 
HETATM   20  C   UNL     1     -40.025  54.382 -55.163  1.00  0.00     0.010 C 
ENDBRANCH  14  19
ENDBRANCH  11  13
ENDBRANCH   6  11
ENDBRANCH   1   2
BRANCH   1  21
HETATM   21  N   UNL     1     -42.982  58.454 -53.165  1.00  0.00    -0.260 N 
HETATM   22  C   UNL     1     -44.250  58.878 -53.387  1.00  0.00     0.326 C 
HETATM   23  O   UNL     1     -45.172  58.913 -52.589  1.00  0.00    -0.247 OA
HETATM   24  N   UNL     1     -44.344  59.334 -54.678  1.00  0.00    -0.321 N 
HETATM   25  C   UNL     1     -43.131  59.113 -55.438  1.00  0.00     0.140 C 
HETATM   26  H   UNL     1     -45.243  59.593 -55.061  1.00  0.00     0.165 HD
HETATM   27  C   UNL     1     -42.208  58.709 -54.262  1.00  0.00     0.261 C 
HETATM   28  C   UNL     1     -42.615  60.407 -56.066  1.00  0.00     0.054 C 
HETATM   29  O   UNL     1     -40.986  58.624 -54.313  1.00  0.00    -0.270 OA
BRANCH  25  30
HETATM   30  C   UNL     1     -43.370  58.020 -56.476  1.00  0.00    -0.020 A 
HETATM   31  C   UNL     1     -44.311  58.148 -57.514  1.00  0.00     0.022 A 
HETATM   32  C   UNL     1     -44.476  57.146 -58.488  1.00  0.00    -0.025 A 
HETATM   33  C   UNL     1     -43.690  55.974 -58.422  1.00  0.00    -0.026 A 
HETATM   34  C   UNL     1     -45.406  57.284 -59.532  1.00  0.00     0.012 A 
HETATM   35  C   UNL     1     -42.773  55.827 -57.375  1.00  0.00     0.013 A 
HETATM   36  C   UNL     1     -43.842  54.982 -59.404  1.00  0.00     0.012 A 
HETATM   37  C   UNL     1     -42.618  56.831 -56.416  1.00  0.00     0.011 A 
HETATM   38  C   UNL     1     -44.762  55.142 -60.441  1.00  0.00     0.001 A 
HETATM   39  C   UNL     1     -45.545  56.292 -60.504  1.00  0.00     0.001 A 
ENDBRANCH  25  30
ENDBRANCH   1  21
TORSDOF 7
ENDMDL
MODEL 4
REMARK VINA RESULT:     -10.0      1.828      2.379
REMARK  7 active torsions:
REMARK  status: ('A' for Active; 'I' for Inactive)
REMARK    1  A    between atoms: C_2  and  C_3 
REMARK    2  A    between atoms: C_4  and  N_5 
REMARK    3  A    between atoms: N_5  and  C_6 
REMARK    4  A    between atoms: C_8  and  N_9 
REMARK    5  A    between atoms: C_11  and  C_12 
REMARK    6  A    between atoms: C_12  and  N_13 
REMARK    7  A    between atoms: C_17  and  C_18 
ROOT
HETATM    1  C   UNL     1     -43.373  58.145 -51.433  1.00  0.00     0.218 C 
ENDROOT
BRANCH   1   2
HETATM    2  C   UNL     1     -43.420  58.568 -52.885  1.00  0.00     0.166 A 
HETATM    3  N   UNL     1     -42.892  59.759 -53.174  1.00  0.00    -0.200 NA
HETATM    4  C   UNL     1     -42.992  60.122 -54.439  1.00  0.00     0.219 A 
HETATM    5  N   UNL     1     -43.532  59.393 -55.396  1.00  0.00    -0.031 NA
HETATM    6  C   UNL     1     -44.011  58.207 -55.032  1.00  0.00     0.731 A 
HETATM    7  N   UNL     1     -43.942  57.733 -53.791  1.00  0.00    -0.045 NA
BRANCH   4   8
HETATM    8  N   UNL     1     -42.449  61.339 -54.797  1.00  0.00    -0.270 NA
HETATM    9  H   UNL     1     -41.998  61.262 -55.699  1.00  0.00     0.127 HD
HETATM   10  H   UNL     1     -41.901  61.719 -54.038  1.00  0.00     0.127 HD
ENDBRANCH   4   8
BRANCH   6  11
HETATM   11  N   UNL     1     -44.585  57.361 -55.982  1.00  0.00    -0.188 N 
HETATM   12  H   UNL     1     -45.578  57.286 -55.811  1.00  0.00     0.184 HD
BRANCH  11  13
HETATM   13  C   UNL     1     -44.185  57.069 -57.301  1.00  0.00     0.055 A 
HETATM   14  C   UNL     1     -43.216  56.071 -57.548  1.00  0.00    -0.031 A 
HETATM   15  C   UNL     1     -42.809  55.807 -58.870  1.00  0.00     0.009 A 
HETATM   16  C   UNL     1     -43.344  56.516 -59.943  1.00  0.00     0.001 A 
HETATM   17  C   UNL     1     -44.285  57.509 -59.706  1.00  0.00     0.002 A 
HETATM   18  C   UNL     1     -44.692  57.786 -58.398  1.00  0.00     0.030 A 
BRANCH  14  19
HETATM   19  C   UNL     1     -42.531  55.312 -56.432  1.00  0.00     0.036 C 
HETATM   20  C   UNL     1     -43.361  54.120 -55.972  1.00  0.00     0.010 C 
ENDBRANCH  14  19
ENDBRANCH  11  13
ENDBRANCH   6  11
ENDBRANCH   1   2
BRANCH   1  21
HETATM   21  N   UNL     1     -42.354  57.168 -51.115  1.00  0.00    -0.260 N 
HETATM   22  C   UNL     1     -41.038  57.469 -50.999  1.00  0.00     0.326 C 
HETATM   23  O   UNL     1     -40.494  58.535 -51.236  1.00  0.00    -0.247 OA
HETATM   24  N   UNL     1     -40.377  56.373 -50.502  1.00  0.00    -0.321 N 
HETATM   25  C   UNL     1     -41.235  55.213 -50.376  1.00  0.00     0.140 C 
HETATM   26  H   UNL     1     -39.367  56.371 -50.446  1.00  0.00     0.165 HD
HETATM   27  C   UNL     1     -42.592  55.919 -50.614  1.00  0.00     0.261 C 
HETATM   28  C   UNL     1     -41.203  54.639 -48.961  1.00  0.00     0.054 C 
HETATM   29  O   UNL     1     -43.696  55.433 -50.397  1.00  0.00    -0.270 OA
BRANCH  25  30
HETATM   30  C   UNL     1     -40.853  54.177 -51.430  1.00  0.00    -0.020 A 
HETATM   31  C   UNL     1     -40.396  52.888 -51.100  1.00  0.00     0.022 A 
HETATM   32  C   UNL     1     -40.099  51.934 -52.091  1.00  0.00    -0.025 A 
HETATM   33  C   UNL     1     -40.248  52.276 -53.453  1.00  0.00    -0.026 A 
HETATM   34  C   UNL     1     -39.658  50.643 -51.757  1.00  0.00     0.012 A 
HETATM   35  C   UNL     1     -40.673  53.567 -53.789  1.00  0.00     0.013 A 
HETATM   36  C   UNL     1     -39.968  51.319 -54.442  1.00  0.00     0.012 A 
HETATM   37  C   UNL     1     -40.967  54.502 -52.794  1.00  0.00     0.011 A 
HETATM   38  C   UNL     1     -39.543  50.037 -54.092  1.00  0.00     0.001 A 
HETATM   39  C   UNL     1     -39.386  49.700 -52.750  1.00  0.00     0.001 A 
ENDBRANCH  25  30
ENDBRANCH   1  21
TORSDOF 7
ENDMDL
MODEL 5
REMARK VINA RESULT:      -9.9      1.698      2.852
REMARK  7 active torsions:
REMARK  status: ('A' for Active; 'I' for Inactive)
REMARK    1  A    between atoms: C_2  and  C_3 
REMARK    2  A    between atoms: C_4  and  N_5 
REMARK    3  A    between atoms: N_5  and  C_6 
REMARK    4  A    between atoms: C_8  and  N_9 
REMARK    5  A    between atoms: C_11  and  C_12 
REMARK    6  A    between atoms: C_12  and  N_13 
REMARK    7  A    between atoms: C_17  and  C_18 
ROOT
HETATM    1  C   UNL     1     -43.519  58.563 -52.792  1.00  0.00     0.218 C 
ENDROOT
BRANCH   1   2
HETATM    2  C   UNL     1     -43.821  58.377 -54.263  1.00  0.00     0.166 A 
HETATM    3  N   UNL     1     -45.094  58.143 -54.583  1.00  0.00    -0.200 NA
HETATM    4  C   UNL     1     -45.319  57.935 -55.867  1.00  0.00     0.219 A 
HETATM    5  N   UNL     1     -44.401  57.975 -56.813  1.00  0.00    -0.031 NA
HETATM    6  C   UNL     1     -43.160  58.241 -56.416  1.00  0.00     0.731 A 
HETATM    7  N   UNL     1     -42.827  58.490 -55.152  1.00  0.00    -0.045 NA
BRANCH   4   8
HETATM    8  N   UNL     1     -46.623  57.702 -56.257  1.00  0.00    -0.270 NA
HETATM    9  H   UNL     1     -47.016  58.543 -56.657  1.00  0.00     0.127 HD
HETATM   10  H   UNL     1     -47.141  57.260 -55.511  1.00  0.00     0.127 HD
ENDBRANCH   4   8
BRANCH   6  11
HETATM   11  N   UNL     1     -42.127  58.321 -57.350  1.00  0.00    -0.188 N 
HETATM   12  H   UNL     1     -41.623  57.445 -57.372  1.00  0.00     0.184 HD
BRANCH  11  13
HETATM   13  C   UNL     1     -42.014  59.099 -58.519  1.00  0.00     0.055 A 
HETATM   14  C   UNL     1     -42.102  58.491 -59.792  1.00  0.00    -0.031 A 
HETATM   15  C   UNL     1     -41.963  59.280 -60.951  1.00  0.00     0.009 A 
HETATM   16  C   UNL     1     -41.738  60.651 -60.865  1.00  0.00     0.001 A 
HETATM   17  C   UNL     1     -41.635  61.252 -59.618  1.00  0.00     0.002 A 
HETATM   18  C   UNL     1     -41.763  60.481 -58.461  1.00  0.00     0.030 A 
BRANCH  14  19
HETATM   19  C   UNL     1     -42.267  56.998 -59.968  1.00  0.00     0.036 C 
HETATM   20  C   UNL     1     -43.726  56.616 -60.184  1.00  0.00     0.010 C 
ENDBRANCH  14  19
ENDBRANCH  11  13
ENDBRANCH   6  11
ENDBRANCH   1   2
BRANCH   1  21
HETATM   21  N   UNL     1     -42.511  57.672 -52.260  1.00  0.00    -0.260 N 
HETATM   22  C   UNL     1     -41.197  57.992 -52.176  1.00  0.00     0.326 C 
HETATM   23  O   UNL     1     -40.644  58.988 -52.611  1.00  0.00    -0.247 OA
HETATM   24  N   UNL     1     -40.551  57.020 -51.453  1.00  0.00    -0.321 N 
HETATM   25  C   UNL     1     -41.415  55.907 -51.115  1.00  0.00     0.140 C 
HETATM   26  H   UNL     1     -39.543  57.031 -51.374  1.00  0.00     0.165 HD
HETATM   27  C   UNL     1     -42.764  56.549 -51.523  1.00  0.00     0.261 C 
HETATM   28  C   UNL     1     -41.418  55.631 -49.613  1.00  0.00     0.054 C 
HETATM   29  O   UNL     1     -43.874  56.114 -51.238  1.00  0.00    -0.270 OA
BRANCH  25  30
HETATM   30  C   UNL     1     -41.012  54.681 -51.929  1.00  0.00    -0.020 A 
HETATM   31  C   UNL     1     -40.533  53.498 -51.337  1.00  0.00     0.022 A 
HETATM   32  C   UNL     1     -40.216  52.363 -52.106  1.00  0.00    -0.025 A 
HETATM   33  C   UNL     1     -40.368  52.409 -53.510  1.00  0.00    -0.026 A 
HETATM   34  C   UNL     1     -39.753  51.178 -51.510  1.00  0.00     0.012 A 
HETATM   35  C   UNL     1     -40.815  53.593 -54.108  1.00  0.00     0.013 A 
HETATM   36  C   UNL     1     -40.068  51.272 -54.276  1.00  0.00     0.012 A 
HETATM   37  C   UNL     1     -41.128  54.711 -53.331  1.00  0.00     0.011 A 
HETATM   38  C   UNL     1     -39.622  50.099 -53.666  1.00  0.00     0.001 A 
HETATM   39  C   UNL     1     -39.462  50.054 -52.283  1.00  0.00     0.001 A 
ENDBRANCH  25  30
ENDBRANCH   1  21
TORSDOF 7
ENDMDL
MODEL 6
REMARK VINA RESULT:      -9.3      4.141      7.290
REMARK  7 active torsions:
REMARK  status: ('A' for Active; 'I' for Inactive)
REMARK    1  A    between atoms: C_2  and  C_3 
REMARK    2  A    between atoms: C_4  and  N_5 
REMARK    3  A    between atoms: N_5  and  C_6 
REMARK    4  A    between atoms: C_8  and  N_9 
REMARK    5  A    between atoms: C_11  and  C_12 
REMARK    6  A    between atoms: C_12  and  N_13 
REMARK    7  A    between atoms: C_17  and  C_18 
ROOT
HETATM    1  C   UNL     1     -44.512  57.451 -53.043  1.00  0.00     0.218 C 
ENDROOT
BRANCH   1   2
HETATM    2  C   UNL     1     -44.820  58.822 -52.481  1.00  0.00     0.166 A 
HETATM    3  N   UNL     1     -45.518  59.643 -53.268  1.00  0.00    -0.200 NA
HETATM    4  C   UNL     1     -45.728  60.848 -52.771  1.00  0.00     0.219 A 
HETATM    5  N   UNL     1     -45.332  61.257 -51.582  1.00  0.00    -0.031 NA
HETATM    6  C   UNL     1     -44.666  60.370 -50.848  1.00  0.00     0.731 A 
HETATM    7  N   UNL     1     -44.420  59.123 -51.240  1.00  0.00    -0.045 NA
BRANCH   4   8
HETATM    8  N   UNL     1     -46.458  61.734 -53.537  1.00  0.00    -0.270 NA
HETATM    9  H   UNL     1     -45.848  62.207 -54.189  1.00  0.00     0.127 HD
HETATM   10  H   UNL     1     -47.042  62.312 -52.949  1.00  0.00     0.127 HD
ENDBRANCH   4   8
BRANCH   6  11
HETATM   11  N   UNL     1     -44.223  60.710 -49.569  1.00  0.00    -0.188 N 
HETATM   12  H   UNL     1     -43.408  60.160 -49.336  1.00  0.00     0.184 HD
BRANCH  11  13
HETATM   13  C   UNL     1     -44.349  61.917 -48.853  1.00  0.00     0.055 A 
HETATM   14  C   UNL     1     -45.036  61.944 -47.618  1.00  0.00    -0.031 A 
HETATM   15  C   UNL     1     -45.175  63.163 -46.925  1.00  0.00     0.009 A 
HETATM   16  C   UNL     1     -44.647  64.346 -47.438  1.00  0.00     0.001 A 
HETATM   17  C   UNL     1     -43.984  64.328 -48.657  1.00  0.00     0.002 A 
HETATM   18  C   UNL     1     -43.847  63.128 -49.358  1.00  0.00     0.030 A 
BRANCH  14  19
HETATM   19  C   UNL     1     -45.704  60.719 -47.034  1.00  0.00     0.036 C 
HETATM   20  C   UNL     1     -46.946  61.085 -46.232  1.00  0.00     0.010 C 
ENDBRANCH  14  19
ENDBRANCH  11  13
ENDBRANCH   6  11
ENDBRANCH   1   2
BRANCH   1  21
HETATM   21  N   UNL     1     -43.194  56.946 -52.726  1.00  0.00    -0.260 N 
HETATM   22  C   UNL     1     -42.047  57.491 -53.201  1.00  0.00     0.326 C 
HETATM   23  O   UNL     1     -41.934  58.385 -54.022  1.00  0.00    -0.247 OA
HETATM   24  N   UNL     1     -40.982  56.907 -52.561  1.00  0.00    -0.321 N 
HETATM   25  C   UNL     1     -41.381  55.822 -51.688  1.00  0.00     0.140 C 
HETATM   26  H   UNL     1     -40.038  57.110 -52.858  1.00  0.00     0.165 HD
HETATM   27  C   UNL     1     -42.909  56.075 -51.712  1.00  0.00     0.261 C 
HETATM   28  C   UNL     1     -40.857  56.020 -50.267  1.00  0.00     0.054 C 
HETATM   29  O   UNL     1     -43.727  55.568 -50.952  1.00  0.00    -0.270 OA
BRANCH  25  30
HETATM   30  C   UNL     1     -40.938  54.491 -52.289  1.00  0.00    -0.020 A 
HETATM   31  C   UNL     1     -40.535  53.397 -51.503  1.00  0.00     0.022 A 
HETATM   32  C   UNL     1     -40.179  52.164 -52.080  1.00  0.00    -0.025 A 
HETATM   33  C   UNL     1     -40.212  52.018 -53.484  1.00  0.00    -0.026 A 
HETATM   34  C   UNL     1     -39.791  51.069 -51.290  1.00  0.00     0.012 A 
HETATM   35  C   UNL     1     -40.584  53.112 -54.275  1.00  0.00     0.013 A 
HETATM   36  C   UNL     1     -39.874  50.783 -54.061  1.00  0.00     0.012 A 
HETATM   37  C   UNL     1     -40.937  54.329 -53.687  1.00  0.00     0.011 A 
HETATM   38  C   UNL     1     -39.504  49.702 -53.260  1.00  0.00     0.001 A 
HETATM   39  C   UNL     1     -39.461  49.846 -51.875  1.00  0.00     0.001 A 
ENDBRANCH  25  30
ENDBRANCH   1  21
TORSDOF 7
ENDMDL
MODEL 7
REMARK VINA RESULT:      -9.3      4.296      7.374
REMARK  7 active torsions:
REMARK  status: ('A' for Active; 'I' for Inactive)
REMARK    1  A    between atoms: C_2  and  C_3 
REMARK    2  A    between atoms: C_4  and  N_5 
REMARK    3  A    between atoms: N_5  and  C_6 
REMARK    4  A    between atoms: C_8  and  N_9 
REMARK    5  A    between atoms: C_11  and  C_12 
REMARK    6  A    between atoms: C_12  and  N_13 
REMARK    7  A    between atoms: C_17  and  C_18 
ROOT
HETATM    1  C   UNL     1     -44.663  57.342 -52.654  1.00  0.00     0.218 C 
ENDROOT
BRANCH   1   2
HETATM    2  C   UNL     1     -44.921  58.755 -52.178  1.00  0.00     0.166 A 
HETATM    3  N   UNL     1     -45.658  59.525 -52.979  1.00  0.00    -0.200 NA
HETATM    4  C   UNL     1     -45.824  60.767 -52.562  1.00  0.00     0.219 A 
HETATM    5  N   UNL     1     -45.349  61.258 -51.434  1.00  0.00    -0.031 NA
HETATM    6  C   UNL     1     -44.646  60.418 -50.679  1.00  0.00     0.731 A 
HETATM    7  N   UNL     1     -44.438  59.142 -50.991  1.00  0.00    -0.045 NA
BRANCH   4   8
HETATM    8  N   UNL     1     -46.593  61.605 -53.345  1.00  0.00    -0.270 NA
HETATM    9  H   UNL     1     -46.195  61.668 -54.273  1.00  0.00     0.127 HD
HETATM   10  H   UNL     1     -46.775  62.472 -52.861  1.00  0.00     0.127 HD
ENDBRANCH   4   8
BRANCH   6  11
HETATM   11  N   UNL     1     -44.119  60.846 -49.460  1.00  0.00    -0.188 N 
HETATM   12  H   UNL     1     -43.136  61.050 -49.570  1.00  0.00     0.184 HD
BRANCH  11  13
HETATM   13  C   UNL     1     -44.743  61.496 -48.376  1.00  0.00     0.055 A 
HETATM   14  C   UNL     1     -44.641  62.898 -48.232  1.00  0.00    -0.031 A 
HETATM   15  C   UNL     1     -45.250  63.531 -47.130  1.00  0.00     0.009 A 
HETATM   16  C   UNL     1     -45.950  62.797 -46.176  1.00  0.00     0.001 A 
HETATM   17  C   UNL     1     -46.040  61.417 -46.304  1.00  0.00     0.002 A 
HETATM   18  C   UNL     1     -45.434  60.777 -47.387  1.00  0.00     0.030 A 
BRANCH  14  19
HETATM   19  C   UNL     1     -43.834  63.755 -49.183  1.00  0.00     0.036 C 
HETATM   20  C   UNL     1     -44.731  64.545 -50.126  1.00  0.00     0.010 C 
ENDBRANCH  14  19
ENDBRANCH  11  13
ENDBRANCH   6  11
ENDBRANCH   1   2
BRANCH   1  21
HETATM   21  N   UNL     1     -43.306  56.874 -52.466  1.00  0.00    -0.260 N 
HETATM   22  C   UNL     1     -42.225  57.463 -53.031  1.00  0.00     0.326 C 
HETATM   23  O   UNL     1     -42.213  58.374 -53.842  1.00  0.00    -0.247 OA
HETATM   24  N   UNL     1     -41.089  56.904 -52.500  1.00  0.00    -0.321 N 
HETATM   25  C   UNL     1     -41.374  55.793 -51.615  1.00  0.00     0.140 C 
HETATM   26  H   UNL     1     -40.182  57.142 -52.877  1.00  0.00     0.165 HD
HETATM   27  C   UNL     1     -42.905  55.997 -51.498  1.00  0.00     0.261 C 
HETATM   28  C   UNL     1     -40.730  55.985 -50.243  1.00  0.00     0.054 C 
HETATM   29  O   UNL     1     -43.635  55.452 -50.677  1.00  0.00    -0.270 OA
BRANCH  25  30
HETATM   30  C   UNL     1     -40.946  54.487 -52.279  1.00  0.00    -0.020 A 
HETATM   31  C   UNL     1     -40.527  53.363 -51.546  1.00  0.00     0.022 A 
HETATM   32  C   UNL     1     -40.185  52.153 -52.180  1.00  0.00    -0.025 A 
HETATM   33  C   UNL     1     -40.250  52.063 -53.587  1.00  0.00    -0.026 A 
HETATM   34  C   UNL     1     -39.781  51.027 -51.443  1.00  0.00     0.012 A 
HETATM   35  C   UNL     1     -40.638  53.188 -54.325  1.00  0.00     0.013 A 
HETATM   36  C   UNL     1     -39.927  50.852 -54.220  1.00  0.00     0.012 A 
HETATM   37  C   UNL     1     -40.977  54.381 -53.682  1.00  0.00     0.011 A 
HETATM   38  C   UNL     1     -39.541  49.739 -53.471  1.00  0.00     0.001 A 
HETATM   39  C   UNL     1     -39.466  49.828 -52.083  1.00  0.00     0.001 A 
ENDBRANCH  25  30
ENDBRANCH   1  21
TORSDOF 7
ENDMDL
MODEL 8
REMARK VINA RESULT:      -9.3      1.960      2.701
REMARK  7 active torsions:
REMARK  status: ('A' for Active; 'I' for Inactive)
REMARK    1  A    between atoms: C_2  and  C_3 
REMARK    2  A    between atoms: C_4  and  N_5 
REMARK    3  A    between atoms: N_5  and  C_6 
REMARK    4  A    between atoms: C_8  and  N_9 
REMARK    5  A    between atoms: C_11  and  C_12 
REMARK    6  A    between atoms: C_12  and  N_13 
REMARK    7  A    between atoms: C_17  and  C_18 
ROOT
HETATM    1  C   UNL     1     -44.657  56.485 -53.974  1.00  0.00     0.218 C 
ENDROOT
BRANCH   1   2
HETATM    2  C   UNL     1     -44.814  57.797 -54.713  1.00  0.00     0.166 A 
HETATM    3  N   UNL     1     -44.745  58.906 -53.974  1.00  0.00    -0.200 NA
HETATM    4  C   UNL     1     -44.935  60.031 -54.637  1.00  0.00     0.219 A 
HETATM    5  N   UNL     1     -45.148  60.119 -55.935  1.00  0.00    -0.031 NA
HETATM    6  C   UNL     1     -45.175  58.971 -56.605  1.00  0.00     0.731 A 
HETATM    7  N   UNL     1     -44.973  57.782 -56.041  1.00  0.00    -0.045 NA
BRANCH   4   8
HETATM    8  N   UNL     1     -44.860  61.211 -53.924  1.00  0.00    -0.270 NA
HETATM    9  H   UNL     1     -45.683  61.316 -53.347  1.00  0.00     0.127 HD
HETATM   10  H   UNL     1     -44.624  61.979 -54.536  1.00  0.00     0.127 HD
ENDBRANCH   4   8
BRANCH   6  11
HETATM   11  N   UNL     1     -45.378  58.969 -57.986  1.00  0.00    -0.188 N 
HETATM   12  H   UNL     1     -45.031  59.832 -58.379  1.00  0.00     0.184 HD
BRANCH  11  13
HETATM   13  C   UNL     1     -45.460  57.893 -58.892  1.00  0.00     0.055 A 
HETATM   14  C   UNL     1     -44.286  57.353 -59.465  1.00  0.00    -0.031 A 
HETATM   15  C   UNL     1     -44.386  56.294 -60.388  1.00  0.00     0.009 A 
HETATM   16  C   UNL     1     -45.624  55.769 -60.750  1.00  0.00     0.001 A 
HETATM   17  C   UNL     1     -46.781  56.305 -60.203  1.00  0.00     0.002 A 
HETATM   18  C   UNL     1     -46.697  57.361 -59.292  1.00  0.00     0.030 A 
BRANCH  14  19
HETATM   19  C   UNL     1     -42.911  57.919 -59.183  1.00  0.00     0.036 C 
HETATM   20  C   UNL     1     -41.951  57.662 -60.337  1.00  0.00     0.010 C 
ENDBRANCH  14  19
ENDBRANCH  11  13
ENDBRANCH   6  11
ENDBRANCH   1   2
BRANCH   1  21
HETATM   21  N   UNL     1     -43.319  56.213 -53.495  1.00  0.00    -0.260 N 
HETATM   22  C   UNL     1     -42.197  56.507 -54.196  1.00  0.00     0.326 C 
HETATM   23  O   UNL     1     -42.122  56.928 -55.338  1.00  0.00    -0.247 OA
HETATM   24  N   UNL     1     -41.106  56.306 -53.387  1.00  0.00    -0.321 N 
HETATM   25  C   UNL     1     -41.458  55.733 -52.105  1.00  0.00     0.140 C 
HETATM   26  H   UNL     1     -40.172  56.373 -53.769  1.00  0.00     0.165 HD
HETATM   27  C   UNL     1     -42.994  55.910 -52.202  1.00  0.00     0.261 C 
HETATM   28  C   UNL     1     -40.924  56.572 -50.946  1.00  0.00     0.054 C 
HETATM   29  O   UNL     1     -43.785  55.789 -51.274  1.00  0.00    -0.270 OA
BRANCH  25  30
HETATM   30  C   UNL     1     -40.979  54.285 -52.042  1.00  0.00    -0.020 A 
HETATM   31  C   UNL     1     -40.863  53.472 -53.184  1.00  0.00     0.022 A 
HETATM   32  C   UNL     1     -40.370  52.156 -53.106  1.00  0.00    -0.025 A 
HETATM   33  C   UNL     1     -39.991  51.628 -51.852  1.00  0.00    -0.026 A 
HETATM   34  C   UNL     1     -40.242  51.352 -54.251  1.00  0.00     0.012 A 
HETATM   35  C   UNL     1     -40.132  52.422 -50.708  1.00  0.00     0.013 A 
HETATM   36  C   UNL     1     -39.482  50.322 -51.776  1.00  0.00     0.012 A 
HETATM   37  C   UNL     1     -40.621  53.727 -50.801  1.00  0.00     0.011 A 
HETATM   38  C   UNL     1     -39.349  49.541 -52.925  1.00  0.00     0.001 A 
HETATM   39  C   UNL     1     -39.732  50.056 -54.162  1.00  0.00     0.001 A 
ENDBRANCH  25  30
ENDBRANCH   1  21
TORSDOF 7
ENDMDL
MODEL 9
REMARK VINA RESULT:      -9.1      1.654      2.523
REMARK  7 active torsions:
REMARK  status: ('A' for Active; 'I' for Inactive)
REMARK    1  A    between atoms: C_2  and  C_3 
REMARK    2  A    between atoms: C_4  and  N_5 
REMARK    3  A    between atoms: N_5  and  C_6 
REMARK    4  A    between atoms: C_8  and  N_9 
REMARK    5  A    between atoms: C_11  and  C_12 
REMARK    6  A    between atoms: C_12  and  N_13 
REMARK    7  A    between atoms: C_17  and  C_18 
ROOT
HETATM    1  C   UNL     1     -41.373  59.535 -52.908  1.00  0.00     0.218 C 
ENDROOT
BRANCH   1   2
HETATM    2  C   UNL     1     -42.217  59.588 -54.163  1.00  0.00     0.166 A 
HETATM    3  N   UNL     1     -43.360  60.271 -54.081  1.00  0.00    -0.200 NA
HETATM    4  C   UNL     1     -44.098  60.258 -55.176  1.00  0.00     0.219 A 
HETATM    5  N   UNL     1     -43.770  59.660 -56.304  1.00  0.00    -0.031 NA
HETATM    6  C   UNL     1     -42.602  59.023 -56.313  1.00  0.00     0.731 A 
HETATM    7  N   UNL     1     -41.770  58.993 -55.275  1.00  0.00    -0.045 NA
BRANCH   4   8
HETATM    8  N   UNL     1     -45.285  60.962 -55.152  1.00  0.00    -0.270 NA
HETATM    9  H   UNL     1     -45.151  61.844 -54.676  1.00  0.00     0.127 HD
HETATM   10  H   UNL     1     -46.040  60.373 -54.829  1.00  0.00     0.127 HD
ENDBRANCH   4   8
BRANCH   6  11
HETATM   11  N   UNL     1     -42.165  58.377 -57.470  1.00  0.00    -0.188 N 
HETATM   12  H   UNL     1     -41.168  58.227 -57.417  1.00  0.00     0.184 HD
BRANCH  11  13
HETATM   13  C   UNL     1     -42.851  57.507 -58.341  1.00  0.00     0.055 A 
HETATM   14  C   UNL     1     -42.968  56.133 -58.029  1.00  0.00    -0.031 A 
HETATM   15  C   UNL     1     -43.636  55.272 -58.922  1.00  0.00     0.009 A 
HETATM   16  C   UNL     1     -44.182  55.750 -60.110  1.00  0.00     0.001 A 
HETATM   17  C   UNL     1     -44.056  57.095 -60.430  1.00  0.00     0.002 A 
HETATM   18  C   UNL     1     -43.390  57.959 -59.558  1.00  0.00     0.030 A 
BRANCH  14  19
HETATM   19  C   UNL     1     -42.336  55.524 -56.797  1.00  0.00     0.036 C 
HETATM   20  C   UNL     1     -43.377  54.870 -55.897  1.00  0.00     0.010 C 
ENDBRANCH  14  19
ENDBRANCH  11  13
ENDBRANCH   6  11
ENDBRANCH   1   2
BRANCH   1  21
HETATM   21  N   UNL     1     -41.619  58.390 -52.057  1.00  0.00    -0.260 N 
HETATM   22  C   UNL     1     -41.222  58.318 -50.764  1.00  0.00     0.326 C 
HETATM   23  O   UNL     1     -40.529  59.115 -50.153  1.00  0.00    -0.247 OA
HETATM   24  N   UNL     1     -41.778  57.201 -50.193  1.00  0.00    -0.321 N 
HETATM   25  C   UNL     1     -42.497  56.384 -51.148  1.00  0.00     0.140 C 
HETATM   26  H   UNL     1     -41.510  56.921 -49.259  1.00  0.00     0.165 HD
HETATM   27  C   UNL     1     -42.507  57.387 -52.328  1.00  0.00     0.261 C 
HETATM   28  C   UNL     1     -43.932  56.118 -50.696  1.00  0.00     0.054 C 
HETATM   29  O   UNL     1     -43.192  57.290 -53.339  1.00  0.00    -0.270 OA
BRANCH  25  30
HETATM   30  C   UNL     1     -41.722  55.094 -51.405  1.00  0.00    -0.020 A 
HETATM   31  C   UNL     1     -41.759  54.416 -52.637  1.00  0.00     0.022 A 
HETATM   32  C   UNL     1     -40.995  53.257 -52.865  1.00  0.00    -0.025 A 
HETATM   33  C   UNL     1     -40.179  52.747 -51.831  1.00  0.00    -0.026 A 
HETATM   34  C   UNL     1     -41.023  52.591 -54.101  1.00  0.00     0.012 A 
HETATM   35  C   UNL     1     -40.160  53.400 -50.593  1.00  0.00     0.013 A 
HETATM   36  C   UNL     1     -39.402  51.600 -52.063  1.00  0.00     0.012 A 
HETATM   37  C   UNL     1     -40.922  54.552 -50.382  1.00  0.00     0.011 A 
HETATM   38  C   UNL     1     -39.432  50.960 -53.302  1.00  0.00     0.001 A 
HETATM   39  C   UNL     1     -40.244  51.454 -54.320  1.00  0.00     0.001 A 
ENDBRANCH  25  30
ENDBRANCH   1  21
TORSDOF 7
ENDMDL
MODEL 10
REMARK VINA RESULT:      -9.0      2.516      6.446
REMARK  7 active torsions:
REMARK  status: ('A' for Active; 'I' for Inactive)
REMARK    1  A    between atoms: C_2  and  C_3 
REMARK    2  A    between atoms: C_4  and  N_5 
REMARK    3  A    between atoms: N_5  and  C_6 
REMARK    4  A    between atoms: C_8  and  N_9 
REMARK    5  A    between atoms: C_11  and  C_12 
REMARK    6  A    between atoms: C_12  and  N_13 
REMARK    7  A    between atoms: C_17  and  C_18 
ROOT
HETATM    1  C   UNL     1     -42.632  56.308 -51.770  1.00  0.00     0.218 C 
ENDROOT
BRANCH   1   2
HETATM    2  C   UNL     1     -42.350  55.348 -52.905  1.00  0.00     0.166 A 
HETATM    3  N   UNL     1     -41.537  54.327 -52.631  1.00  0.00    -0.200 NA
HETATM    4  C   UNL     1     -41.270  53.535 -53.653  1.00  0.00     0.219 A 
HETATM    5  N   UNL     1     -41.764  53.673 -54.868  1.00  0.00    -0.031 NA
HETATM    6  C   UNL     1     -42.588  54.700 -55.053  1.00  0.00     0.731 A 
HETATM    7  N   UNL     1     -42.943  55.545 -54.089  1.00  0.00    -0.045 NA
BRANCH   4   8
HETATM    8  N   UNL     1     -40.445  52.453 -53.421  1.00  0.00    -0.270 NA
HETATM    9  H   UNL     1     -39.777  52.364 -54.174  1.00  0.00     0.127 HD
HETATM   10  H   UNL     1     -40.992  51.635 -53.191  1.00  0.00     0.127 HD
ENDBRANCH   4   8
BRANCH   6  11
HETATM   11  N   UNL     1     -43.171  54.914 -56.302  1.00  0.00    -0.188 N 
HETATM   12  H   UNL     1     -44.054  54.425 -56.351  1.00  0.00     0.184 HD
BRANCH  11  13
HETATM   13  C   UNL     1     -43.042  55.997 -57.194  1.00  0.00     0.055 A 
HETATM   14  C   UNL     1     -43.518  55.888 -58.521  1.00  0.00    -0.031 A 
HETATM   15  C   UNL     1     -43.360  56.972 -59.408  1.00  0.00     0.009 A 
HETATM   16  C   UNL     1     -42.740  58.150 -59.001  1.00  0.00     0.001 A 
HETATM   17  C   UNL     1     -42.258  58.258 -57.704  1.00  0.00     0.002 A 
HETATM   18  C   UNL     1     -42.400  57.188 -56.816  1.00  0.00     0.030 A 
BRANCH  14  19
HETATM   19  C   UNL     1     -44.132  54.615 -59.061  1.00  0.00     0.036 C 
HETATM   20  C   UNL     1     -45.092  54.898 -60.209  1.00  0.00     0.010 C 
ENDBRANCH  14  19
ENDBRANCH  11  13
ENDBRANCH   6  11
ENDBRANCH   1   2
BRANCH   1  21
HETATM   21  N   UNL     1     -43.307  57.528 -52.158  1.00  0.00    -0.260 N 
HETATM   22  C   UNL     1     -44.542  57.874 -51.722  1.00  0.00     0.326 C 
HETATM   23  O   UNL     1     -45.308  57.203 -51.050  1.00  0.00    -0.247 OA
HETATM   24  N   UNL     1     -44.805  59.163 -52.113  1.00  0.00    -0.321 N 
HETATM   25  C   UNL     1     -43.767  59.712 -52.962  1.00  0.00     0.140 C 
HETATM   26  H   UNL     1     -45.723  59.560 -51.970  1.00  0.00     0.165 HD
HETATM   27  C   UNL     1     -42.706  58.603 -52.753  1.00  0.00     0.261 C 
HETATM   28  C   UNL     1     -43.232  61.034 -52.417  1.00  0.00     0.054 C 
HETATM   29  O   UNL     1     -41.527  58.676 -53.076  1.00  0.00    -0.270 OA
BRANCH  25  30
HETATM   30  C   UNL     1     -44.291  59.842 -54.390  1.00  0.00    -0.020 A 
HETATM   31  C   UNL     1     -45.041  58.833 -55.021  1.00  0.00     0.022 A 
HETATM   32  C   UNL     1     -45.555  58.999 -56.320  1.00  0.00    -0.025 A 
HETATM   33  C   UNL     1     -45.305  60.200 -57.019  1.00  0.00    -0.026 A 
HETATM   34  C   UNL     1     -46.317  57.995 -56.941  1.00  0.00     0.012 A 
HETATM   35  C   UNL     1     -44.535  61.197 -56.409  1.00  0.00     0.013 A 
HETATM   36  C   UNL     1     -45.834  60.374 -58.309  1.00  0.00     0.012 A 
HETATM   37  C   UNL     1     -44.033  61.019 -55.118  1.00  0.00     0.011 A 
HETATM   38  C   UNL     1     -46.599  59.371 -58.905  1.00  0.00     0.001 A 
HETATM   39  C   UNL     1     -46.839  58.181 -58.222  1.00  0.00     0.001 A 
ENDBRANCH  25  30
ENDBRANCH   1  21
TORSDOF 7
ENDMDL
