MODEL 1
REMARK VINA RESULT:      -8.8      0.000      0.000
REMARK  5 active torsions:
REMARK  status: ('A' for Active; 'I' for Inactive)
REMARK    1  A    between atoms: C_5  and  C_6 
REMARK    2  A    between atoms: C_11  and  C_12 
REMARK       I    between atoms: C_12  and  N_13 
REMARK    3  A    between atoms: N_13  and  C_14 
REMARK    4  A    between atoms: C_16  and  O_17 
REMARK    5  A    between atoms: C_23  and  C_24 
ROOT
HETATM    1  C   UNL     1     -43.446  55.715 -53.577  1.00  0.00     0.118 C 
HETATM    2  N   UNL     1     -44.251  56.287 -52.504  1.00  0.00    -0.366 N 
HETATM    3  C   UNL     1     -44.114  57.562 -52.088  1.00  0.00     0.123 A 
HETATM    4  N   UNL     1     -43.229  58.421 -52.675  1.00  0.00    -0.240 N 
HETATM    5  N   UNL     1     -43.267  59.672 -52.175  1.00  0.00    -0.165 NA
HETATM    6  C   UNL     1     -44.182  59.585 -51.181  1.00  0.00     0.148 A 
HETATM    7  C   UNL     1     -44.734  58.278 -51.100  1.00  0.00     0.089 A 
HETATM    8  C   UNL     1     -42.357  58.063 -53.776  1.00  0.00     0.221 C 
HETATM    9  C   UNL     1     -42.889  56.813 -54.500  1.00  0.00     0.066 C 
HETATM   10  H   UNL     1     -44.827  55.622 -51.989  1.00  0.00     0.161 HD
ENDROOT
BRANCH   6  11
HETATM   11  C   UNL     1     -44.525  60.738 -50.328  1.00  0.00     0.276 C 
HETATM   12  N   UNL     1     -45.055  60.343 -49.115  1.00  0.00    -0.322 N 
HETATM   13  H   UNL     1     -45.129  59.332 -49.017  1.00  0.00     0.169 HD
HETATM   14  O   UNL     1     -44.342  61.889 -50.708  1.00  0.00    -0.266 OA
BRANCH  12  15
HETATM   15  C   UNL     1     -45.502  61.148 -48.053  1.00  0.00     0.037 A 
HETATM   16  C   UNL     1     -46.611  61.993 -48.132  1.00  0.00     0.066 A 
HETATM   17  C   UNL     1     -46.982  62.757 -47.025  1.00  0.00     0.067 A 
HETATM   18  C   UNL     1     -46.265  62.692 -45.837  1.00  0.00     0.036 A 
HETATM   19  C   UNL     1     -45.159  61.852 -45.750  1.00  0.00     0.005 A 
HETATM   20  C   UNL     1     -44.778  61.085 -46.854  1.00  0.00     0.029 A 
BRANCH  17  21
HETATM   21  O   UNL     1     -48.059  63.592 -47.072  1.00  0.00    -0.361 OA
HETATM   22  H   UNL     1     -47.735  64.509 -47.073  1.00  0.00     0.217 HD
ENDBRANCH  17  21
ENDBRANCH  12  15
ENDBRANCH   6  11
BRANCH   8  23
HETATM   23  C   UNL     1     -40.930  57.939 -53.293  1.00  0.00     0.409 C 
HETATM   24  F   UNL     1     -40.218  59.076 -53.386  1.00  0.00    -0.169 F 
HETATM   25  F   UNL     1     -40.908  57.555 -51.990  1.00  0.00    -0.169 F 
HETATM   26  F   UNL     1     -40.254  56.985 -53.976  1.00  0.00    -0.169 F 
ENDBRANCH   8  23
BRANCH   1  27
HETATM   27  C   UNL     1     -42.418  54.718 -53.073  1.00  0.00    -0.035 A 
HETATM   28  C   UNL     1     -41.653  53.997 -54.007  1.00  0.00     0.010 A 
HETATM   29  C   UNL     1     -40.714  53.047 -53.593  1.00  0.00     0.007 A 
HETATM   30  C   UNL     1     -40.519  52.789 -52.234  1.00  0.00    -0.062 A 
HETATM   31  C   UNL     1     -39.495  51.793 -51.776  1.00  0.00     0.048 C 
HETATM   32  C   UNL     1     -41.264  53.509 -51.297  1.00  0.00     0.007 A 
HETATM   33  C   UNL     1     -42.209  54.453 -51.712  1.00  0.00     0.010 A 
ENDBRANCH   1  27
TORSDOF 5
ENDMDL
MODEL 2
REMARK VINA RESULT:      -8.5     18.763     20.617
REMARK  5 active torsions:
REMARK  status: ('A' for Active; 'I' for Inactive)
REMARK    1  A    between atoms: C_5  and  C_6 
REMARK    2  A    between atoms: C_11  and  C_12 
REMARK       I    between atoms: C_12  and  N_13 
REMARK    3  A    between atoms: N_13  and  C_14 
REMARK    4  A    between atoms: C_16  and  O_17 
REMARK    5  A    between atoms: C_23  and  C_24 
ROOT
HETATM    1  C   UNL     1     -36.969  42.298 -56.414  1.00  0.00     0.118 C 
HETATM    2  N   UNL     1     -37.442  41.950 -55.079  1.00  0.00    -0.366 N 
HETATM    3  C   UNL     1     -36.618  41.534 -54.097  1.00  0.00     0.123 A 
HETATM    4  N   UNL     1     -35.267  41.447 -54.278  1.00  0.00    -0.240 N 
HETATM    5  N   UNL     1     -34.590  41.073 -53.174  1.00  0.00    -0.165 NA
HETATM    6  C   UNL     1     -35.569  40.857 -52.264  1.00  0.00     0.148 A 
HETATM    7  C   UNL     1     -36.851  41.137 -52.807  1.00  0.00     0.089 A 
HETATM    8  C   UNL     1     -34.590  41.776 -55.516  1.00  0.00     0.221 C 
HETATM    9  C   UNL     1     -35.478  42.678 -56.393  1.00  0.00     0.066 C 
HETATM   10  H   UNL     1     -38.455  41.903 -54.974  1.00  0.00     0.161 HD
ENDROOT
BRANCH   6  11
HETATM   11  C   UNL     1     -35.277  40.393 -50.894  1.00  0.00     0.276 C 
HETATM   12  N   UNL     1     -33.959  40.010 -50.748  1.00  0.00    -0.322 N 
HETATM   13  H   UNL     1     -33.415  40.102 -51.604  1.00  0.00     0.169 HD
HETATM   14  O   UNL     1     -36.148  40.368 -50.032  1.00  0.00    -0.266 OA
BRANCH  12  15
HETATM   15  C   UNL     1     -33.315  39.512 -49.603  1.00  0.00     0.037 A 
HETATM   16  C   UNL     1     -32.113  40.019 -49.104  1.00  0.00     0.066 A 
HETATM   17  C   UNL     1     -31.546  39.461 -47.959  1.00  0.00     0.067 A 
HETATM   18  C   UNL     1     -32.156  38.403 -47.299  1.00  0.00     0.036 A 
HETATM   19  C   UNL     1     -33.354  37.890 -47.789  1.00  0.00     0.005 A 
HETATM   20  C   UNL     1     -33.930  38.442 -48.938  1.00  0.00     0.029 A 
BRANCH  17  21
HETATM   21  O   UNL     1     -30.372  39.935 -47.449  1.00  0.00    -0.361 OA
HETATM   22  H   UNL     1     -29.692  39.875 -48.141  1.00  0.00     0.217 HD
ENDBRANCH  17  21
ENDBRANCH  12  15
ENDBRANCH   6  11
BRANCH   8  23
HETATM   23  C   UNL     1     -34.117  40.515 -56.204  1.00  0.00     0.409 C 
HETATM   24  F   UNL     1     -34.843  39.422 -55.908  1.00  0.00    -0.169 F 
HETATM   25  F   UNL     1     -34.159  40.674 -57.552  1.00  0.00    -0.169 F 
HETATM   26  F   UNL     1     -32.828  40.235 -55.899  1.00  0.00    -0.169 F 
ENDBRANCH   8  23
BRANCH   1  27
HETATM   27  C   UNL     1     -37.355  41.271 -57.462  1.00  0.00    -0.035 A 
HETATM   28  C   UNL     1     -37.163  41.577 -58.821  1.00  0.00     0.010 A 
HETATM   29  C   UNL     1     -37.529  40.675 -59.824  1.00  0.00     0.007 A 
HETATM   30  C   UNL     1     -38.103  39.445 -59.496  1.00  0.00    -0.062 A 
HETATM   31  C   UNL     1     -38.474  38.457 -60.562  1.00  0.00     0.048 C 
HETATM   32  C   UNL     1     -38.287  39.125 -58.148  1.00  0.00     0.007 A 
HETATM   33  C   UNL     1     -37.928  40.031 -57.145  1.00  0.00     0.010 A 
ENDBRANCH   1  27
TORSDOF 5
ENDMDL
MODEL 3
REMARK VINA RESULT:      -8.3      3.708      9.192
REMARK  5 active torsions:
REMARK  status: ('A' for Active; 'I' for Inactive)
REMARK    1  A    between atoms: C_5  and  C_6 
REMARK    2  A    between atoms: C_11  and  C_12 
REMARK       I    between atoms: C_12  and  N_13 
REMARK    3  A    between atoms: N_13  and  C_14 
REMARK    4  A    between atoms: C_16  and  O_17 
REMARK    5  A    between atoms: C_23  and  C_24 
ROOT
HETATM    1  C   UNL     1     -41.825  60.317 -51.900  1.00  0.00     0.118 C 
HETATM    2  N   UNL     1     -41.326  59.134 -51.209  1.00  0.00    -0.366 N 
HETATM    3  C   UNL     1     -41.606  57.879 -51.614  1.00  0.00     0.123 A 
HETATM    4  N   UNL     1     -42.351  57.632 -52.732  1.00  0.00    -0.240 N 
HETATM    5  N   UNL     1     -42.481  56.322 -53.024  1.00  0.00    -0.165 NA
HETATM    6  C   UNL     1     -41.832  55.707 -52.007  1.00  0.00     0.148 A 
HETATM    7  C   UNL     1     -41.270  56.652 -51.107  1.00  0.00     0.089 A 
HETATM    8  C   UNL     1     -42.916  58.664 -53.578  1.00  0.00     0.221 C 
HETATM    9  C   UNL     1     -42.179  59.999 -53.363  1.00  0.00     0.066 C 
HETATM   10  H   UNL     1     -40.868  59.311 -50.315  1.00  0.00     0.161 HD
ENDROOT
BRANCH   6  11
HETATM   11  C   UNL     1     -41.749  54.239 -51.904  1.00  0.00     0.276 C 
HETATM   12  N   UNL     1     -40.689  53.729 -52.628  1.00  0.00    -0.322 N 
HETATM   13  H   UNL     1     -40.153  54.444 -53.115  1.00  0.00     0.169 HD
HETATM   14  O   UNL     1     -42.559  53.600 -51.242  1.00  0.00    -0.266 OA
BRANCH  12  15
HETATM   15  C   UNL     1     -40.296  52.388 -52.775  1.00  0.00     0.037 A 
HETATM   16  C   UNL     1     -39.823  51.597 -51.725  1.00  0.00     0.066 A 
HETATM   17  C   UNL     1     -39.455  50.274 -51.965  1.00  0.00     0.067 A 
HETATM   18  C   UNL     1     -39.549  49.722 -53.236  1.00  0.00     0.036 A 
HETATM   19  C   UNL     1     -40.020  50.502 -54.288  1.00  0.00     0.005 A 
HETATM   20  C   UNL     1     -40.389  51.831 -54.058  1.00  0.00     0.029 A 
BRANCH  17  21
HETATM   21  O   UNL     1     -38.988  49.477 -50.960  1.00  0.00    -0.361 OA
HETATM   22  H   UNL     1     -39.740  49.223 -50.398  1.00  0.00     0.217 HD
ENDBRANCH  17  21
ENDBRANCH  12  15
ENDBRANCH   6  11
BRANCH   8  23
HETATM   23  C   UNL     1     -44.412  58.743 -53.378  1.00  0.00     0.409 C 
HETATM   24  F   UNL     1     -44.810  58.517 -52.113  1.00  0.00    -0.169 F 
HETATM   25  F   UNL     1     -44.867  59.973 -53.730  1.00  0.00    -0.169 F 
HETATM   26  F   UNL     1     -45.068  57.861 -54.168  1.00  0.00    -0.169 F 
ENDBRANCH   8  23
BRANCH   1  27
HETATM   27  C   UNL     1     -42.908  61.040 -51.120  1.00  0.00    -0.035 A 
HETATM   28  C   UNL     1     -43.543  62.150 -51.704  1.00  0.00     0.010 A 
HETATM   29  C   UNL     1     -44.526  62.866 -51.015  1.00  0.00     0.007 A 
HETATM   30  C   UNL     1     -44.897  62.495 -49.720  1.00  0.00    -0.062 A 
HETATM   31  C   UNL     1     -45.970  63.237 -48.981  1.00  0.00     0.048 C 
HETATM   32  C   UNL     1     -44.281  61.386 -49.135  1.00  0.00     0.007 A 
HETATM   33  C   UNL     1     -43.292  60.675 -49.822  1.00  0.00     0.010 A 
ENDBRANCH   1  27
TORSDOF 5
ENDMDL
MODEL 4
REMARK VINA RESULT:      -8.3      6.853     10.081
REMARK  5 active torsions:
REMARK  status: ('A' for Active; 'I' for Inactive)
REMARK    1  A    between atoms: C_5  and  C_6 
REMARK    2  A    between atoms: C_11  and  C_12 
REMARK       I    between atoms: C_12  and  N_13 
REMARK    3  A    between atoms: N_13  and  C_14 
REMARK    4  A    between atoms: C_16  and  O_17 
REMARK    5  A    between atoms: C_23  and  C_24 
ROOT
HETATM    1  C   UNL     1     -43.373  58.790 -58.965  1.00  0.00     0.118 C 
HETATM    2  N   UNL     1     -43.273  58.523 -57.535  1.00  0.00    -0.366 N 
HETATM    3  C   UNL     1     -43.049  57.292 -57.035  1.00  0.00     0.123 A 
HETATM    4  N   UNL     1     -42.861  56.208 -57.845  1.00  0.00    -0.240 N 
HETATM    5  N   UNL     1     -42.588  55.068 -57.179  1.00  0.00    -0.165 NA
HETATM    6  C   UNL     1     -42.664  55.439 -55.878  1.00  0.00     0.148 A 
HETATM    7  C   UNL     1     -42.949  56.825 -55.752  1.00  0.00     0.089 A 
HETATM    8  C   UNL     1     -42.890  56.260 -59.292  1.00  0.00     0.221 C 
HETATM    9  C   UNL     1     -42.658  57.701 -59.785  1.00  0.00     0.066 C 
HETATM   10  H   UNL     1     -43.526  59.303 -56.928  1.00  0.00     0.161 HD
ENDROOT
BRANCH   6  11
HETATM   11  C   UNL     1     -42.462  54.480 -54.777  1.00  0.00     0.276 C 
HETATM   12  N   UNL     1     -41.215  53.888 -54.830  1.00  0.00    -0.322 N 
HETATM   13  H   UNL     1     -40.653  54.202 -55.618  1.00  0.00     0.169 HD
HETATM   14  O   UNL     1     -43.338  54.271 -53.945  1.00  0.00    -0.266 OA
BRANCH  12  15
HETATM   15  C   UNL     1     -40.667  52.927 -53.963  1.00  0.00     0.037 A 
HETATM   16  C   UNL     1     -40.386  51.611 -54.340  1.00  0.00     0.066 A 
HETATM   17  C   UNL     1     -39.841  50.725 -53.411  1.00  0.00     0.067 A 
HETATM   18  C   UNL     1     -39.570  51.127 -52.110  1.00  0.00     0.036 A 
HETATM   19  C   UNL     1     -39.846  52.436 -51.726  1.00  0.00     0.005 A 
HETATM   20  C   UNL     1     -40.395  53.331 -52.649  1.00  0.00     0.029 A 
BRANCH  17  21
HETATM   21  O   UNL     1     -39.557  49.434 -53.749  1.00  0.00    -0.361 OA
HETATM   22  H   UNL     1     -39.015  49.442 -54.556  1.00  0.00     0.217 HD
ENDBRANCH  17  21
ENDBRANCH  12  15
ENDBRANCH   6  11
BRANCH   8  23
HETATM   23  C   UNL     1     -44.159  55.624 -59.813  1.00  0.00     0.409 C 
HETATM   24  F   UNL     1     -45.240  55.845 -59.044  1.00  0.00    -0.169 F 
HETATM   25  F   UNL     1     -44.443  56.095 -61.055  1.00  0.00    -0.169 F 
HETATM   26  F   UNL     1     -44.026  54.282 -59.943  1.00  0.00    -0.169 F 
ENDBRANCH   8  23
BRANCH   1  27
HETATM   27  C   UNL     1     -44.792  59.099 -59.409  1.00  0.00    -0.035 A 
HETATM   28  C   UNL     1     -45.010  59.572 -60.714  1.00  0.00     0.010 A 
HETATM   29  C   UNL     1     -46.295  59.898 -61.160  1.00  0.00     0.007 A 
HETATM   30  C   UNL     1     -47.395  59.764 -60.310  1.00  0.00    -0.062 A 
HETATM   31  C   UNL     1     -48.782  60.083 -60.784  1.00  0.00     0.048 C 
HETATM   32  C   UNL     1     -47.191  59.282 -59.014  1.00  0.00     0.007 A 
HETATM   33  C   UNL     1     -45.904  58.964 -58.567  1.00  0.00     0.010 A 
ENDBRANCH   1  27
TORSDOF 5
ENDMDL
MODEL 5
REMARK VINA RESULT:      -8.2      3.944      9.173
REMARK  5 active torsions:
REMARK  status: ('A' for Active; 'I' for Inactive)
REMARK    1  A    between atoms: C_5  and  C_6 
REMARK    2  A    between atoms: C_11  and  C_12 
REMARK       I    between atoms: C_12  and  N_13 
REMARK    3  A    between atoms: N_13  and  C_14 
REMARK    4  A    between atoms: C_16  and  O_17 
REMARK    5  A    between atoms: C_23  and  C_24 
ROOT
HETATM    1  C   UNL     1     -41.840  59.720 -50.683  1.00  0.00     0.118 C 
HETATM    2  N   UNL     1     -42.094  58.314 -50.389  1.00  0.00    -0.366 N 
HETATM    3  C   UNL     1     -41.859  57.328 -51.278  1.00  0.00     0.123 A 
HETATM    4  N   UNL     1     -41.326  57.580 -52.510  1.00  0.00    -0.240 N 
HETATM    5  N   UNL     1     -41.101  56.472 -53.245  1.00  0.00    -0.165 NA
HETATM    6  C   UNL     1     -41.569  55.473 -52.459  1.00  0.00     0.148 A 
HETATM    7  C   UNL     1     -42.050  55.974 -51.219  1.00  0.00     0.089 A 
HETATM    8  C   UNL     1     -40.972  58.900 -52.988  1.00  0.00     0.221 C 
HETATM    9  C   UNL     1     -40.800  59.873 -51.807  1.00  0.00     0.066 C 
HETATM   10  H   UNL     1     -42.597  58.135 -49.520  1.00  0.00     0.161 HD
ENDROOT
BRANCH   6  11
HETATM   11  C   UNL     1     -41.551  54.063 -52.889  1.00  0.00     0.276 C 
HETATM   12  N   UNL     1     -40.508  53.362 -52.317  1.00  0.00    -0.322 N 
HETATM   13  H   UNL     1     -39.925  53.932 -51.707  1.00  0.00     0.169 HD
HETATM   14  O   UNL     1     -42.388  53.624 -53.671  1.00  0.00    -0.266 OA
BRANCH  12  15
HETATM   15  C   UNL     1     -40.165  52.010 -52.490  1.00  0.00     0.037 A 
HETATM   16  C   UNL     1     -40.169  51.359 -53.726  1.00  0.00     0.066 A 
HETATM   17  C   UNL     1     -39.813  50.013 -53.803  1.00  0.00     0.067 A 
HETATM   18  C   UNL     1     -39.452  49.301 -52.667  1.00  0.00     0.036 A 
HETATM   19  C   UNL     1     -39.445  49.941 -51.431  1.00  0.00     0.005 A 
HETATM   20  C   UNL     1     -39.802  51.290 -51.343  1.00  0.00     0.029 A 
BRANCH  17  21
HETATM   21  O   UNL     1     -39.809  49.350 -54.996  1.00  0.00    -0.361 OA
HETATM   22  H   UNL     1     -39.044  48.750 -55.008  1.00  0.00     0.217 HD
ENDBRANCH  17  21
ENDBRANCH  12  15
ENDBRANCH   6  11
BRANCH   8  23
HETATM   23  C   UNL     1     -41.964  59.362 -54.031  1.00  0.00     0.409 C 
HETATM   24  F   UNL     1     -43.226  58.956 -53.807  1.00  0.00    -0.169 F 
HETATM   25  F   UNL     1     -41.981  60.719 -54.093  1.00  0.00    -0.169 F 
HETATM   26  F   UNL     1     -41.619  58.935 -55.270  1.00  0.00    -0.169 F 
ENDBRANCH   8  23
BRANCH   1  27
HETATM   27  C   UNL     1     -43.114  60.522 -50.874  1.00  0.00    -0.035 A 
HETATM   28  C   UNL     1     -44.354  59.872 -50.743  1.00  0.00     0.010 A 
HETATM   29  C   UNL     1     -45.555  60.562 -50.936  1.00  0.00     0.007 A 
HETATM   30  C   UNL     1     -45.548  61.917 -51.273  1.00  0.00    -0.062 A 
HETATM   31  C   UNL     1     -46.829  62.675 -51.456  1.00  0.00     0.048 C 
HETATM   32  C   UNL     1     -44.321  62.575 -51.393  1.00  0.00     0.007 A 
HETATM   33  C   UNL     1     -43.120  61.884 -51.207  1.00  0.00     0.010 A 
ENDBRANCH   1  27
TORSDOF 5
ENDMDL
MODEL 6
REMARK VINA RESULT:      -8.0      4.785      8.998
REMARK  5 active torsions:
REMARK  status: ('A' for Active; 'I' for Inactive)
REMARK    1  A    between atoms: C_5  and  C_6 
REMARK    2  A    between atoms: C_11  and  C_12 
REMARK       I    between atoms: C_12  and  N_13 
REMARK    3  A    between atoms: N_13  and  C_14 
REMARK    4  A    between atoms: C_16  and  O_17 
REMARK    5  A    between atoms: C_23  and  C_24 
ROOT
HETATM    1  C   UNL     1     -44.313  59.451 -56.211  1.00  0.00     0.118 C 
HETATM    2  N   UNL     1     -44.092  58.015 -56.329  1.00  0.00    -0.366 N 
HETATM    3  C   UNL     1     -43.655  57.256 -55.304  1.00  0.00     0.123 A 
HETATM    4  N   UNL     1     -43.425  57.783 -54.064  1.00  0.00    -0.240 N 
HETATM    5  N   UNL     1     -43.050  56.871 -53.144  1.00  0.00    -0.165 NA
HETATM    6  C   UNL     1     -42.986  55.719 -53.852  1.00  0.00     0.148 A 
HETATM    7  C   UNL     1     -43.359  55.923 -55.207  1.00  0.00     0.089 A 
HETATM    8  C   UNL     1     -43.612  59.179 -53.727  1.00  0.00     0.221 C 
HETATM    9  C   UNL     1     -44.544  59.860 -54.745  1.00  0.00     0.066 C 
HETATM   10  H   UNL     1     -44.151  57.641 -57.276  1.00  0.00     0.161 HD
ENDROOT
BRANCH   6  11
HETATM   11  C   UNL     1     -42.577  54.443 -53.236  1.00  0.00     0.276 C 
HETATM   12  N   UNL     1     -41.468  53.902 -53.857  1.00  0.00    -0.322 N 
HETATM   13  H   UNL     1     -41.127  54.464 -54.635  1.00  0.00     0.169 HD
HETATM   14  O   UNL     1     -43.192  53.965 -52.290  1.00  0.00    -0.266 OA
BRANCH  12  15
HETATM   15  C   UNL     1     -40.798  52.703 -53.560  1.00  0.00     0.037 A 
HETATM   16  C   UNL     1     -40.749  51.605 -54.422  1.00  0.00     0.066 A 
HETATM   17  C   UNL     1     -40.058  50.455 -54.042  1.00  0.00     0.067 A 
HETATM   18  C   UNL     1     -39.412  50.378 -52.815  1.00  0.00     0.036 A 
HETATM   19  C   UNL     1     -39.456  51.468 -51.949  1.00  0.00     0.005 A 
HETATM   20  C   UNL     1     -40.148  52.625 -52.320  1.00  0.00     0.029 A 
BRANCH  17  21
HETATM   21  O   UNL     1     -39.993  49.366 -54.863  1.00  0.00    -0.361 OA
HETATM   22  H   UNL     1     -40.787  48.826 -54.716  1.00  0.00     0.217 HD
ENDBRANCH  17  21
ENDBRANCH  12  15
ENDBRANCH   6  11
BRANCH   8  23
HETATM   23  C   UNL     1     -42.272  59.861 -53.561  1.00  0.00     0.409 C 
HETATM   24  F   UNL     1     -42.305  61.190 -53.759  1.00  0.00    -0.169 F 
HETATM   25  F   UNL     1     -41.793  59.651 -52.308  1.00  0.00    -0.169 F 
HETATM   26  F   UNL     1     -41.346  59.351 -54.407  1.00  0.00    -0.169 F 
ENDBRANCH   8  23
BRANCH   1  27
HETATM   27  C   UNL     1     -43.270  60.270 -56.949  1.00  0.00    -0.035 A 
HETATM   28  C   UNL     1     -42.281  59.603 -57.693  1.00  0.00     0.010 A 
HETATM   29  C   UNL     1     -41.282  60.312 -58.367  1.00  0.00     0.007 A 
HETATM   30  C   UNL     1     -41.241  61.707 -58.309  1.00  0.00    -0.062 A 
HETATM   31  C   UNL     1     -40.191  62.481 -59.050  1.00  0.00     0.048 C 
HETATM   32  C   UNL     1     -42.226  62.381 -57.582  1.00  0.00     0.007 A 
HETATM   33  C   UNL     1     -43.221  61.670 -56.902  1.00  0.00     0.010 A 
ENDBRANCH   1  27
TORSDOF 5
ENDMDL
MODEL 7
REMARK VINA RESULT:      -8.0      0.956      1.222
REMARK  5 active torsions:
REMARK  status: ('A' for Active; 'I' for Inactive)
REMARK    1  A    between atoms: C_5  and  C_6 
REMARK    2  A    between atoms: C_11  and  C_12 
REMARK       I    between atoms: C_12  and  N_13 
REMARK    3  A    between atoms: N_13  and  C_14 
REMARK    4  A    between atoms: C_16  and  O_17 
REMARK    5  A    between atoms: C_23  and  C_24 
ROOT
HETATM    1  C   UNL     1     -43.820  56.302 -53.027  1.00  0.00     0.118 C 
HETATM    2  N   UNL     1     -44.738  56.855 -52.037  1.00  0.00    -0.366 N 
HETATM    3  C   UNL     1     -44.632  58.113 -51.564  1.00  0.00     0.123 A 
HETATM    4  N   UNL     1     -43.671  58.973 -52.014  1.00  0.00    -0.240 N 
HETATM    5  N   UNL     1     -43.750  60.208 -51.478  1.00  0.00    -0.165 NA
HETATM    6  C   UNL     1     -44.777  60.106 -50.603  1.00  0.00     0.148 A 
HETATM    7  C   UNL     1     -45.354  58.808 -50.631  1.00  0.00     0.089 A 
HETATM    8  C   UNL     1     -42.682  58.635 -53.016  1.00  0.00     0.221 C 
HETATM    9  C   UNL     1     -43.143  57.419 -53.840  1.00  0.00     0.066 C 
HETATM   10  H   UNL     1     -45.381  56.184 -51.616  1.00  0.00     0.161 HD
ENDROOT
BRANCH   6  11
HETATM   11  C   UNL     1     -45.201  61.237 -49.756  1.00  0.00     0.276 C 
HETATM   12  N   UNL     1     -45.332  60.869 -48.431  1.00  0.00    -0.322 N 
HETATM   13  H   UNL     1     -45.125  59.887 -48.263  1.00  0.00     0.169 HD
HETATM   14  O   UNL     1     -45.404  62.348 -50.232  1.00  0.00    -0.266 OA
BRANCH  12  15
HETATM   15  C   UNL     1     -45.719  61.663 -47.338  1.00  0.00     0.037 A 
HETATM   16  C   UNL     1     -46.956  62.306 -47.245  1.00  0.00     0.066 A 
HETATM   17  C   UNL     1     -47.255  63.075 -46.120  1.00  0.00     0.067 A 
HETATM   18  C   UNL     1     -46.341  63.215 -45.084  1.00  0.00     0.036 A 
HETATM   19  C   UNL     1     -45.106  62.578 -45.169  1.00  0.00     0.005 A 
HETATM   20  C   UNL     1     -44.796  61.807 -46.293  1.00  0.00     0.029 A 
BRANCH  17  21
HETATM   21  O   UNL     1     -48.454  63.716 -46.000  1.00  0.00    -0.361 OA
HETATM   22  H   UNL     1     -48.374  64.592 -46.414  1.00  0.00     0.217 HD
ENDBRANCH  17  21
ENDBRANCH  12  15
ENDBRANCH   6  11
BRANCH   8  23
HETATM   23  C   UNL     1     -41.323  58.469 -52.374  1.00  0.00     0.409 C 
HETATM   24  F   UNL     1     -40.496  57.647 -53.043  1.00  0.00    -0.169 F 
HETATM   25  F   UNL     1     -40.702  59.673 -52.275  1.00  0.00    -0.169 F 
HETATM   26  F   UNL     1     -41.424  57.994 -51.109  1.00  0.00    -0.169 F 
ENDBRANCH   8  23
BRANCH   1  27
HETATM   27  C   UNL     1     -42.874  55.271 -52.441  1.00  0.00    -0.035 A 
HETATM   28  C   UNL     1     -41.957  54.627 -53.290  1.00  0.00     0.010 A 
HETATM   29  C   UNL     1     -41.084  53.649 -52.803  1.00  0.00     0.007 A 
HETATM   30  C   UNL     1     -41.109  53.285 -51.454  1.00  0.00    -0.062 A 
HETATM   31  C   UNL     1     -40.159  52.258 -50.913  1.00  0.00     0.048 C 
HETATM   32  C   UNL     1     -42.008  53.928 -50.599  1.00  0.00     0.007 A 
HETATM   33  C   UNL     1     -42.886  54.900 -51.089  1.00  0.00     0.010 A 
ENDBRANCH   1  27
TORSDOF 5
ENDMDL
MODEL 8
REMARK VINA RESULT:      -8.0      5.014      7.634
REMARK  5 active torsions:
REMARK  status: ('A' for Active; 'I' for Inactive)
REMARK    1  A    between atoms: C_5  and  C_6 
REMARK    2  A    between atoms: C_11  and  C_12 
REMARK       I    between atoms: C_12  and  N_13 
REMARK    3  A    between atoms: N_13  and  C_14 
REMARK    4  A    between atoms: C_16  and  O_17 
REMARK    5  A    between atoms: C_23  and  C_24 
ROOT
HETATM    1  C   UNL     1     -43.309  54.238 -52.817  1.00  0.00     0.118 C 
HETATM    2  N   UNL     1     -43.872  55.548 -53.124  1.00  0.00    -0.366 N 
HETATM    3  C   UNL     1     -43.449  56.302 -54.158  1.00  0.00     0.123 A 
HETATM    4  N   UNL     1     -42.480  55.867 -55.018  1.00  0.00    -0.240 N 
HETATM    5  N   UNL     1     -42.224  56.722 -56.029  1.00  0.00    -0.165 NA
HETATM    6  C   UNL     1     -43.031  57.776 -55.762  1.00  0.00     0.148 A 
HETATM    7  C   UNL     1     -43.813  57.546 -54.598  1.00  0.00     0.089 A 
HETATM    8  C   UNL     1     -41.814  54.586 -54.911  1.00  0.00     0.221 C 
HETATM    9  C   UNL     1     -42.649  53.613 -54.059  1.00  0.00     0.066 C 
HETATM   10  H   UNL     1     -44.509  55.923 -52.422  1.00  0.00     0.161 HD
ENDROOT
BRANCH   6  11
HETATM   11  C   UNL     1     -43.053  58.981 -56.612  1.00  0.00     0.276 C 
HETATM   12  N   UNL     1     -42.072  58.946 -57.583  1.00  0.00    -0.322 N 
HETATM   13  H   UNL     1     -41.496  58.107 -57.545  1.00  0.00     0.169 HD
HETATM   14  O   UNL     1     -43.868  59.877 -56.425  1.00  0.00    -0.266 OA
BRANCH  12  15
HETATM   15  C   UNL     1     -41.781  59.908 -58.565  1.00  0.00     0.037 A 
HETATM   16  C   UNL     1     -42.025  59.725 -59.929  1.00  0.00     0.066 A 
HETATM   17  C   UNL     1     -41.703  60.736 -60.833  1.00  0.00     0.067 A 
HETATM   18  C   UNL     1     -41.140  61.930 -60.403  1.00  0.00     0.036 A 
HETATM   19  C   UNL     1     -40.893  62.121 -59.047  1.00  0.00     0.005 A 
HETATM   20  C   UNL     1     -41.210  61.113 -58.132  1.00  0.00     0.029 A 
BRANCH  17  21
HETATM   21  O   UNL     1     -41.929  60.586 -62.171  1.00  0.00    -0.361 OA
HETATM   22  H   UNL     1     -42.885  60.476 -62.308  1.00  0.00     0.217 HD
ENDBRANCH  17  21
ENDBRANCH  12  15
ENDBRANCH   6  11
BRANCH   8  23
HETATM   23  C   UNL     1     -40.395  54.774 -54.423  1.00  0.00     0.409 C 
HETATM   24  F   UNL     1     -39.502  54.996 -55.404  1.00  0.00    -0.169 F 
HETATM   25  F   UNL     1     -40.329  55.829 -53.571  1.00  0.00    -0.169 F 
HETATM   26  F   UNL     1     -39.962  53.699 -53.722  1.00  0.00    -0.169 F 
ENDBRANCH   8  23
BRANCH   1  27
HETATM   27  C   UNL     1     -42.446  54.246 -51.568  1.00  0.00    -0.035 A 
HETATM   28  C   UNL     1     -41.601  53.151 -51.317  1.00  0.00     0.010 A 
HETATM   29  C   UNL     1     -40.808  53.099 -50.166  1.00  0.00     0.007 A 
HETATM   30  C   UNL     1     -40.845  54.138 -49.233  1.00  0.00    -0.062 A 
HETATM   31  C   UNL     1     -39.979  54.108 -48.008  1.00  0.00     0.048 C 
HETATM   32  C   UNL     1     -41.672  55.237 -49.479  1.00  0.00     0.007 A 
HETATM   33  C   UNL     1     -42.470  55.285 -50.627  1.00  0.00     0.010 A 
ENDBRANCH   1  27
TORSDOF 5
ENDMDL
MODEL 9
REMARK VINA RESULT:      -7.9      6.139      9.589
REMARK  5 active torsions:
REMARK  status: ('A' for Active; 'I' for Inactive)
REMARK    1  A    between atoms: C_5  and  C_6 
REMARK    2  A    between atoms: C_11  and  C_12 
REMARK       I    between atoms: C_12  and  N_13 
REMARK    3  A    between atoms: N_13  and  C_14 
REMARK    4  A    between atoms: C_16  and  O_17 
REMARK    5  A    between atoms: C_23  and  C_24 
ROOT
HETATM    1  C   UNL     1     -44.999  58.139 -57.679  1.00  0.00     0.118 C 
HETATM    2  N   UNL     1     -44.335  56.841 -57.683  1.00  0.00    -0.366 N 
HETATM    3  C   UNL     1     -43.359  56.518 -56.811  1.00  0.00     0.123 A 
HETATM    4  N   UNL     1     -42.952  57.380 -55.833  1.00  0.00    -0.240 N 
HETATM    5  N   UNL     1     -42.011  56.870 -55.012  1.00  0.00    -0.165 NA
HETATM    6  C   UNL     1     -41.770  55.644 -55.533  1.00  0.00     0.148 A 
HETATM    7  C   UNL     1     -42.598  55.390 -56.660  1.00  0.00     0.089 A 
HETATM    8  C   UNL     1     -43.503  58.705 -55.635  1.00  0.00     0.221 C 
HETATM    9  C   UNL     1     -44.885  58.819 -56.303  1.00  0.00     0.066 C 
HETATM   10  H   UNL     1     -44.554  56.242 -58.478  1.00  0.00     0.161 HD
ENDROOT
BRANCH   6  11
HETATM   11  C   UNL     1     -40.766  54.731 -54.958  1.00  0.00     0.276 C 
HETATM   12  N   UNL     1     -41.348  53.729 -54.207  1.00  0.00    -0.322 N 
HETATM   13  H   UNL     1     -42.364  53.793 -54.168  1.00  0.00     0.169 HD
HETATM   14  O   UNL     1     -39.567  54.896 -55.154  1.00  0.00    -0.266 OA
BRANCH  12  15
HETATM   15  C   UNL     1     -40.721  52.686 -53.504  1.00  0.00     0.037 A 
HETATM   16  C   UNL     1     -40.339  51.476 -54.088  1.00  0.00     0.066 A 
HETATM   17  C   UNL     1     -39.721  50.496 -53.312  1.00  0.00     0.067 A 
HETATM   18  C   UNL     1     -39.477  50.699 -51.960  1.00  0.00     0.036 A 
HETATM   19  C   UNL     1     -39.855  51.902 -51.370  1.00  0.00     0.005 A 
HETATM   20  C   UNL     1     -40.476  52.890 -52.139  1.00  0.00     0.029 A 
BRANCH  17  21
HETATM   21  O   UNL     1     -39.337  49.304 -53.854  1.00  0.00    -0.361 OA
HETATM   22  H   UNL     1     -38.583  48.965 -53.342  1.00  0.00     0.217 HD
ENDBRANCH  17  21
ENDBRANCH  12  15
ENDBRANCH   6  11
BRANCH   8  23
HETATM   23  C   UNL     1     -42.511  59.755 -56.082  1.00  0.00     0.409 C 
HETATM   24  F   UNL     1     -41.642  60.131 -55.127  1.00  0.00    -0.169 F 
HETATM   25  F   UNL     1     -41.783  59.295 -57.132  1.00  0.00    -0.169 F 
HETATM   26  F   UNL     1     -43.134  60.875 -56.520  1.00  0.00    -0.169 F 
ENDBRANCH   8  23
BRANCH   1  27
HETATM   27  C   UNL     1     -44.601  59.008 -58.859  1.00  0.00    -0.035 A 
HETATM   28  C   UNL     1     -45.246  60.243 -59.045  1.00  0.00     0.010 A 
HETATM   29  C   UNL     1     -44.934  61.065 -60.132  1.00  0.00     0.007 A 
HETATM   30  C   UNL     1     -43.972  60.672 -61.065  1.00  0.00    -0.062 A 
HETATM   31  C   UNL     1     -43.607  61.557 -62.219  1.00  0.00     0.048 C 
HETATM   32  C   UNL     1     -43.315  59.452 -60.882  1.00  0.00     0.007 A 
HETATM   33  C   UNL     1     -43.634  58.626 -59.799  1.00  0.00     0.010 A 
ENDBRANCH   1  27
TORSDOF 5
ENDMDL
MODEL 10
REMARK VINA RESULT:      -7.7      5.642      9.400
REMARK  5 active torsions:
REMARK  status: ('A' for Active; 'I' for Inactive)
REMARK    1  A    between atoms: C_5  and  C_6 
REMARK    2  A    between atoms: C_11  and  C_12 
REMARK       I    between atoms: C_12  and  N_13 
REMARK    3  A    between atoms: N_13  and  C_14 
REMARK    4  A    between atoms: C_16  and  O_17 
REMARK    5  A    between atoms: C_23  and  C_24 
ROOT
HETATM    1  C   UNL     1     -43.769  58.553 -58.630  1.00  0.00     0.118 C 
HETATM    2  N   UNL     1     -42.988  57.382 -58.252  1.00  0.00    -0.366 N 
HETATM    3  C   UNL     1     -43.087  56.795 -57.042  1.00  0.00     0.123 A 
HETATM    4  N   UNL     1     -43.963  57.243 -56.095  1.00  0.00    -0.240 N 
HETATM    5  N   UNL     1     -43.974  56.503 -54.968  1.00  0.00    -0.165 NA
HETATM    6  C   UNL     1     -43.015  55.574 -55.192  1.00  0.00     0.148 A 
HETATM    7  C   UNL     1     -42.440  55.727 -56.482  1.00  0.00     0.089 A 
HETATM    8  C   UNL     1     -44.853  58.372 -56.278  1.00  0.00     0.221 C 
HETATM    9  C   UNL     1     -45.045  58.669 -57.776  1.00  0.00     0.066 C 
HETATM   10  H   UNL     1     -42.254  57.116 -58.910  1.00  0.00     0.161 HD
ENDROOT
BRANCH   6  11
HETATM   11  C   UNL     1     -42.660  54.555 -54.187  1.00  0.00     0.276 C 
HETATM   12  N   UNL     1     -41.451  53.950 -54.471  1.00  0.00    -0.322 N 
HETATM   13  H   UNL     1     -41.016  54.298 -55.323  1.00  0.00     0.169 HD
HETATM   14  O   UNL     1     -43.395  54.313 -53.237  1.00  0.00    -0.266 OA
BRANCH  12  15
HETATM   15  C   UNL     1     -40.792  52.937 -53.754  1.00  0.00     0.037 A 
HETATM   16  C   UNL     1     -40.512  51.671 -54.275  1.00  0.00     0.066 A 
HETATM   17  C   UNL     1     -39.852  50.727 -53.490  1.00  0.00     0.067 A 
HETATM   18  C   UNL     1     -39.464  51.022 -52.189  1.00  0.00     0.036 A 
HETATM   19  C   UNL     1     -39.738  52.280 -51.661  1.00  0.00     0.005 A 
HETATM   20  C   UNL     1     -40.401  53.233 -52.440  1.00  0.00     0.029 A 
BRANCH  17  21
HETATM   21  O   UNL     1     -39.566  49.483 -53.971  1.00  0.00    -0.361 OA
HETATM   22  H   UNL     1     -38.660  49.253 -53.704  1.00  0.00     0.217 HD
ENDBRANCH  17  21
ENDBRANCH  12  15
ENDBRANCH   6  11
BRANCH   8  23
HETATM   23  C   UNL     1     -44.370  59.554 -55.468  1.00  0.00     0.409 C 
HETATM   24  F   UNL     1     -43.055  59.526 -55.186  1.00  0.00    -0.169 F 
HETATM   25  F   UNL     1     -44.615  60.710 -56.137  1.00  0.00    -0.169 F 
HETATM   26  F   UNL     1     -45.031  59.654 -54.291  1.00  0.00    -0.169 F 
ENDBRANCH   8  23
BRANCH   1  27
HETATM   27  C   UNL     1     -42.933  59.818 -58.710  1.00  0.00    -0.035 A 
HETATM   28  C   UNL     1     -43.378  60.879 -59.517  1.00  0.00     0.010 A 
HETATM   29  C   UNL     1     -42.629  62.053 -59.645  1.00  0.00     0.007 A 
HETATM   30  C   UNL     1     -41.412  62.194 -58.973  1.00  0.00    -0.062 A 
HETATM   31  C   UNL     1     -40.613  63.459 -59.080  1.00  0.00     0.048 C 
HETATM   32  C   UNL     1     -40.968  61.150 -58.158  1.00  0.00     0.007 A 
HETATM   33  C   UNL     1     -41.713  59.974 -58.036  1.00  0.00     0.010 A 
ENDBRANCH   1  27
TORSDOF 5
ENDMDL
