MODEL 1
REMARK VINA RESULT:      -8.3      0.000      0.000
REMARK  5 active torsions:
REMARK  status: ('A' for Active; 'I' for Inactive)
REMARK    1  A    between atoms: C_2  and  O_3 
REMARK    2  A    between atoms: C_2  and  C_4 
REMARK    3  A    between atoms: C_4  and  N_5 
REMARK       I    between atoms: N_5  and  C_6 
REMARK    4  A    between atoms: C_6  and  C_7 
REMARK    5  A    between atoms: C_15  and  C_16 
ROOT
HETATM    1  C   UNL     1     -41.472  57.152 -53.966  1.00  0.00     0.046 A 
HETATM    2  C   UNL     1     -42.100  57.002 -55.222  1.00  0.00     0.008 A 
HETATM    3  C   UNL     1     -42.192  55.685 -55.710  1.00  0.00     0.068 A 
HETATM    4  C   UNL     1     -42.805  55.465 -56.937  1.00  0.00     0.032 A 
HETATM    5  C   UNL     1     -43.333  56.509 -57.698  1.00  0.00     0.002 A 
HETATM    6  C   UNL     1     -43.251  57.810 -57.228  1.00  0.00     0.001 A 
HETATM    7  C   UNL     1     -42.642  58.058 -55.999  1.00  0.00     0.015 A 
HETATM    8  N   UNL     1     -41.718  54.620 -55.040  1.00  0.00    -0.248 NA
HETATM    9  C   UNL     1     -41.114  54.788 -53.840  1.00  0.00     0.068 A 
HETATM   10  C   UNL     1     -40.968  56.044 -53.276  1.00  0.00     0.050 A 
ENDROOT
BRANCH   1  11
HETATM   11  C   UNL     1     -41.294  58.484 -53.336  1.00  0.00     0.252 C 
HETATM   12  N   UNL     1     -41.865  58.623 -52.088  1.00  0.00    -0.354 N 
HETATM   13  H   UNL     1     -42.454  57.891 -51.711  1.00  0.00     0.162 HD
HETATM   14  O   UNL     1     -40.686  59.379 -53.904  1.00  0.00    -0.268 OA
BRANCH  12  15
HETATM   15  C   UNL     1     -41.757  59.864 -51.335  1.00  0.00     0.154 C 
BRANCH  15  16
HETATM   16  C   UNL     1     -40.832  59.726 -50.118  1.00  0.00     0.132 C 
HETATM   17  C   UNL     1     -39.377  59.620 -50.544  1.00  0.00     0.041 C 
BRANCH  16  18
HETATM   18  O   UNL     1     -41.172  58.537 -49.397  1.00  0.00    -0.394 OA
HETATM   19  H   UNL     1     -40.815  58.660 -48.500  1.00  0.00     0.210 HD
ENDBRANCH  16  18
ENDBRANCH  15  16
ENDBRANCH  12  15
ENDBRANCH   1  11
BRANCH   9  20
HETATM   20  C   UNL     1     -40.622  53.552 -53.193  1.00  0.00    -0.007 A 
HETATM   21  C   UNL     1     -40.527  53.467 -51.791  1.00  0.00     0.015 A 
HETATM   22  C   UNL     1     -40.068  52.306 -51.157  1.00  0.00     0.024 A 
HETATM   23  C   UNL     1     -39.688  51.209 -51.921  1.00  0.00     0.034 A 
HETATM   24 CL   UNL     1     -39.121  49.781 -51.150  1.00  0.00    -0.084 Cl
HETATM   25  C   UNL     1     -39.761  51.264 -53.309  1.00  0.00     0.024 A 
HETATM   26  C   UNL     1     -40.223  52.427 -53.939  1.00  0.00     0.015 A 
ENDBRANCH   9  20
TORSDOF 5
ENDMDL
MODEL 2
REMARK VINA RESULT:      -8.1      2.371      5.117
REMARK  5 active torsions:
REMARK  status: ('A' for Active; 'I' for Inactive)
REMARK    1  A    between atoms: C_2  and  O_3 
REMARK    2  A    between atoms: C_2  and  C_4 
REMARK    3  A    between atoms: C_4  and  N_5 
REMARK       I    between atoms: N_5  and  C_6 
REMARK    4  A    between atoms: C_6  and  C_7 
REMARK    5  A    between atoms: C_15  and  C_16 
ROOT
HETATM    1  C   UNL     1     -42.201  56.706 -55.025  1.00  0.00     0.046 A 
HETATM    2  C   UNL     1     -41.915  57.674 -54.037  1.00  0.00     0.008 A 
HETATM    3  C   UNL     1     -41.227  57.208 -52.900  1.00  0.00     0.068 A 
HETATM    4  C   UNL     1     -40.908  58.109 -51.893  1.00  0.00     0.032 A 
HETATM    5  C   UNL     1     -41.245  59.461 -51.975  1.00  0.00     0.002 A 
HETATM    6  C   UNL     1     -41.920  59.933 -53.090  1.00  0.00     0.001 A 
HETATM    7  C   UNL     1     -42.251  59.050 -54.115  1.00  0.00     0.015 A 
HETATM    8  N   UNL     1     -40.857  55.926 -52.743  1.00  0.00    -0.248 NA
HETATM    9  C   UNL     1     -41.147  55.013 -53.700  1.00  0.00     0.068 A 
HETATM   10  C   UNL     1     -41.825  55.370 -54.853  1.00  0.00     0.050 A 
ENDROOT
BRANCH   1  11
HETATM   11  C   UNL     1     -42.931  57.053 -56.269  1.00  0.00     0.252 C 
HETATM   12  N   UNL     1     -42.159  57.084 -57.412  1.00  0.00    -0.354 N 
HETATM   13  H   UNL     1     -41.153  56.988 -57.353  1.00  0.00     0.162 HD
HETATM   14  O   UNL     1     -44.129  57.295 -56.257  1.00  0.00    -0.268 OA
BRANCH  12  15
HETATM   15  C   UNL     1     -42.738  57.388 -58.713  1.00  0.00     0.154 C 
BRANCH  15  16
HETATM   16  C   UNL     1     -41.668  57.750 -59.753  1.00  0.00     0.132 C 
HETATM   17  C   UNL     1     -42.179  58.808 -60.719  1.00  0.00     0.041 C 
BRANCH  16  18
HETATM   18  O   UNL     1     -41.329  56.584 -60.510  1.00  0.00    -0.394 OA
HETATM   19  H   UNL     1     -42.163  56.097 -60.635  1.00  0.00     0.210 HD
ENDBRANCH  16  18
ENDBRANCH  15  16
ENDBRANCH  12  15
ENDBRANCH   1  11
BRANCH   9  20
HETATM   20  C   UNL     1     -40.701  53.631 -53.422  1.00  0.00    -0.007 A 
HETATM   21  C   UNL     1     -40.681  52.665 -54.447  1.00  0.00     0.015 A 
HETATM   22  C   UNL     1     -40.260  51.352 -54.207  1.00  0.00     0.024 A 
HETATM   23  C   UNL     1     -39.857  50.980 -52.929  1.00  0.00     0.034 A 
HETATM   24 CL   UNL     1     -39.340  49.369 -52.627  1.00  0.00    -0.084 Cl
HETATM   25  C   UNL     1     -39.874  51.908 -51.893  1.00  0.00     0.024 A 
HETATM   26  C   UNL     1     -40.294  53.221 -52.138  1.00  0.00     0.015 A 
ENDBRANCH   9  20
TORSDOF 5
ENDMDL
MODEL 3
REMARK VINA RESULT:      -8.1      3.019      5.589
REMARK  5 active torsions:
REMARK  status: ('A' for Active; 'I' for Inactive)
REMARK    1  A    between atoms: C_2  and  O_3 
REMARK    2  A    between atoms: C_2  and  C_4 
REMARK    3  A    between atoms: C_4  and  N_5 
REMARK       I    between atoms: N_5  and  C_6 
REMARK    4  A    between atoms: C_6  and  C_7 
REMARK    5  A    between atoms: C_15  and  C_16 
ROOT
HETATM    1  C   UNL     1     -42.859  56.193 -56.049  1.00  0.00     0.046 A 
HETATM    2  C   UNL     1     -43.601  57.047 -55.205  1.00  0.00     0.008 A 
HETATM    3  C   UNL     1     -43.529  56.765 -53.828  1.00  0.00     0.068 A 
HETATM    4  C   UNL     1     -44.229  57.570 -52.939  1.00  0.00     0.032 A 
HETATM    5  C   UNL     1     -45.001  58.651 -53.370  1.00  0.00     0.002 A 
HETATM    6  C   UNL     1     -45.078  58.941 -54.723  1.00  0.00     0.001 A 
HETATM    7  C   UNL     1     -44.384  58.149 -55.635  1.00  0.00     0.015 A 
HETATM    8  N   UNL     1     -42.804  55.750 -53.325  1.00  0.00    -0.248 NA
HETATM    9  C   UNL     1     -42.105  54.940 -54.154  1.00  0.00     0.068 A 
HETATM   10  C   UNL     1     -42.116  55.130 -55.525  1.00  0.00     0.050 A 
ENDROOT
BRANCH   1  11
HETATM   11  C   UNL     1     -42.853  56.365 -57.524  1.00  0.00     0.252 C 
HETATM   12  N   UNL     1     -43.538  55.399 -58.229  1.00  0.00    -0.354 N 
HETATM   13  H   UNL     1     -43.905  54.583 -57.755  1.00  0.00     0.162 HD
HETATM   14  O   UNL     1     -42.271  57.302 -58.051  1.00  0.00    -0.268 OA
BRANCH  12  15
HETATM   15  C   UNL     1     -43.639  55.444 -59.681  1.00  0.00     0.154 C 
BRANCH  15  16
HETATM   16  C   UNL     1     -44.858  54.669 -60.202  1.00  0.00     0.132 C 
HETATM   17  C   UNL     1     -46.103  55.542 -60.204  1.00  0.00     0.041 C 
BRANCH  16  18
HETATM   18  O   UNL     1     -45.104  53.546 -59.351  1.00  0.00    -0.394 OA
HETATM   19  H   UNL     1     -44.228  53.186 -59.126  1.00  0.00     0.210 HD
ENDBRANCH  16  18
ENDBRANCH  15  16
ENDBRANCH  12  15
ENDBRANCH   1  11
BRANCH   9  20
HETATM   20  C   UNL     1     -41.350  53.850 -53.498  1.00  0.00    -0.007 A 
HETATM   21  C   UNL     1     -40.850  52.771 -54.251  1.00  0.00     0.015 A 
HETATM   22  C   UNL     1     -40.131  51.730 -53.651  1.00  0.00     0.024 A 
HETATM   23  C   UNL     1     -39.904  51.751 -52.280  1.00  0.00     0.034 A 
HETATM   24 CL   UNL     1     -39.022  50.476 -51.537  1.00  0.00    -0.084 Cl
HETATM   25  C   UNL     1     -40.392  52.799 -51.506  1.00  0.00     0.024 A 
HETATM   26  C   UNL     1     -41.110  53.838 -52.111  1.00  0.00     0.015 A 
ENDBRANCH   9  20
TORSDOF 5
ENDMDL
MODEL 4
REMARK VINA RESULT:      -8.0      1.280      1.876
REMARK  5 active torsions:
REMARK  status: ('A' for Active; 'I' for Inactive)
REMARK    1  A    between atoms: C_2  and  O_3 
REMARK    2  A    between atoms: C_2  and  C_4 
REMARK    3  A    between atoms: C_4  and  N_5 
REMARK       I    between atoms: N_5  and  C_6 
REMARK    4  A    between atoms: C_6  and  C_7 
REMARK    5  A    between atoms: C_15  and  C_16 
ROOT
HETATM    1  C   UNL     1     -41.560  57.209 -54.039  1.00  0.00     0.046 A 
HETATM    2  C   UNL     1     -42.163  57.033 -55.304  1.00  0.00     0.008 A 
HETATM    3  C   UNL     1     -42.224  55.709 -55.777  1.00  0.00     0.068 A 
HETATM    4  C   UNL     1     -42.811  55.463 -57.012  1.00  0.00     0.032 A 
HETATM    5  C   UNL     1     -43.345  56.488 -57.795  1.00  0.00     0.002 A 
HETATM    6  C   UNL     1     -43.294  57.796 -57.340  1.00  0.00     0.001 A 
HETATM    7  C   UNL     1     -42.710  58.069 -56.104  1.00  0.00     0.015 A 
HETATM    8  N   UNL     1     -41.744  54.661 -55.086  1.00  0.00    -0.248 NA
HETATM    9  C   UNL     1     -41.164  54.854 -53.877  1.00  0.00     0.068 A 
HETATM   10  C   UNL     1     -41.049  56.119 -53.328  1.00  0.00     0.050 A 
ENDROOT
BRANCH   1  11
HETATM   11  C   UNL     1     -41.417  58.552 -53.423  1.00  0.00     0.252 C 
HETATM   12  N   UNL     1     -42.475  58.951 -52.634  1.00  0.00    -0.354 N 
HETATM   13  H   UNL     1     -43.321  58.396 -52.595  1.00  0.00     0.162 HD
HETATM   14  O   UNL     1     -40.425  59.239 -53.620  1.00  0.00    -0.268 OA
BRANCH  12  15
HETATM   15  C   UNL     1     -42.471  60.234 -51.946  1.00  0.00     0.154 C 
BRANCH  15  16
HETATM   16  C   UNL     1     -43.207  61.322 -52.741  1.00  0.00     0.132 C 
HETATM   17  C   UNL     1     -44.567  60.832 -53.211  1.00  0.00     0.041 C 
BRANCH  16  18
HETATM   18  O   UNL     1     -42.436  61.668 -53.896  1.00  0.00    -0.394 OA
HETATM   19  H   UNL     1     -41.765  60.968 -53.986  1.00  0.00     0.210 HD
ENDBRANCH  16  18
ENDBRANCH  15  16
ENDBRANCH  12  15
ENDBRANCH   1  11
BRANCH   9  20
HETATM   20  C   UNL     1     -40.662  53.636 -53.207  1.00  0.00    -0.007 A 
HETATM   21  C   UNL     1     -40.609  53.562 -51.802  1.00  0.00     0.015 A 
HETATM   22  C   UNL     1     -40.140  52.417 -51.146  1.00  0.00     0.024 A 
HETATM   23  C   UNL     1     -39.709  51.325 -51.890  1.00  0.00     0.034 A 
HETATM   24 CL   UNL     1     -39.132  49.917 -51.091  1.00  0.00    -0.084 Cl
HETATM   25  C   UNL     1     -39.740  51.369 -53.280  1.00  0.00     0.024 A 
HETATM   26  C   UNL     1     -40.211  52.516 -53.931  1.00  0.00     0.015 A 
ENDBRANCH   9  20
TORSDOF 5
ENDMDL
MODEL 5
REMARK VINA RESULT:      -7.8      3.375      5.266
REMARK  5 active torsions:
REMARK  status: ('A' for Active; 'I' for Inactive)
REMARK    1  A    between atoms: C_2  and  O_3 
REMARK    2  A    between atoms: C_2  and  C_4 
REMARK    3  A    between atoms: C_4  and  N_5 
REMARK       I    between atoms: N_5  and  C_6 
REMARK    4  A    between atoms: C_6  and  C_7 
REMARK    5  A    between atoms: C_15  and  C_16 
ROOT
HETATM    1  C   UNL     1     -42.941  56.041 -56.439  1.00  0.00     0.046 A 
HETATM    2  C   UNL     1     -43.656  56.976 -55.659  1.00  0.00     0.008 A 
HETATM    3  C   UNL     1     -43.562  56.814 -54.264  1.00  0.00     0.068 A 
HETATM    4  C   UNL     1     -44.235  57.704 -53.437  1.00  0.00     0.032 A 
HETATM    5  C   UNL     1     -44.999  58.755 -53.947  1.00  0.00     0.002 A 
HETATM    6  C   UNL     1     -45.099  58.927 -55.319  1.00  0.00     0.001 A 
HETATM    7  C   UNL     1     -44.432  58.048 -56.170  1.00  0.00     0.015 A 
HETATM    8  N   UNL     1     -42.842  55.836 -53.687  1.00  0.00    -0.248 NA
HETATM    9  C   UNL     1     -42.169  54.946 -54.455  1.00  0.00     0.068 A 
HETATM   10  C   UNL     1     -42.204  55.016 -55.836  1.00  0.00     0.050 A 
ENDROOT
BRANCH   1  11
HETATM   11  C   UNL     1     -42.961  56.084 -57.922  1.00  0.00     0.252 C 
HETATM   12  N   UNL     1     -42.139  57.034 -58.491  1.00  0.00    -0.354 N 
HETATM   13  H   UNL     1     -41.662  57.712 -57.910  1.00  0.00     0.162 HD
HETATM   14  O   UNL     1     -43.667  55.325 -58.571  1.00  0.00    -0.268 OA
BRANCH  12  15
HETATM   15  C   UNL     1     -42.034  57.184 -59.936  1.00  0.00     0.154 C 
BRANCH  15  16
HETATM   16  C   UNL     1     -43.047  58.196 -60.490  1.00  0.00     0.132 C 
HETATM   17  C   UNL     1     -43.293  59.323 -59.499  1.00  0.00     0.041 C 
BRANCH  16  18
HETATM   18  O   UNL     1     -44.294  57.535 -60.730  1.00  0.00    -0.394 OA
HETATM   19  H   UNL     1     -44.941  57.972 -60.148  1.00  0.00     0.210 HD
ENDBRANCH  16  18
ENDBRANCH  15  16
ENDBRANCH  12  15
ENDBRANCH   1  11
BRANCH   9  20
HETATM   20  C   UNL     1     -41.417  53.907 -53.719  1.00  0.00    -0.007 A 
HETATM   21  C   UNL     1     -40.836  52.823 -54.404  1.00  0.00     0.015 A 
HETATM   22  C   UNL     1     -40.118  51.829 -53.729  1.00  0.00     0.024 A 
HETATM   23  C   UNL     1     -39.974  51.902 -52.348  1.00  0.00     0.034 A 
HETATM   24 CL   UNL     1     -39.094  50.685 -51.512  1.00  0.00    -0.084 Cl
HETATM   25  C   UNL     1     -40.543  52.955 -51.640  1.00  0.00     0.024 A 
HETATM   26  C   UNL     1     -41.260  53.948 -52.320  1.00  0.00     0.015 A 
ENDBRANCH   9  20
TORSDOF 5
ENDMDL
MODEL 6
REMARK VINA RESULT:      -7.6      2.986      5.803
REMARK  5 active torsions:
REMARK  status: ('A' for Active; 'I' for Inactive)
REMARK    1  A    between atoms: C_2  and  O_3 
REMARK    2  A    between atoms: C_2  and  C_4 
REMARK    3  A    between atoms: C_4  and  N_5 
REMARK       I    between atoms: N_5  and  C_6 
REMARK    4  A    between atoms: C_6  and  C_7 
REMARK    5  A    between atoms: C_15  and  C_16 
ROOT
HETATM    1  C   UNL     1     -41.595  55.434 -52.842  1.00  0.00     0.046 A 
HETATM    2  C   UNL     1     -40.970  54.172 -52.937  1.00  0.00     0.008 A 
HETATM    3  C   UNL     1     -40.888  53.622 -54.230  1.00  0.00     0.068 A 
HETATM    4  C   UNL     1     -40.279  52.385 -54.397  1.00  0.00     0.032 A 
HETATM    5  C   UNL     1     -39.743  51.673 -53.323  1.00  0.00     0.002 A 
HETATM    6  C   UNL     1     -39.814  52.204 -52.045  1.00  0.00     0.001 A 
HETATM    7  C   UNL     1     -40.420  53.444 -51.851  1.00  0.00     0.015 A 
HETATM    8  N   UNL     1     -41.370  54.242 -55.321  1.00  0.00    -0.248 NA
HETATM    9  C   UNL     1     -41.971  55.450 -55.205  1.00  0.00     0.068 A 
HETATM   10  C   UNL     1     -42.107  56.071 -53.976  1.00  0.00     0.050 A 
ENDROOT
BRANCH   1  11
HETATM   11  C   UNL     1     -41.762  56.126 -51.539  1.00  0.00     0.252 C 
HETATM   12  N   UNL     1     -40.968  57.239 -51.361  1.00  0.00    -0.354 N 
HETATM   13  H   UNL     1     -40.252  57.471 -52.039  1.00  0.00     0.162 HD
HETATM   14  O   UNL     1     -42.549  55.716 -50.698  1.00  0.00    -0.268 OA
BRANCH  12  15
HETATM   15  C   UNL     1     -41.034  58.035 -50.144  1.00  0.00     0.154 C 
BRANCH  15  16
HETATM   16  C   UNL     1     -40.572  59.481 -50.370  1.00  0.00     0.132 C 
HETATM   17  C   UNL     1     -41.759  60.424 -50.489  1.00  0.00     0.041 C 
BRANCH  16  18
HETATM   18  O   UNL     1     -39.822  59.555 -51.587  1.00  0.00    -0.394 OA
HETATM   19  H   UNL     1     -38.972  59.117 -51.402  1.00  0.00     0.210 HD
ENDBRANCH  16  18
ENDBRANCH  15  16
ENDBRANCH  12  15
ENDBRANCH   1  11
BRANCH   9  20
HETATM   20  C   UNL     1     -42.472  56.038 -56.466  1.00  0.00    -0.007 A 
HETATM   21  C   UNL     1     -43.007  55.216 -57.477  1.00  0.00     0.015 A 
HETATM   22  C   UNL     1     -43.490  55.752 -58.677  1.00  0.00     0.024 A 
HETATM   23  C   UNL     1     -43.438  57.124 -58.888  1.00  0.00     0.034 A 
HETATM   24 CL   UNL     1     -44.028  57.789 -60.360  1.00  0.00    -0.084 Cl
HETATM   25  C   UNL     1     -42.908  57.963 -57.914  1.00  0.00     0.024 A 
HETATM   26  C   UNL     1     -42.428  57.423 -56.714  1.00  0.00     0.015 A 
ENDBRANCH   9  20
TORSDOF 5
ENDMDL
MODEL 7
REMARK VINA RESULT:      -7.2     15.607     17.964
REMARK  5 active torsions:
REMARK  status: ('A' for Active; 'I' for Inactive)
REMARK    1  A    between atoms: C_2  and  O_3 
REMARK    2  A    between atoms: C_2  and  C_4 
REMARK    3  A    between atoms: C_4  and  N_5 
REMARK       I    between atoms: N_5  and  C_6 
REMARK    4  A    between atoms: C_6  and  C_7 
REMARK    5  A    between atoms: C_15  and  C_16 
ROOT
HETATM    1  C   UNL     1     -34.522  40.725 -53.153  1.00  0.00     0.046 A 
HETATM    2  C   UNL     1     -33.540  40.417 -54.120  1.00  0.00     0.008 A 
HETATM    3  C   UNL     1     -32.383  39.776 -53.638  1.00  0.00     0.068 A 
HETATM    4  C   UNL     1     -31.379  39.437 -54.536  1.00  0.00     0.032 A 
HETATM    5  C   UNL     1     -31.484  39.711 -55.901  1.00  0.00     0.002 A 
HETATM    6  C   UNL     1     -32.620  40.339 -56.389  1.00  0.00     0.001 A 
HETATM    7  C   UNL     1     -33.642  40.688 -55.508  1.00  0.00     0.015 A 
HETATM    8  N   UNL     1     -32.202  39.467 -52.342  1.00  0.00    -0.248 NA
HETATM    9  C   UNL     1     -33.155  39.778 -51.432  1.00  0.00     0.068 A 
HETATM   10  C   UNL     1     -34.326  40.414 -51.804  1.00  0.00     0.050 A 
ENDROOT
BRANCH   1  11
HETATM   11  C   UNL     1     -35.787  41.411 -53.517  1.00  0.00     0.252 C 
HETATM   12  N   UNL     1     -36.825  40.577 -53.875  1.00  0.00    -0.354 N 
HETATM   13  H   UNL     1     -36.667  39.583 -53.985  1.00  0.00     0.162 HD
HETATM   14  O   UNL     1     -35.876  42.630 -53.498  1.00  0.00    -0.268 OA
BRANCH  12  15
HETATM   15  C   UNL     1     -38.134  41.101 -54.237  1.00  0.00     0.154 C 
BRANCH  15  16
HETATM   16  C   UNL     1     -38.262  41.350 -55.747  1.00  0.00     0.132 C 
HETATM   17  C   UNL     1     -37.614  40.229 -56.544  1.00  0.00     0.041 C 
BRANCH  16  18
HETATM   18  O   UNL     1     -37.602  42.574 -56.083  1.00  0.00    -0.394 OA
HETATM   19  H   UNL     1     -38.208  43.046 -56.681  1.00  0.00     0.210 HD
ENDBRANCH  16  18
ENDBRANCH  15  16
ENDBRANCH  12  15
ENDBRANCH   1  11
BRANCH   9  20
HETATM   20  C   UNL     1     -32.850  39.402 -50.034  1.00  0.00    -0.007 A 
HETATM   21  C   UNL     1     -33.713  38.550 -49.318  1.00  0.00     0.015 A 
HETATM   22  C   UNL     1     -33.443  38.178 -47.995  1.00  0.00     0.024 A 
HETATM   23  C   UNL     1     -32.303  38.661 -47.364  1.00  0.00     0.034 A 
HETATM   24 CL   UNL     1     -31.966  38.209 -45.739  1.00  0.00    -0.084 Cl
HETATM   25  C   UNL     1     -31.435  39.511 -48.041  1.00  0.00     0.024 A 
HETATM   26  C   UNL     1     -31.708  39.879 -49.364  1.00  0.00     0.015 A 
ENDBRANCH   9  20
TORSDOF 5
ENDMDL
MODEL 8
REMARK VINA RESULT:      -6.9     15.431     17.652
REMARK  5 active torsions:
REMARK  status: ('A' for Active; 'I' for Inactive)
REMARK    1  A    between atoms: C_2  and  O_3 
REMARK    2  A    between atoms: C_2  and  C_4 
REMARK    3  A    between atoms: C_4  and  N_5 
REMARK       I    between atoms: N_5  and  C_6 
REMARK    4  A    between atoms: C_6  and  C_7 
REMARK    5  A    between atoms: C_15  and  C_16 
ROOT
HETATM    1  C   UNL     1     -34.704  41.099 -54.116  1.00  0.00     0.046 A 
HETATM    2  C   UNL     1     -35.442  41.393 -55.283  1.00  0.00     0.008 A 
HETATM    3  C   UNL     1     -34.862  40.981 -56.498  1.00  0.00     0.068 A 
HETATM    4  C   UNL     1     -35.539  41.232 -57.685  1.00  0.00     0.032 A 
HETATM    5  C   UNL     1     -36.776  41.878 -57.709  1.00  0.00     0.002 A 
HETATM    6  C   UNL     1     -37.359  42.287 -56.520  1.00  0.00     0.001 A 
HETATM    7  C   UNL     1     -36.701  42.046 -55.315  1.00  0.00     0.015 A 
HETATM    8  N   UNL     1     -33.680  40.345 -56.567  1.00  0.00    -0.248 NA
HETATM    9  C   UNL     1     -32.986  40.079 -55.435  1.00  0.00     0.068 A 
HETATM   10  C   UNL     1     -33.468  40.449 -54.191  1.00  0.00     0.050 A 
ENDROOT
BRANCH   1  11
HETATM   11  C   UNL     1     -35.188  41.486 -52.768  1.00  0.00     0.252 C 
HETATM   12  N   UNL     1     -35.273  40.454 -51.857  1.00  0.00    -0.354 N 
HETATM   13  H   UNL     1     -35.121  39.498 -52.152  1.00  0.00     0.162 HD
HETATM   14  O   UNL     1     -35.490  42.642 -52.509  1.00  0.00    -0.268 OA
BRANCH  12  15
HETATM   15  C   UNL     1     -35.711  40.682 -50.487  1.00  0.00     0.154 C 
BRANCH  15  16
HETATM   16  C   UNL     1     -36.695  39.606 -50.006  1.00  0.00     0.132 C 
HETATM   17  C   UNL     1     -37.734  39.297 -51.072  1.00  0.00     0.041 C 
BRANCH  16  18
HETATM   18  O   UNL     1     -37.380  40.077 -48.841  1.00  0.00    -0.394 OA
HETATM   19  H   UNL     1     -37.263  39.384 -48.167  1.00  0.00     0.210 HD
ENDBRANCH  16  18
ENDBRANCH  15  16
ENDBRANCH  12  15
ENDBRANCH   1  11
BRANCH   9  20
HETATM   20  C   UNL     1     -31.694  39.384 -55.625  1.00  0.00    -0.007 A 
HETATM   21  C   UNL     1     -31.335  38.301 -54.800  1.00  0.00     0.015 A 
HETATM   22  C   UNL     1     -30.119  37.627 -54.964  1.00  0.00     0.024 A 
HETATM   23  C   UNL     1     -29.236  38.033 -55.958  1.00  0.00     0.034 A 
HETATM   24 CL   UNL     1     -27.740  37.210 -56.164  1.00  0.00    -0.084 Cl
HETATM   25  C   UNL     1     -29.557  39.105 -56.784  1.00  0.00     0.024 A 
HETATM   26  C   UNL     1     -30.775  39.775 -56.617  1.00  0.00     0.015 A 
ENDBRANCH   9  20
TORSDOF 5
ENDMDL
MODEL 9
REMARK VINA RESULT:      -6.9      3.595      6.108
REMARK  5 active torsions:
REMARK  status: ('A' for Active; 'I' for Inactive)
REMARK    1  A    between atoms: C_2  and  O_3 
REMARK    2  A    between atoms: C_2  and  C_4 
REMARK    3  A    between atoms: C_4  and  N_5 
REMARK       I    between atoms: N_5  and  C_6 
REMARK    4  A    between atoms: C_6  and  C_7 
REMARK    5  A    between atoms: C_15  and  C_16 
ROOT
HETATM    1  C   UNL     1     -42.491  55.883 -53.195  1.00  0.00     0.046 A 
HETATM    2  C   UNL     1     -41.712  54.705 -53.189  1.00  0.00     0.008 A 
HETATM    3  C   UNL     1     -41.271  54.254 -54.447  1.00  0.00     0.068 A 
HETATM    4  C   UNL     1     -40.494  53.104 -54.514  1.00  0.00     0.032 A 
HETATM    5  C   UNL     1     -40.136  52.385 -53.372  1.00  0.00     0.002 A 
HETATM    6  C   UNL     1     -40.563  52.820 -52.126  1.00  0.00     0.001 A 
HETATM    7  C   UNL     1     -41.343  53.971 -52.033  1.00  0.00     0.015 A 
HETATM    8  N   UNL     1     -41.560  54.889 -55.596  1.00  0.00    -0.248 NA
HETATM    9  C   UNL     1     -42.314  56.013 -55.578  1.00  0.00     0.068 A 
HETATM   10  C   UNL     1     -42.802  56.534 -54.393  1.00  0.00     0.050 A 
ENDROOT
BRANCH   1  11
HETATM   11  C   UNL     1     -43.034  56.466 -51.942  1.00  0.00     0.252 C 
HETATM   12  N   UNL     1     -44.366  56.821 -51.991  1.00  0.00    -0.354 N 
HETATM   13  H   UNL     1     -44.874  56.783 -52.865  1.00  0.00     0.162 HD
HETATM   14  O   UNL     1     -42.331  56.615 -50.953  1.00  0.00    -0.268 OA
BRANCH  12  15
HETATM   15  C   UNL     1     -45.046  57.386 -50.833  1.00  0.00     0.154 C 
BRANCH  15  16
HETATM   16  C   UNL     1     -45.076  58.920 -50.869  1.00  0.00     0.132 C 
HETATM   17  C   UNL     1     -45.346  59.430 -52.276  1.00  0.00     0.041 C 
BRANCH  16  18
HETATM   18  O   UNL     1     -43.806  59.428 -50.448  1.00  0.00    -0.394 OA
HETATM   19  H   UNL     1     -43.584  60.140 -51.075  1.00  0.00     0.210 HD
ENDBRANCH  16  18
ENDBRANCH  15  16
ENDBRANCH  12  15
ENDBRANCH   1  11
BRANCH   9  20
HETATM   20  C   UNL     1     -42.580  56.626 -56.898  1.00  0.00    -0.007 A 
HETATM   21  C   UNL     1     -42.350  57.999 -57.109  1.00  0.00     0.015 A 
HETATM   22  C   UNL     1     -42.592  58.599 -58.351  1.00  0.00     0.024 A 
HETATM   23  C   UNL     1     -43.075  57.832 -59.404  1.00  0.00     0.034 A 
HETATM   24 CL   UNL     1     -43.375  58.563 -60.931  1.00  0.00    -0.084 Cl
HETATM   25  C   UNL     1     -43.321  56.475 -59.225  1.00  0.00     0.024 A 
HETATM   26  C   UNL     1     -43.077  55.878 -57.982  1.00  0.00     0.015 A 
ENDBRANCH   9  20
TORSDOF 5
ENDMDL
MODEL 10
REMARK VINA RESULT:      -6.9      3.305      5.015
REMARK  5 active torsions:
REMARK  status: ('A' for Active; 'I' for Inactive)
REMARK    1  A    between atoms: C_2  and  O_3 
REMARK    2  A    between atoms: C_2  and  C_4 
REMARK    3  A    between atoms: C_4  and  N_5 
REMARK       I    between atoms: N_5  and  C_6 
REMARK    4  A    between atoms: C_6  and  C_7 
REMARK    5  A    between atoms: C_15  and  C_16 
ROOT
HETATM    1  C   UNL     1     -42.763  57.795 -57.209  1.00  0.00     0.046 A 
HETATM    2  C   UNL     1     -43.365  57.069 -58.260  1.00  0.00     0.008 A 
HETATM    3  C   UNL     1     -43.363  55.668 -58.120  1.00  0.00     0.068 A 
HETATM    4  C   UNL     1     -43.945  54.893 -59.114  1.00  0.00     0.032 A 
HETATM    5  C   UNL     1     -44.535  55.460 -60.245  1.00  0.00     0.002 A 
HETATM    6  C   UNL     1     -44.546  56.838 -60.394  1.00  0.00     0.001 A 
HETATM    7  C   UNL     1     -43.969  57.639 -59.410  1.00  0.00     0.015 A 
HETATM    8  N   UNL     1     -42.826  55.039 -57.060  1.00  0.00    -0.248 NA
HETATM    9  C   UNL     1     -42.248  55.755 -56.067  1.00  0.00     0.068 A 
HETATM   10  C   UNL     1     -42.194  57.137 -56.114  1.00  0.00     0.050 A 
ENDROOT
BRANCH   1  11
HETATM   11  C   UNL     1     -42.683  59.277 -57.230  1.00  0.00     0.252 C 
HETATM   12  N   UNL     1     -41.608  59.796 -57.920  1.00  0.00    -0.354 N 
HETATM   13  H   UNL     1     -40.883  59.184 -58.273  1.00  0.00     0.162 HD
HETATM   14  O   UNL     1     -43.520  59.966 -56.665  1.00  0.00    -0.268 OA
BRANCH  12  15
HETATM   15  C   UNL     1     -41.406  61.232 -58.047  1.00  0.00     0.154 C 
BRANCH  15  16
HETATM   16  C   UNL     1     -41.830  61.759 -59.425  1.00  0.00     0.132 C 
HETATM   17  C   UNL     1     -41.809  60.650 -60.466  1.00  0.00     0.041 C 
BRANCH  16  18
HETATM   18  O   UNL     1     -40.916  62.778 -59.845  1.00  0.00    -0.394 OA
HETATM   19  H   UNL     1     -40.106  62.638 -59.324  1.00  0.00     0.210 HD
ENDBRANCH  16  18
ENDBRANCH  15  16
ENDBRANCH  12  15
ENDBRANCH   1  11
BRANCH   9  20
HETATM   20  C   UNL     1     -41.681  54.963 -54.954  1.00  0.00    -0.007 A 
HETATM   21  C   UNL     1     -40.741  53.945 -55.206  1.00  0.00     0.015 A 
HETATM   22  C   UNL     1     -40.189  53.185 -54.169  1.00  0.00     0.024 A 
HETATM   23  C   UNL     1     -40.576  53.429 -52.856  1.00  0.00     0.034 A 
HETATM   24 CL   UNL     1     -39.902  52.498 -51.577  1.00  0.00    -0.084 Cl
HETATM   25  C   UNL     1     -41.508  54.421 -52.574  1.00  0.00     0.024 A 
HETATM   26  C   UNL     1     -42.057  55.180 -53.615  1.00  0.00     0.015 A 
ENDBRANCH   9  20
TORSDOF 5
ENDMDL
