MODEL 1
REMARK VINA RESULT:      -8.3      0.000      0.000
REMARK  3 active torsions:
REMARK  status: ('A' for Active; 'I' for Inactive)
REMARK    1  A    between atoms: C_7  and  C_8 
REMARK    2  A    between atoms: C_17  and  C_18 
REMARK       I    between atoms: C_18  and  N_19 
REMARK    3  A    between atoms: N_19  and  C_20 
ROOT
HETATM    1  C   UNL     1     -43.483  56.611 -52.614  1.00  0.00     0.206 C 
HETATM    2  N   UNL     1     -43.812  57.958 -52.131  1.00  0.00    -0.084 N 
HETATM    3  C   UNL     1     -43.062  58.646 -51.216  1.00  0.00     0.725 A 
HETATM    4  N   UNL     1     -43.605  59.816 -50.998  1.00  0.00    -0.054 NA
HETATM    5  C   UNL     1     -44.724  59.782 -51.791  1.00  0.00     0.275 A 
HETATM    6  N   UNL     1     -44.910  58.657 -52.490  1.00  0.00    -0.149 NA
HETATM    7  N   UNL     1     -41.978  58.058 -50.674  1.00  0.00    -0.192 N 
HETATM    8  C   UNL     1     -41.682  56.710 -50.856  1.00  0.00     0.037 C 
HETATM    9  C   UNL     1     -40.645  56.141 -49.918  1.00  0.00     0.070 C 
HETATM   10  C   UNL     1     -42.369  55.992 -51.780  1.00  0.00     0.063 C 
HETATM   11  H   UNL     1     -41.510  58.542 -49.912  1.00  0.00     0.184 HD
ENDROOT
BRANCH  10  12
HETATM   12  C   UNL     1     -42.205  54.528 -51.991  1.00  0.00     0.256 C 
HETATM   13  N   UNL     1     -41.057  54.194 -52.675  1.00  0.00    -0.323 N 
HETATM   14  H   UNL     1     -40.481  54.956 -53.010  1.00  0.00     0.169 HD
HETATM   15  O   UNL     1     -43.080  53.776 -51.582  1.00  0.00    -0.267 OA
BRANCH  13  16
HETATM   16  C   UNL     1     -40.565  52.896 -52.931  1.00  0.00     0.035 A 
HETATM   17  C   UNL     1     -40.707  52.234 -54.153  1.00  0.00     0.029 A 
HETATM   18  C   UNL     1     -40.216  50.934 -54.316  1.00  0.00     0.002 A 
HETATM   19  C   UNL     1     -39.585  50.284 -53.260  1.00  0.00     0.000 A 
HETATM   20  C   UNL     1     -39.436  50.935 -52.038  1.00  0.00     0.002 A 
HETATM   21  C   UNL     1     -39.918  52.237 -51.877  1.00  0.00     0.029 A 
ENDBRANCH  13  16
ENDBRANCH  10  12
BRANCH   1  22
HETATM   22  C   UNL     1     -43.107  56.683 -54.071  1.00  0.00     0.015 A 
HETATM   23  C   UNL     1     -43.274  55.724 -55.063  1.00  0.00     0.036 A 
HETATM   24  C   UNL     1     -43.853  54.357 -55.009  1.00  0.00     0.070 C 
HETATM   25  N   UNL     1     -42.812  56.299 -56.221  1.00  0.00    -0.278 N 
HETATM   26  C   UNL     1     -42.834  55.749 -57.557  1.00  0.00     0.179 C 
HETATM   27  N   UNL     1     -42.280  57.521 -56.034  1.00  0.00    -0.185 NA
HETATM   28  C   UNL     1     -42.492  57.768 -54.743  1.00  0.00     0.150 A 
ENDBRANCH   1  22
TORSDOF 3
ENDMDL
MODEL 2
REMARK VINA RESULT:      -7.9      1.840      5.740
REMARK  3 active torsions:
REMARK  status: ('A' for Active; 'I' for Inactive)
REMARK    1  A    between atoms: C_7  and  C_8 
REMARK    2  A    between atoms: C_17  and  C_18 
REMARK       I    between atoms: C_18  and  N_19 
REMARK    3  A    between atoms: N_19  and  C_20 
ROOT
HETATM    1  C   UNL     1     -42.430  55.190 -51.732  1.00  0.00     0.206 C 
HETATM    2  N   UNL     1     -41.641  54.563 -50.666  1.00  0.00    -0.084 N 
HETATM    3  C   UNL     1     -40.520  53.809 -50.886  1.00  0.00     0.725 A 
HETATM    4  N   UNL     1     -40.038  53.400 -49.741  1.00  0.00    -0.054 NA
HETATM    5  C   UNL     1     -40.934  53.909 -48.836  1.00  0.00     0.275 A 
HETATM    6  N   UNL     1     -41.948  54.612 -49.351  1.00  0.00    -0.149 NA
HETATM    7  N   UNL     1     -40.121  53.574 -52.151  1.00  0.00    -0.192 N 
HETATM    8  C   UNL     1     -40.897  53.901 -53.260  1.00  0.00     0.037 C 
HETATM    9  C   UNL     1     -40.468  53.269 -54.561  1.00  0.00     0.070 C 
HETATM   10  C   UNL     1     -41.996  54.680 -53.100  1.00  0.00     0.063 C 
HETATM   11  H   UNL     1     -39.359  52.914 -52.290  1.00  0.00     0.184 HD
ENDROOT
BRANCH  10  12
HETATM   12  C   UNL     1     -42.949  55.012 -54.194  1.00  0.00     0.256 C 
HETATM   13  N   UNL     1     -42.479  55.970 -55.065  1.00  0.00    -0.323 N 
HETATM   14  H   UNL     1     -41.582  56.387 -54.851  1.00  0.00     0.169 HD
HETATM   15  O   UNL     1     -44.038  54.451 -54.213  1.00  0.00    -0.267 OA
BRANCH  13  16
HETATM   16  C   UNL     1     -43.093  56.415 -56.256  1.00  0.00     0.035 A 
HETATM   17  C   UNL     1     -43.871  57.570 -56.349  1.00  0.00     0.029 A 
HETATM   18  C   UNL     1     -44.471  57.926 -57.562  1.00  0.00     0.002 A 
HETATM   19  C   UNL     1     -44.302  57.127 -58.689  1.00  0.00     0.000 A 
HETATM   20  C   UNL     1     -43.527  55.974 -58.608  1.00  0.00     0.002 A 
HETATM   21  C   UNL     1     -42.920  55.623 -57.399  1.00  0.00     0.029 A 
ENDBRANCH  13  16
ENDBRANCH  10  12
BRANCH   1  22
HETATM   22  C   UNL     1     -42.297  56.688 -51.635  1.00  0.00     0.015 A 
HETATM   23  C   UNL     1     -43.288  57.639 -51.426  1.00  0.00     0.036 A 
HETATM   24  C   UNL     1     -44.756  57.495 -51.246  1.00  0.00     0.070 C 
HETATM   25  N   UNL     1     -42.640  58.849 -51.372  1.00  0.00    -0.278 N 
HETATM   26  C   UNL     1     -43.207  60.149 -51.095  1.00  0.00     0.179 C 
HETATM   27  N   UNL     1     -41.320  58.758 -51.616  1.00  0.00    -0.185 NA
HETATM   28  C   UNL     1     -41.107  57.450 -51.738  1.00  0.00     0.150 A 
ENDBRANCH   1  22
TORSDOF 3
ENDMDL
MODEL 3
REMARK VINA RESULT:      -7.8      1.836      4.670
REMARK  3 active torsions:
REMARK  status: ('A' for Active; 'I' for Inactive)
REMARK    1  A    between atoms: C_7  and  C_8 
REMARK    2  A    between atoms: C_17  and  C_18 
REMARK       I    between atoms: C_18  and  N_19 
REMARK    3  A    between atoms: N_19  and  C_20 
ROOT
HETATM    1  C   UNL     1     -42.374  57.829 -55.193  1.00  0.00     0.206 C 
HETATM    2  N   UNL     1     -42.224  58.923 -56.160  1.00  0.00    -0.084 N 
HETATM    3  C   UNL     1     -42.571  58.828 -57.480  1.00  0.00     0.725 A 
HETATM    4  N   UNL     1     -42.329  59.966 -58.078  1.00  0.00    -0.054 NA
HETATM    5  C   UNL     1     -41.791  60.728 -57.071  1.00  0.00     0.275 A 
HETATM    6  N   UNL     1     -41.684  60.128 -55.880  1.00  0.00    -0.149 NA
HETATM    7  N   UNL     1     -43.039  57.659 -57.959  1.00  0.00    -0.192 N 
HETATM    8  C   UNL     1     -43.012  56.478 -57.221  1.00  0.00     0.037 C 
HETATM    9  C   UNL     1     -43.248  55.215 -58.010  1.00  0.00     0.070 C 
HETATM   10  C   UNL     1     -42.712  56.522 -55.898  1.00  0.00     0.063 C 
HETATM   11  H   UNL     1     -43.175  57.581 -58.964  1.00  0.00     0.184 HD
ENDROOT
BRANCH  10  12
HETATM   12  C   UNL     1     -42.560  55.319 -55.036  1.00  0.00     0.256 C 
HETATM   13  N   UNL     1     -41.249  54.984 -54.781  1.00  0.00    -0.323 N 
HETATM   14  H   UNL     1     -40.534  55.537 -55.238  1.00  0.00     0.169 HD
HETATM   15  O   UNL     1     -43.569  54.733 -54.664  1.00  0.00    -0.267 OA
BRANCH  13  16
HETATM   16  C   UNL     1     -40.779  53.973 -53.916  1.00  0.00     0.035 A 
HETATM   17  C   UNL     1     -40.742  54.090 -52.525  1.00  0.00     0.029 A 
HETATM   18  C   UNL     1     -40.232  53.051 -51.739  1.00  0.00     0.002 A 
HETATM   19  C   UNL     1     -39.750  51.890 -52.336  1.00  0.00     0.000 A 
HETATM   20  C   UNL     1     -39.782  51.762 -53.722  1.00  0.00     0.002 A 
HETATM   21  C   UNL     1     -40.300  52.796 -54.508  1.00  0.00     0.029 A 
ENDBRANCH  13  16
ENDBRANCH  10  12
BRANCH   1  22
HETATM   22  C   UNL     1     -43.430  58.199 -54.182  1.00  0.00     0.015 A 
HETATM   23  C   UNL     1     -43.432  57.992 -52.809  1.00  0.00     0.036 A 
HETATM   24  C   UNL     1     -42.431  57.350 -51.918  1.00  0.00     0.070 C 
HETATM   25  N   UNL     1     -44.596  58.556 -52.347  1.00  0.00    -0.278 N 
HETATM   26  C   UNL     1     -45.042  58.679 -50.979  1.00  0.00     0.179 C 
HETATM   27  N   UNL     1     -45.383  59.032 -53.329  1.00  0.00    -0.185 NA
HETATM   28  C   UNL     1     -44.662  58.851 -54.433  1.00  0.00     0.150 A 
ENDBRANCH   1  22
TORSDOF 3
ENDMDL
MODEL 4
REMARK VINA RESULT:      -7.7      1.171      1.653
REMARK  3 active torsions:
REMARK  status: ('A' for Active; 'I' for Inactive)
REMARK    1  A    between atoms: C_7  and  C_8 
REMARK    2  A    between atoms: C_17  and  C_18 
REMARK       I    between atoms: C_18  and  N_19 
REMARK    3  A    between atoms: N_19  and  C_20 
ROOT
HETATM    1  C   UNL     1     -43.915  57.388 -52.644  1.00  0.00     0.206 C 
HETATM    2  N   UNL     1     -44.247  58.695 -52.065  1.00  0.00    -0.084 N 
HETATM    3  C   UNL     1     -43.448  59.362 -51.175  1.00  0.00     0.725 A 
HETATM    4  N   UNL     1     -44.009  60.498 -50.852  1.00  0.00    -0.054 NA
HETATM    5  C   UNL     1     -45.187  60.465 -51.555  1.00  0.00     0.275 A 
HETATM    6  N   UNL     1     -45.392  59.371 -52.298  1.00  0.00    -0.149 NA
HETATM    7  N   UNL     1     -42.305  58.786 -50.753  1.00  0.00    -0.192 N 
HETATM    8  C   UNL     1     -41.982  57.461 -51.031  1.00  0.00     0.037 C 
HETATM    9  C   UNL     1     -40.856  56.883 -50.210  1.00  0.00     0.070 C 
HETATM   10  C   UNL     1     -42.718  56.768 -51.936  1.00  0.00     0.063 C 
HETATM   11  H   UNL     1     -41.794  59.247 -50.005  1.00  0.00     0.184 HD
ENDROOT
BRANCH  10  12
HETATM   12  C   UNL     1     -42.524  55.323 -52.238  1.00  0.00     0.256 C 
HETATM   13  N   UNL     1     -41.265  55.021 -52.707  1.00  0.00    -0.323 N 
HETATM   14  H   UNL     1     -40.629  55.795 -52.853  1.00  0.00     0.169 HD
HETATM   15  O   UNL     1     -43.469  54.560 -52.079  1.00  0.00    -0.267 OA
BRANCH  13  16
HETATM   16  C   UNL     1     -40.740  53.739 -52.975  1.00  0.00     0.035 A 
HETATM   17  C   UNL     1     -40.833  53.098 -54.212  1.00  0.00     0.029 A 
HETATM   18  C   UNL     1     -40.312  51.812 -54.386  1.00  0.00     0.002 A 
HETATM   19  C   UNL     1     -39.699  51.153 -53.325  1.00  0.00     0.000 A 
HETATM   20  C   UNL     1     -39.599  51.782 -52.087  1.00  0.00     0.002 A 
HETATM   21  C   UNL     1     -40.111  53.071 -51.915  1.00  0.00     0.029 A 
ENDBRANCH  13  16
ENDBRANCH  10  12
BRANCH   1  22
HETATM   22  C   UNL     1     -43.659  57.548 -54.121  1.00  0.00     0.015 A 
HETATM   23  C   UNL     1     -42.709  58.334 -54.760  1.00  0.00     0.036 A 
HETATM   24  C   UNL     1     -41.674  59.251 -54.215  1.00  0.00     0.070 C 
HETATM   25  N   UNL     1     -42.860  58.087 -56.103  1.00  0.00    -0.278 N 
HETATM   26  C   UNL     1     -42.063  58.595 -57.196  1.00  0.00     0.179 C 
HETATM   27  N   UNL     1     -43.891  57.269 -56.381  1.00  0.00    -0.185 NA
HETATM   28  C   UNL     1     -44.350  56.914 -55.183  1.00  0.00     0.150 A 
ENDBRANCH   1  22
TORSDOF 3
ENDMDL
MODEL 5
REMARK VINA RESULT:      -7.6      1.915      4.374
REMARK  3 active torsions:
REMARK  status: ('A' for Active; 'I' for Inactive)
REMARK    1  A    between atoms: C_7  and  C_8 
REMARK    2  A    between atoms: C_17  and  C_18 
REMARK       I    between atoms: C_18  and  N_19 
REMARK    3  A    between atoms: N_19  and  C_20 
ROOT
HETATM    1  C   UNL     1     -41.663  57.457 -54.798  1.00  0.00     0.206 C 
HETATM    2  N   UNL     1     -42.513  58.332 -55.613  1.00  0.00    -0.084 N 
HETATM    3  C   UNL     1     -43.608  57.900 -56.312  1.00  0.00     0.725 A 
HETATM    4  N   UNL     1     -44.160  58.913 -56.928  1.00  0.00    -0.054 NA
HETATM    5  C   UNL     1     -43.333  59.956 -56.597  1.00  0.00     0.275 A 
HETATM    6  N   UNL     1     -42.295  59.650 -55.811  1.00  0.00    -0.149 NA
HETATM    7  N   UNL     1     -43.919  56.589 -56.307  1.00  0.00    -0.192 N 
HETATM    8  C   UNL     1     -43.075  55.616 -55.778  1.00  0.00     0.037 C 
HETATM    9  C   UNL     1     -43.409  54.194 -56.156  1.00  0.00     0.070 C 
HETATM   10  C   UNL     1     -41.998  55.992 -55.043  1.00  0.00     0.063 C 
HETATM   11  H   UNL     1     -44.662  56.279 -56.928  1.00  0.00     0.184 HD
ENDROOT
BRANCH  10  12
HETATM   12  C   UNL     1     -40.979  55.046 -54.514  1.00  0.00     0.256 C 
HETATM   13  N   UNL     1     -41.465  54.196 -53.545  1.00  0.00    -0.323 N 
HETATM   14  H   UNL     1     -42.425  54.329 -53.253  1.00  0.00     0.169 HD
HETATM   15  O   UNL     1     -39.834  55.118 -54.942  1.00  0.00    -0.267 OA
BRANCH  13  16
HETATM   16  C   UNL     1     -40.783  53.121 -52.934  1.00  0.00     0.035 A 
HETATM   17  C   UNL     1     -40.233  52.045 -53.634  1.00  0.00     0.029 A 
HETATM   18  C   UNL     1     -39.599  51.003 -52.948  1.00  0.00     0.002 A 
HETATM   19  C   UNL     1     -39.516  51.024 -51.559  1.00  0.00     0.000 A 
HETATM   20  C   UNL     1     -40.060  52.092 -50.851  1.00  0.00     0.002 A 
HETATM   21  C   UNL     1     -40.685  53.138 -51.536  1.00  0.00     0.029 A 
ENDBRANCH  13  16
ENDBRANCH  10  12
BRANCH   1  22
HETATM   22  C   UNL     1     -41.820  57.823 -53.344  1.00  0.00     0.015 A 
HETATM   23  C   UNL     1     -40.904  58.431 -52.494  1.00  0.00     0.036 A 
HETATM   24  C   UNL     1     -39.513  58.895 -52.732  1.00  0.00     0.070 C 
HETATM   25  N   UNL     1     -41.553  58.585 -51.294  1.00  0.00    -0.278 N 
HETATM   26  C   UNL     1     -41.067  59.234 -50.098  1.00  0.00     0.179 C 
HETATM   27  N   UNL     1     -42.785  58.044 -51.281  1.00  0.00    -0.185 NA
HETATM   28  C   UNL     1     -42.961  57.617 -52.529  1.00  0.00     0.150 A 
ENDBRANCH   1  22
TORSDOF 3
ENDMDL
MODEL 6
REMARK VINA RESULT:      -7.5      1.994      5.369
REMARK  3 active torsions:
REMARK  status: ('A' for Active; 'I' for Inactive)
REMARK    1  A    between atoms: C_7  and  C_8 
REMARK    2  A    between atoms: C_17  and  C_18 
REMARK       I    between atoms: C_18  and  N_19 
REMARK    3  A    between atoms: N_19  and  C_20 
ROOT
HETATM    1  C   UNL     1     -41.534  57.716 -53.078  1.00  0.00     0.206 C 
HETATM    2  N   UNL     1     -41.143  58.590 -51.966  1.00  0.00    -0.084 N 
HETATM    3  C   UNL     1     -42.013  59.399 -51.287  1.00  0.00     0.725 A 
HETATM    4  N   UNL     1     -41.369  60.044 -50.349  1.00  0.00    -0.054 NA
HETATM    5  C   UNL     1     -40.077  59.615 -50.520  1.00  0.00     0.275 A 
HETATM    6  N   UNL     1     -39.880  58.739 -51.512  1.00  0.00    -0.149 NA
HETATM    7  N   UNL     1     -43.304  59.451 -51.671  1.00  0.00    -0.192 N 
HETATM    8  C   UNL     1     -43.764  58.864 -52.847  1.00  0.00     0.037 C 
HETATM    9  C   UNL     1     -45.137  59.301 -53.295  1.00  0.00     0.070 C 
HETATM   10  C   UNL     1     -42.954  58.022 -53.536  1.00  0.00     0.063 C 
HETATM   11  H   UNL     1     -43.900  60.146 -51.229  1.00  0.00     0.184 HD
ENDROOT
BRANCH  10  12
HETATM   12  C   UNL     1     -43.303  57.417 -54.850  1.00  0.00     0.256 C 
HETATM   13  N   UNL     1     -42.539  57.885 -55.895  1.00  0.00    -0.323 N 
HETATM   14  H   UNL     1     -41.871  58.617 -55.687  1.00  0.00     0.169 HD
HETATM   15  O   UNL     1     -44.222  56.608 -54.896  1.00  0.00    -0.267 OA
BRANCH  13  16
HETATM   16  C   UNL     1     -42.550  57.431 -57.231  1.00  0.00     0.035 A 
HETATM   17  C   UNL     1     -43.012  56.173 -57.625  1.00  0.00     0.029 A 
HETATM   18  C   UNL     1     -42.960  55.787 -58.969  1.00  0.00     0.002 A 
HETATM   19  C   UNL     1     -42.441  56.651 -59.928  1.00  0.00     0.000 A 
HETATM   20  C   UNL     1     -41.978  57.908 -59.548  1.00  0.00     0.002 A 
HETATM   21  C   UNL     1     -42.038  58.298 -58.207  1.00  0.00     0.029 A 
ENDBRANCH  13  16
ENDBRANCH  10  12
BRANCH   1  22
HETATM   22  C   UNL     1     -41.390  56.276 -52.654  1.00  0.00     0.015 A 
HETATM   23  C   UNL     1     -40.888  55.201 -53.377  1.00  0.00     0.036 A 
HETATM   24  C   UNL     1     -40.354  55.121 -54.761  1.00  0.00     0.070 C 
HETATM   25  N   UNL     1     -40.929  54.125 -52.524  1.00  0.00    -0.278 N 
HETATM   26  C   UNL     1     -40.448  52.784 -52.762  1.00  0.00     0.179 C 
HETATM   27  N   UNL     1     -41.500  54.406 -51.339  1.00  0.00    -0.185 NA
HETATM   28  C   UNL     1     -41.744  55.713 -51.403  1.00  0.00     0.150 A 
ENDBRANCH   1  22
TORSDOF 3
ENDMDL
MODEL 7
REMARK VINA RESULT:      -7.4      2.209      5.648
REMARK  3 active torsions:
REMARK  status: ('A' for Active; 'I' for Inactive)
REMARK    1  A    between atoms: C_7  and  C_8 
REMARK    2  A    between atoms: C_17  and  C_18 
REMARK       I    between atoms: C_18  and  N_19 
REMARK    3  A    between atoms: N_19  and  C_20 
ROOT
HETATM    1  C   UNL     1     -43.074  55.370 -53.074  1.00  0.00     0.206 C 
HETATM    2  N   UNL     1     -42.436  55.023 -51.798  1.00  0.00    -0.084 N 
HETATM    3  C   UNL     1     -41.159  54.543 -51.688  1.00  0.00     0.725 A 
HETATM    4  N   UNL     1     -40.876  54.340 -50.428  1.00  0.00    -0.054 NA
HETATM    5  C   UNL     1     -42.044  54.685 -49.796  1.00  0.00     0.275 A 
HETATM    6  N   UNL     1     -43.040  55.090 -50.592  1.00  0.00    -0.149 NA
HETATM    7  N   UNL     1     -40.439  54.320 -52.805  1.00  0.00    -0.192 N 
HETATM    8  C   UNL     1     -40.991  54.376 -54.082  1.00  0.00     0.037 C 
HETATM    9  C   UNL     1     -40.149  53.774 -55.180  1.00  0.00     0.070 C 
HETATM   10  C   UNL     1     -42.239  54.882 -54.250  1.00  0.00     0.063 C 
HETATM   11  H   UNL     1     -39.542  53.852 -52.702  1.00  0.00     0.184 HD
ENDROOT
BRANCH  10  12
HETATM   12  C   UNL     1     -42.963  54.901 -55.549  1.00  0.00     0.256 C 
HETATM   13  N   UNL     1     -42.815  56.079 -56.247  1.00  0.00    -0.323 N 
HETATM   14  H   UNL     1     -42.290  56.819 -55.797  1.00  0.00     0.169 HD
HETATM   15  O   UNL     1     -43.627  53.922 -55.864  1.00  0.00    -0.267 OA
BRANCH  13  16
HETATM   16  C   UNL     1     -43.280  56.365 -57.549  1.00  0.00     0.035 A 
HETATM   17  C   UNL     1     -42.907  55.647 -58.687  1.00  0.00     0.029 A 
HETATM   18  C   UNL     1     -43.390  56.014 -59.947  1.00  0.00     0.002 A 
HETATM   19  C   UNL     1     -44.246  57.104 -60.081  1.00  0.00     0.000 A 
HETATM   20  C   UNL     1     -44.626  57.826 -58.954  1.00  0.00     0.002 A 
HETATM   21  C   UNL     1     -44.150  57.454 -57.693  1.00  0.00     0.029 A 
ENDBRANCH  13  16
ENDBRANCH  10  12
BRANCH   1  22
HETATM   22  C   UNL     1     -43.293  56.860 -53.133  1.00  0.00     0.015 A 
HETATM   23  C   UNL     1     -42.349  57.878 -53.166  1.00  0.00     0.036 A 
HETATM   24  C   UNL     1     -40.864  57.833 -53.144  1.00  0.00     0.070 C 
HETATM   25  N   UNL     1     -43.063  59.047 -53.266  1.00  0.00    -0.278 N 
HETATM   26  C   UNL     1     -42.552  60.391 -53.412  1.00  0.00     0.179 C 
HETATM   27  N   UNL     1     -44.395  58.864 -53.212  1.00  0.00    -0.185 NA
HETATM   28  C   UNL     1     -44.535  57.541 -53.170  1.00  0.00     0.150 A 
ENDBRANCH   1  22
TORSDOF 3
ENDMDL
MODEL 8
REMARK VINA RESULT:      -7.4      1.837      2.056
REMARK  3 active torsions:
REMARK  status: ('A' for Active; 'I' for Inactive)
REMARK    1  A    between atoms: C_7  and  C_8 
REMARK    2  A    between atoms: C_17  and  C_18 
REMARK       I    between atoms: C_18  and  N_19 
REMARK    3  A    between atoms: N_19  and  C_20 
ROOT
HETATM    1  C   UNL     1     -43.503  57.858 -52.441  1.00  0.00     0.206 C 
HETATM    2  N   UNL     1     -44.270  58.762 -51.576  1.00  0.00    -0.084 N 
HETATM    3  C   UNL     1     -43.703  59.699 -50.754  1.00  0.00     0.725 A 
HETATM    4  N   UNL     1     -44.644  60.352 -50.122  1.00  0.00    -0.054 NA
HETATM    5  C   UNL     1     -45.789  59.745 -50.573  1.00  0.00     0.275 A 
HETATM    6  N   UNL     1     -45.615  58.749 -51.449  1.00  0.00    -0.149 NA
HETATM    7  N   UNL     1     -42.361  59.786 -50.680  1.00  0.00    -0.192 N 
HETATM    8  C   UNL     1     -41.511  58.845 -51.256  1.00  0.00     0.037 C 
HETATM    9  C   UNL     1     -40.076  58.899 -50.795  1.00  0.00     0.070 C 
HETATM   10  C   UNL     1     -42.018  57.920 -52.109  1.00  0.00     0.063 C 
HETATM   11  H   UNL     1     -41.967  60.405 -49.975  1.00  0.00     0.184 HD
ENDROOT
BRANCH  10  12
HETATM   12  C   UNL     1     -41.224  56.811 -52.706  1.00  0.00     0.256 C 
HETATM   13  N   UNL     1     -41.414  55.598 -52.081  1.00  0.00    -0.323 N 
HETATM   14  H   UNL     1     -42.012  55.588 -51.264  1.00  0.00     0.169 HD
HETATM   15  O   UNL     1     -40.478  57.063 -53.643  1.00  0.00    -0.267 OA
BRANCH  13  16
HETATM   16  C   UNL     1     -40.896  54.346 -52.475  1.00  0.00     0.035 A 
HETATM   17  C   UNL     1     -40.997  53.830 -53.769  1.00  0.00     0.029 A 
HETATM   18  C   UNL     1     -40.484  52.565 -54.071  1.00  0.00     0.002 A 
HETATM   19  C   UNL     1     -39.870  51.802 -53.082  1.00  0.00     0.000 A 
HETATM   20  C   UNL     1     -39.763  52.305 -51.789  1.00  0.00     0.002 A 
HETATM   21  C   UNL     1     -40.268  53.574 -51.488  1.00  0.00     0.029 A 
ENDBRANCH  13  16
ENDBRANCH  10  12
BRANCH   1  22
HETATM   22  C   UNL     1     -43.761  58.211 -53.883  1.00  0.00     0.015 A 
HETATM   23  C   UNL     1     -43.899  57.364 -54.976  1.00  0.00     0.036 A 
HETATM   24  C   UNL     1     -43.829  55.883 -55.077  1.00  0.00     0.070 C 
HETATM   25  N   UNL     1     -44.170  58.178 -56.049  1.00  0.00    -0.278 N 
HETATM   26  C   UNL     1     -44.474  57.788 -57.406  1.00  0.00     0.179 C 
HETATM   27  N   UNL     1     -44.131  59.488 -55.746  1.00  0.00    -0.185 NA
HETATM   28  C   UNL     1     -43.921  59.507 -54.432  1.00  0.00     0.150 A 
ENDBRANCH   1  22
TORSDOF 3
ENDMDL
MODEL 9
REMARK VINA RESULT:      -7.3      2.097      4.941
REMARK  3 active torsions:
REMARK  status: ('A' for Active; 'I' for Inactive)
REMARK    1  A    between atoms: C_7  and  C_8 
REMARK    2  A    between atoms: C_17  and  C_18 
REMARK       I    between atoms: C_18  and  N_19 
REMARK    3  A    between atoms: N_19  and  C_20 
ROOT
HETATM    1  C   UNL     1     -41.882  57.611 -55.450  1.00  0.00     0.206 C 
HETATM    2  N   UNL     1     -42.543  58.054 -56.683  1.00  0.00    -0.084 N 
HETATM    3  C   UNL     1     -43.449  57.299 -57.378  1.00  0.00     0.725 A 
HETATM    4  N   UNL     1     -43.866  57.968 -58.422  1.00  0.00    -0.054 NA
HETATM    5  C   UNL     1     -43.147  59.134 -58.340  1.00  0.00     0.275 A 
HETATM    6  N   UNL     1     -42.305  59.229 -57.305  1.00  0.00    -0.149 NA
HETATM    7  N   UNL     1     -43.734  56.052 -56.953  1.00  0.00    -0.192 N 
HETATM    8  C   UNL     1     -43.015  55.417 -55.945  1.00  0.00     0.037 C 
HETATM    9  C   UNL     1     -43.235  53.929 -55.831  1.00  0.00     0.070 C 
HETATM   10  C   UNL     1     -42.133  56.130 -55.200  1.00  0.00     0.063 C 
HETATM   11  H   UNL     1     -44.316  55.472 -57.552  1.00  0.00     0.184 HD
ENDROOT
BRANCH  10  12
HETATM   12  C   UNL     1     -41.243  55.537 -54.165  1.00  0.00     0.256 C 
HETATM   13  N   UNL     1     -41.841  55.406 -52.931  1.00  0.00    -0.323 N 
HETATM   14  H   UNL     1     -42.781  55.769 -52.833  1.00  0.00     0.169 HD
HETATM   15  O   UNL     1     -40.093  55.253 -54.475  1.00  0.00    -0.267 OA
BRANCH  13  16
HETATM   16  C   UNL     1     -41.303  54.783 -51.785  1.00  0.00     0.035 A 
HETATM   17  C   UNL     1     -40.981  55.460 -50.606  1.00  0.00     0.029 A 
HETATM   18  C   UNL     1     -40.422  54.772 -49.524  1.00  0.00     0.002 A 
HETATM   19  C   UNL     1     -40.174  53.405 -49.612  1.00  0.00     0.000 A 
HETATM   20  C   UNL     1     -40.491  52.721 -50.782  1.00  0.00     0.002 A 
HETATM   21  C   UNL     1     -41.058  53.405 -51.861  1.00  0.00     0.029 A 
ENDBRANCH  13  16
ENDBRANCH  10  12
BRANCH   1  22
HETATM   22  C   UNL     1     -42.363  58.454 -54.297  1.00  0.00     0.015 A 
HETATM   23  C   UNL     1     -41.635  58.975 -53.234  1.00  0.00     0.036 A 
HETATM   24  C   UNL     1     -40.193  58.866 -52.894  1.00  0.00     0.070 C 
HETATM   25  N   UNL     1     -42.529  59.706 -52.490  1.00  0.00    -0.278 N 
HETATM   26  C   UNL     1     -42.262  60.513 -51.322  1.00  0.00     0.179 C 
HETATM   27  N   UNL     1     -43.793  59.624 -52.945  1.00  0.00    -0.185 NA
HETATM   28  C   UNL     1     -43.687  58.899 -54.056  1.00  0.00     0.150 A 
ENDBRANCH   1  22
TORSDOF 3
ENDMDL
MODEL 10
REMARK VINA RESULT:      -7.2      2.149      2.872
REMARK  3 active torsions:
REMARK  status: ('A' for Active; 'I' for Inactive)
REMARK    1  A    between atoms: C_7  and  C_8 
REMARK    2  A    between atoms: C_17  and  C_18 
REMARK       I    between atoms: C_18  and  N_19 
REMARK    3  A    between atoms: N_19  and  C_20 
ROOT
HETATM    1  C   UNL     1     -43.577  59.285 -53.109  1.00  0.00     0.206 C 
HETATM    2  N   UNL     1     -43.791  60.610 -52.516  1.00  0.00    -0.084 N 
HETATM    3  C   UNL     1     -43.025  61.130 -51.508  1.00  0.00     0.725 A 
HETATM    4  N   UNL     1     -43.456  62.327 -51.205  1.00  0.00    -0.054 NA
HETATM    5  C   UNL     1     -44.529  62.485 -52.046  1.00  0.00     0.275 A 
HETATM    6  N   UNL     1     -44.791  61.452 -52.856  1.00  0.00    -0.149 NA
HETATM    7  N   UNL     1     -42.038  60.383 -50.977  1.00  0.00    -0.192 N 
HETATM    8  C   UNL     1     -41.872  59.033 -51.272  1.00  0.00     0.037 C 
HETATM    9  C   UNL     1     -40.951  58.275 -50.347  1.00  0.00     0.070 C 
HETATM   10  C   UNL     1     -42.579  58.478 -52.289  1.00  0.00     0.063 C 
HETATM   11  H   UNL     1     -41.564  60.745 -50.152  1.00  0.00     0.184 HD
ENDROOT
BRANCH  10  12
HETATM   12  C   UNL     1     -42.554  57.030 -52.629  1.00  0.00     0.256 C 
HETATM   13  N   UNL     1     -41.352  56.604 -53.148  1.00  0.00    -0.323 N 
HETATM   14  H   UNL     1     -40.639  57.308 -53.299  1.00  0.00     0.169 HD
HETATM   15  O   UNL     1     -43.571  56.370 -52.455  1.00  0.00    -0.267 OA
BRANCH  13  16
HETATM   16  C   UNL     1     -40.979  55.280 -53.462  1.00  0.00     0.035 A 
HETATM   17  C   UNL     1     -40.905  54.246 -52.526  1.00  0.00     0.029 A 
HETATM   18  C   UNL     1     -40.496  52.966 -52.913  1.00  0.00     0.002 A 
HETATM   19  C   UNL     1     -40.152  52.709 -54.238  1.00  0.00     0.000 A 
HETATM   20  C   UNL     1     -40.223  53.732 -55.180  1.00  0.00     0.002 A 
HETATM   21  C   UNL     1     -40.640  55.009 -54.795  1.00  0.00     0.029 A 
ENDBRANCH  13  16
ENDBRANCH  10  12
BRANCH   1  22
HETATM   22  C   UNL     1     -43.117  59.445 -54.535  1.00  0.00     0.015 A 
HETATM   23  C   UNL     1     -43.627  58.859 -55.687  1.00  0.00     0.036 A 
HETATM   24  C   UNL     1     -44.751  57.907 -55.880  1.00  0.00     0.070 C 
HETATM   25  N   UNL     1     -42.887  59.369 -56.725  1.00  0.00    -0.278 N 
HETATM   26  C   UNL     1     -43.066  59.139 -58.140  1.00  0.00     0.179 C 
HETATM   27  N   UNL     1     -41.885  60.171 -56.322  1.00  0.00    -0.185 NA
HETATM   28  C   UNL     1     -42.046  60.247 -55.003  1.00  0.00     0.150 A 
ENDBRANCH   1  22
TORSDOF 3
ENDMDL
