MODEL 1
REMARK VINA RESULT:      -7.3      0.000      0.000
REMARK  4 active torsions:
REMARK  status: ('A' for Active; 'I' for Inactive)
REMARK    1  A    between atoms: S_2  and  N_3 
REMARK    2  A    between atoms: N_3  and  N_4 
REMARK    3  A    between atoms: C_10  and  C_11 
REMARK    4  A    between atoms: C_12  and  O_13 
ROOT
HETATM    1  N   UNL     1     -41.154  54.987 -53.563  1.00  0.00    -0.224 N 
HETATM    2  C   UNL     1     -40.512  53.815 -53.957  1.00  0.00     0.276 C 
HETATM    3  O   UNL     1     -40.170  53.538 -55.101  1.00  0.00    -0.266 OA
HETATM    4  C   UNL     1     -40.239  52.856 -52.858  1.00  0.00     0.055 A 
HETATM    5  C   UNL     1     -40.671  53.171 -51.561  1.00  0.00     0.026 A 
HETATM    6  N   UNL     1     -41.371  54.366 -51.288  1.00  0.00    -0.265 NA
HETATM    7  C   UNL     1     -40.993  55.456 -52.194  1.00  0.00     0.224 C 
HETATM    8  C   UNL     1     -39.602  51.639 -53.129  1.00  0.00     0.019 A 
HETATM    9  C   UNL     1     -39.420  50.711 -52.106  1.00  0.00     0.001 A 
HETATM   10  C   UNL     1     -39.890  50.991 -50.824  1.00  0.00     0.002 A 
HETATM   11  C   UNL     1     -40.527  52.207 -50.557  1.00  0.00     0.024 A 
HETATM   12  H   UNL     1     -41.257  54.639 -50.313  1.00  0.00     0.130 HD
ENDROOT
BRANCH   7  13
HETATM   13  C   UNL     1     -41.821  56.679 -51.840  1.00  0.00     0.014 A 
HETATM   14  C   UNL     1     -43.211  56.625 -51.656  1.00  0.00     0.075 A 
HETATM   15  C   UNL     1     -43.950  57.778 -51.397  1.00  0.00     0.037 A 
HETATM   16  C   UNL     1     -43.309  59.010 -51.313  1.00  0.00     0.003 A 
HETATM   17  C   UNL     1     -41.930  59.090 -51.491  1.00  0.00     0.001 A 
HETATM   18  C   UNL     1     -41.191  57.935 -51.755  1.00  0.00     0.013 A 
BRANCH  14  19
HETATM   19  O   UNL     1     -43.915  55.456 -51.728  1.00  0.00    -0.360 OA
HETATM   20  H   UNL     1     -43.924  55.034 -50.842  1.00  0.00     0.217 HD
ENDBRANCH  14  19
ENDBRANCH   7  13
BRANCH   1  21
HETATM   21  N   UNL     1     -41.644  55.958 -54.578  1.00  0.00    -0.220 N 
HETATM   22  H   UNL     1     -41.493  56.949 -54.379  1.00  0.00     0.200 HD
BRANCH  21  23
HETATM   23  S   UNL     1     -43.120  55.636 -55.379  1.00  0.00     0.240 S 
HETATM   24  C   UNL     1     -43.879  57.240 -55.267  1.00  0.00     0.187 C 
HETATM   25  O   UNL     1     -43.917  54.745 -54.564  1.00  0.00    -0.205 OA
HETATM   26  O   UNL     1     -42.849  55.402 -56.780  1.00  0.00    -0.205 OA
ENDBRANCH  21  23
ENDBRANCH   1  21
TORSDOF 4
ENDMDL
MODEL 2
REMARK VINA RESULT:      -7.2      3.085      6.070
REMARK  4 active torsions:
REMARK  status: ('A' for Active; 'I' for Inactive)
REMARK    1  A    between atoms: S_2  and  N_3 
REMARK    2  A    between atoms: N_3  and  N_4 
REMARK    3  A    between atoms: C_10  and  C_11 
REMARK    4  A    between atoms: C_12  and  O_13 
ROOT
HETATM    1  N   UNL     1     -42.296  57.056 -55.779  1.00  0.00    -0.224 N 
HETATM    2  C   UNL     1     -42.439  57.791 -56.954  1.00  0.00     0.276 C 
HETATM    3  O   UNL     1     -42.176  58.980 -57.090  1.00  0.00    -0.266 OA
HETATM    4  C   UNL     1     -42.955  57.018 -58.111  1.00  0.00     0.055 A 
HETATM    5  C   UNL     1     -43.288  55.667 -57.929  1.00  0.00     0.026 A 
HETATM    6  N   UNL     1     -43.159  55.040 -56.671  1.00  0.00    -0.265 NA
HETATM    7  C   UNL     1     -42.081  55.619 -55.864  1.00  0.00     0.224 C 
HETATM    8  C   UNL     1     -43.146  57.646 -59.348  1.00  0.00     0.019 A 
HETATM    9  C   UNL     1     -43.703  56.933 -60.406  1.00  0.00     0.001 A 
HETATM   10  C   UNL     1     -44.086  55.605 -60.224  1.00  0.00     0.002 A 
HETATM   11  C   UNL     1     -43.894  54.980 -58.988  1.00  0.00     0.024 A 
HETATM   12  H   UNL     1     -43.043  54.033 -56.777  1.00  0.00     0.130 HD
ENDROOT
BRANCH   7  13
HETATM   13  C   UNL     1     -42.048  54.902 -54.526  1.00  0.00     0.014 A 
HETATM   14  C   UNL     1     -43.201  54.676 -53.759  1.00  0.00     0.075 A 
HETATM   15  C   UNL     1     -43.127  54.074 -52.505  1.00  0.00     0.037 A 
HETATM   16  C   UNL     1     -41.894  53.679 -51.995  1.00  0.00     0.003 A 
HETATM   17  C   UNL     1     -40.735  53.890 -52.737  1.00  0.00     0.001 A 
HETATM   18  C   UNL     1     -40.809  54.499 -53.992  1.00  0.00     0.013 A 
BRANCH  14  19
HETATM   19  O   UNL     1     -44.448  55.039 -54.185  1.00  0.00    -0.360 OA
HETATM   20  H   UNL     1     -44.437  55.988 -54.432  1.00  0.00     0.217 HD
ENDBRANCH  14  19
ENDBRANCH   7  13
BRANCH   1  21
HETATM   21  N   UNL     1     -41.957  57.737 -54.499  1.00  0.00    -0.220 N 
HETATM   22  H   UNL     1     -41.263  57.280 -53.904  1.00  0.00     0.200 HD
BRANCH  21  23
HETATM   23  S   UNL     1     -43.202  58.518 -53.628  1.00  0.00     0.240 S 
HETATM   24  C   UNL     1     -42.850  57.914 -51.993  1.00  0.00     0.187 C 
HETATM   25  O   UNL     1     -44.477  57.951 -54.011  1.00  0.00    -0.205 OA
HETATM   26  O   UNL     1     -42.940  59.940 -53.610  1.00  0.00    -0.205 OA
ENDBRANCH  21  23
ENDBRANCH   1  21
TORSDOF 4
ENDMDL
MODEL 3
REMARK VINA RESULT:      -7.2      2.171      3.928
REMARK  4 active torsions:
REMARK  status: ('A' for Active; 'I' for Inactive)
REMARK    1  A    between atoms: S_2  and  N_3 
REMARK    2  A    between atoms: N_3  and  N_4 
REMARK    3  A    between atoms: C_10  and  C_11 
REMARK    4  A    between atoms: C_12  and  O_13 
ROOT
HETATM    1  N   UNL     1     -40.936  54.059 -52.362  1.00  0.00    -0.224 N 
HETATM    2  C   UNL     1     -40.284  53.063 -51.638  1.00  0.00     0.276 C 
HETATM    3  O   UNL     1     -39.886  53.163 -50.483  1.00  0.00    -0.266 OA
HETATM    4  C   UNL     1     -40.083  51.790 -52.374  1.00  0.00     0.055 A 
HETATM    5  C   UNL     1     -40.510  51.704 -53.708  1.00  0.00     0.026 A 
HETATM    6  N   UNL     1     -41.106  52.804 -54.362  1.00  0.00    -0.265 NA
HETATM    7  C   UNL     1     -41.838  53.676 -53.439  1.00  0.00     0.224 C 
HETATM    8  C   UNL     1     -39.436  50.714 -51.754  1.00  0.00     0.019 A 
HETATM    9  C   UNL     1     -39.182  49.551 -52.477  1.00  0.00     0.001 A 
HETATM   10  C   UNL     1     -39.555  49.472 -53.818  1.00  0.00     0.002 A 
HETATM   11  C   UNL     1     -40.201  50.548 -54.434  1.00  0.00     0.024 A 
HETATM   12  H   UNL     1     -41.702  52.491 -55.128  1.00  0.00     0.130 HD
ENDROOT
BRANCH   7  13
HETATM   13  C   UNL     1     -42.409  54.838 -54.232  1.00  0.00     0.014 A 
HETATM   14  C   UNL     1     -41.644  55.582 -55.144  1.00  0.00     0.075 A 
HETATM   15  C   UNL     1     -42.181  56.683 -55.806  1.00  0.00     0.037 A 
HETATM   16  C   UNL     1     -43.501  57.061 -55.572  1.00  0.00     0.003 A 
HETATM   17  C   UNL     1     -44.281  56.338 -54.673  1.00  0.00     0.001 A 
HETATM   18  C   UNL     1     -43.740  55.237 -54.005  1.00  0.00     0.013 A 
BRANCH  14  19
HETATM   19  O   UNL     1     -40.342  55.280 -55.425  1.00  0.00    -0.360 OA
HETATM   20  H   UNL     1     -39.829  55.267 -54.589  1.00  0.00     0.217 HD
ENDBRANCH  14  19
ENDBRANCH   7  13
BRANCH   1  21
HETATM   21  N   UNL     1     -41.051  55.438 -51.815  1.00  0.00    -0.220 N 
HETATM   22  H   UNL     1     -40.189  55.985 -51.758  1.00  0.00     0.200 HD
BRANCH  21  23
HETATM   23  S   UNL     1     -42.131  55.722 -50.521  1.00  0.00     0.240 S 
HETATM   24  C   UNL     1     -42.864  57.245 -51.070  1.00  0.00     0.187 C 
HETATM   25  O   UNL     1     -41.372  56.035 -49.329  1.00  0.00    -0.205 OA
HETATM   26  O   UNL     1     -43.175  54.722 -50.556  1.00  0.00    -0.205 OA
ENDBRANCH  21  23
ENDBRANCH   1  21
TORSDOF 4
ENDMDL
MODEL 4
REMARK VINA RESULT:      -7.1      3.055      4.300
REMARK  4 active torsions:
REMARK  status: ('A' for Active; 'I' for Inactive)
REMARK    1  A    between atoms: S_2  and  N_3 
REMARK    2  A    between atoms: N_3  and  N_4 
REMARK    3  A    between atoms: C_10  and  C_11 
REMARK    4  A    between atoms: C_12  and  O_13 
ROOT
HETATM    1  N   UNL     1     -42.254  57.054 -51.347  1.00  0.00    -0.224 N 
HETATM    2  C   UNL     1     -41.375  55.983 -51.197  1.00  0.00     0.276 C 
HETATM    3  O   UNL     1     -40.564  55.846 -50.288  1.00  0.00    -0.266 OA
HETATM    4  C   UNL     1     -41.473  54.946 -52.253  1.00  0.00     0.055 A 
HETATM    5  C   UNL     1     -42.380  55.136 -53.307  1.00  0.00     0.026 A 
HETATM    6  N   UNL     1     -43.180  56.295 -53.389  1.00  0.00    -0.265 NA
HETATM    7  C   UNL     1     -43.501  56.849 -52.071  1.00  0.00     0.224 C 
HETATM    8  C   UNL     1     -40.639  53.822 -52.215  1.00  0.00     0.019 A 
HETATM    9  C   UNL     1     -40.683  52.893 -53.252  1.00  0.00     0.001 A 
HETATM   10  C   UNL     1     -41.542  53.097 -54.330  1.00  0.00     0.002 A 
HETATM   11  C   UNL     1     -42.374  54.219 -54.366  1.00  0.00     0.024 A 
HETATM   12  H   UNL     1     -44.025  56.116 -53.931  1.00  0.00     0.130 HD
ENDROOT
BRANCH   7  13
HETATM   13  C   UNL     1     -44.332  58.105 -52.269  1.00  0.00     0.014 A 
HETATM   14  C   UNL     1     -45.192  58.608 -51.281  1.00  0.00     0.075 A 
HETATM   15  C   UNL     1     -45.990  59.725 -51.520  1.00  0.00     0.037 A 
HETATM   16  C   UNL     1     -45.938  60.365 -52.755  1.00  0.00     0.003 A 
HETATM   17  C   UNL     1     -45.092  59.886 -53.751  1.00  0.00     0.001 A 
HETATM   18  C   UNL     1     -44.296  58.763 -53.513  1.00  0.00     0.013 A 
BRANCH  14  19
HETATM   19  O   UNL     1     -45.305  58.035 -50.046  1.00  0.00    -0.360 OA
HETATM   20  H   UNL     1     -46.223  57.710 -49.927  1.00  0.00     0.217 HD
ENDBRANCH  14  19
ENDBRANCH   7  13
BRANCH   1  21
HETATM   21  N   UNL     1     -42.149  58.247 -50.463  1.00  0.00    -0.220 N 
HETATM   22  H   UNL     1     -42.997  58.531 -49.970  1.00  0.00     0.200 HD
BRANCH  21  23
HETATM   23  S   UNL     1     -41.175  59.558 -50.966  1.00  0.00     0.240 S 
HETATM   24  C   UNL     1     -42.290  60.904 -50.640  1.00  0.00     0.187 C 
HETATM   25  O   UNL     1     -41.005  59.501 -52.402  1.00  0.00    -0.205 OA
HETATM   26  O   UNL     1     -40.071  59.701 -50.042  1.00  0.00    -0.205 OA
ENDBRANCH  21  23
ENDBRANCH   1  21
TORSDOF 4
ENDMDL
MODEL 5
REMARK VINA RESULT:      -7.1      2.261      3.720
REMARK  4 active torsions:
REMARK  status: ('A' for Active; 'I' for Inactive)
REMARK    1  A    between atoms: S_2  and  N_3 
REMARK    2  A    between atoms: N_3  and  N_4 
REMARK    3  A    between atoms: C_10  and  C_11 
REMARK    4  A    between atoms: C_12  and  O_13 
ROOT
HETATM    1  N   UNL     1     -41.754  55.618 -52.516  1.00  0.00    -0.224 N 
HETATM    2  C   UNL     1     -41.133  54.729 -51.641  1.00  0.00     0.276 C 
HETATM    3  O   UNL     1     -40.969  54.905 -50.439  1.00  0.00    -0.266 OA
HETATM    4  C   UNL     1     -40.652  53.474 -52.269  1.00  0.00     0.055 A 
HETATM    5  C   UNL     1     -40.812  53.303 -53.653  1.00  0.00     0.026 A 
HETATM    6  N   UNL     1     -41.403  54.304 -54.453  1.00  0.00    -0.265 NA
HETATM    7  C   UNL     1     -42.390  55.100 -53.718  1.00  0.00     0.224 C 
HETATM    8  C   UNL     1     -40.008  52.501 -51.494  1.00  0.00     0.019 A 
HETATM    9  C   UNL     1     -39.489  51.362 -52.105  1.00  0.00     0.001 A 
HETATM   10  C   UNL     1     -39.597  51.205 -53.486  1.00  0.00     0.002 A 
HETATM   11  C   UNL     1     -40.241  52.178 -54.257  1.00  0.00     0.024 A 
HETATM   12  H   UNL     1     -41.807  53.902 -55.298  1.00  0.00     0.130 HD
ENDROOT
BRANCH   7  13
HETATM   13  C   UNL     1     -42.939  56.164 -54.654  1.00  0.00     0.014 A 
HETATM   14  C   UNL     1     -44.146  56.836 -54.412  1.00  0.00     0.075 A 
HETATM   15  C   UNL     1     -44.654  57.759 -55.323  1.00  0.00     0.037 A 
HETATM   16  C   UNL     1     -43.958  58.031 -56.498  1.00  0.00     0.003 A 
HETATM   17  C   UNL     1     -42.757  57.378 -56.761  1.00  0.00     0.001 A 
HETATM   18  C   UNL     1     -42.251  56.449 -55.849  1.00  0.00     0.013 A 
BRANCH  14  19
HETATM   19  O   UNL     1     -44.891  56.621 -53.286  1.00  0.00    -0.360 OA
HETATM   20  H   UNL     1     -45.599  55.973 -53.490  1.00  0.00     0.217 HD
ENDBRANCH  14  19
ENDBRANCH   7  13
BRANCH   1  21
HETATM   21  N   UNL     1     -42.129  56.986 -52.062  1.00  0.00    -0.220 N 
HETATM   22  H   UNL     1     -43.084  57.291 -52.260  1.00  0.00     0.200 HD
BRANCH  21  23
HETATM   23  S   UNL     1     -40.970  58.237 -52.178  1.00  0.00     0.240 S 
HETATM   24  C   UNL     1     -42.051  59.625 -52.432  1.00  0.00     0.187 C 
HETATM   25  O   UNL     1     -40.215  58.073 -53.401  1.00  0.00    -0.205 OA
HETATM   26  O   UNL     1     -40.353  58.423 -50.883  1.00  0.00    -0.205 OA
ENDBRANCH  21  23
ENDBRANCH   1  21
TORSDOF 4
ENDMDL
MODEL 6
REMARK VINA RESULT:      -6.8      2.859      4.926
REMARK  4 active torsions:
REMARK  status: ('A' for Active; 'I' for Inactive)
REMARK    1  A    between atoms: S_2  and  N_3 
REMARK    2  A    between atoms: N_3  and  N_4 
REMARK    3  A    between atoms: C_10  and  C_11 
REMARK    4  A    between atoms: C_12  and  O_13 
ROOT
HETATM    1  N   UNL     1     -42.502  57.116 -54.422  1.00  0.00    -0.224 N 
HETATM    2  C   UNL     1     -42.080  56.404 -53.301  1.00  0.00     0.276 C 
HETATM    3  O   UNL     1     -42.188  56.773 -52.137  1.00  0.00    -0.266 OA
HETATM    4  C   UNL     1     -41.455  55.091 -53.597  1.00  0.00     0.055 A 
HETATM    5  C   UNL     1     -41.303  54.700 -54.936  1.00  0.00     0.026 A 
HETATM    6  N   UNL     1     -41.714  55.535 -55.998  1.00  0.00    -0.265 NA
HETATM    7  C   UNL     1     -42.849  56.387 -55.634  1.00  0.00     0.224 C 
HETATM    8  C   UNL     1     -40.987  54.283 -52.554  1.00  0.00     0.019 A 
HETATM    9  C   UNL     1     -40.332  53.089 -52.844  1.00  0.00     0.001 A 
HETATM   10  C   UNL     1     -40.129  52.715 -54.172  1.00  0.00     0.002 A 
HETATM   11  C   UNL     1     -40.598  53.523 -55.212  1.00  0.00     0.024 A 
HETATM   12  H   UNL     1     -41.916  54.986 -56.833  1.00  0.00     0.130 HD
ENDROOT
BRANCH   7  13
HETATM   13  C   UNL     1     -43.190  57.264 -56.826  1.00  0.00     0.014 A 
HETATM   14  C   UNL     1     -44.470  57.803 -57.029  1.00  0.00     0.075 A 
HETATM   15  C   UNL     1     -44.766  58.549 -58.167  1.00  0.00     0.037 A 
HETATM   16  C   UNL     1     -43.783  58.776 -59.126  1.00  0.00     0.003 A 
HETATM   17  C   UNL     1     -42.505  58.253 -58.947  1.00  0.00     0.001 A 
HETATM   18  C   UNL     1     -42.210  57.500 -57.808  1.00  0.00     0.013 A 
BRANCH  14  19
HETATM   19  O   UNL     1     -45.491  57.622 -56.138  1.00  0.00    -0.360 OA
HETATM   20  H   UNL     1     -45.803  58.499 -55.828  1.00  0.00     0.217 HD
ENDBRANCH  14  19
ENDBRANCH   7  13
BRANCH   1  21
HETATM   21  N   UNL     1     -42.985  58.517 -54.289  1.00  0.00    -0.220 N 
HETATM   22  H   UNL     1     -43.887  58.736 -54.717  1.00  0.00     0.200 HD
BRANCH  21  23
HETATM   23  S   UNL     1     -41.850  59.791 -54.388  1.00  0.00     0.240 S 
HETATM   24  C   UNL     1     -42.691  61.020 -53.416  1.00  0.00     0.187 C 
HETATM   25  O   UNL     1     -41.815  60.292 -55.745  1.00  0.00    -0.205 OA
HETATM   26  O   UNL     1     -40.664  59.418 -53.649  1.00  0.00    -0.205 OA
ENDBRANCH  21  23
ENDBRANCH   1  21
TORSDOF 4
ENDMDL
MODEL 7
REMARK VINA RESULT:      -6.7      3.011      5.314
REMARK  4 active torsions:
REMARK  status: ('A' for Active; 'I' for Inactive)
REMARK    1  A    between atoms: S_2  and  N_3 
REMARK    2  A    between atoms: N_3  and  N_4 
REMARK    3  A    between atoms: C_10  and  C_11 
REMARK    4  A    between atoms: C_12  and  O_13 
ROOT
HETATM    1  N   UNL     1     -43.501  56.054 -55.407  1.00  0.00    -0.224 N 
HETATM    2  C   UNL     1     -43.404  55.468 -54.147  1.00  0.00     0.276 C 
HETATM    3  O   UNL     1     -44.172  55.656 -53.210  1.00  0.00    -0.266 OA
HETATM    4  C   UNL     1     -42.257  54.542 -53.979  1.00  0.00     0.055 A 
HETATM    5  C   UNL     1     -41.366  54.366 -55.048  1.00  0.00     0.026 A 
HETATM    6  N   UNL     1     -41.529  55.063 -56.264  1.00  0.00    -0.265 NA
HETATM    7  C   UNL     1     -42.935  55.361 -56.555  1.00  0.00     0.224 C 
HETATM    8  C   UNL     1     -42.050  53.893 -52.755  1.00  0.00     0.019 A 
HETATM    9  C   UNL     1     -40.928  53.088 -52.581  1.00  0.00     0.001 A 
HETATM   10  C   UNL     1     -40.008  52.946 -53.618  1.00  0.00     0.002 A 
HETATM   11  C   UNL     1     -40.217  53.594 -54.839  1.00  0.00     0.024 A 
HETATM   12  H   UNL     1     -41.090  54.559 -57.033  1.00  0.00     0.130 HD
ENDROOT
BRANCH   7  13
HETATM   13  C   UNL     1     -42.999  56.136 -57.860  1.00  0.00     0.014 A 
HETATM   14  C   UNL     1     -43.702  55.673 -58.982  1.00  0.00     0.075 A 
HETATM   15  C   UNL     1     -43.686  56.377 -60.184  1.00  0.00     0.037 A 
HETATM   16  C   UNL     1     -42.967  57.565 -60.285  1.00  0.00     0.003 A 
HETATM   17  C   UNL     1     -42.263  58.046 -59.185  1.00  0.00     0.001 A 
HETATM   18  C   UNL     1     -42.275  57.337 -57.981  1.00  0.00     0.013 A 
BRANCH  14  19
HETATM   19  O   UNL     1     -44.426  54.514 -58.967  1.00  0.00    -0.360 OA
HETATM   20  H   UNL     1     -45.360  54.719 -59.187  1.00  0.00     0.217 HD
ENDBRANCH  14  19
ENDBRANCH   7  13
BRANCH   1  21
HETATM   21  N   UNL     1     -44.495  57.131 -55.665  1.00  0.00    -0.220 N 
HETATM   22  H   UNL     1     -44.921  57.153 -56.594  1.00  0.00     0.200 HD
BRANCH  21  23
HETATM   23  S   UNL     1     -44.219  58.681 -54.999  1.00  0.00     0.240 S 
HETATM   24  C   UNL     1     -44.789  59.693 -56.346  1.00  0.00     0.187 C 
HETATM   25  O   UNL     1     -42.793  58.903 -54.891  1.00  0.00    -0.205 OA
HETATM   26  O   UNL     1     -45.140  58.890 -53.904  1.00  0.00    -0.205 OA
ENDBRANCH  21  23
ENDBRANCH   1  21
TORSDOF 4
ENDMDL
MODEL 8
REMARK VINA RESULT:      -6.6      3.090      5.495
REMARK  4 active torsions:
REMARK  status: ('A' for Active; 'I' for Inactive)
REMARK    1  A    between atoms: S_2  and  N_3 
REMARK    2  A    between atoms: N_3  and  N_4 
REMARK    3  A    between atoms: C_10  and  C_11 
REMARK    4  A    between atoms: C_12  and  O_13 
ROOT
HETATM    1  N   UNL     1     -43.551  56.160 -55.546  1.00  0.00    -0.224 N 
HETATM    2  C   UNL     1     -43.410  55.665 -54.251  1.00  0.00     0.276 C 
HETATM    3  O   UNL     1     -44.124  55.950 -53.296  1.00  0.00    -0.266 OA
HETATM    4  C   UNL     1     -42.286  54.714 -54.067  1.00  0.00     0.055 A 
HETATM    5  C   UNL     1     -41.455  54.429 -55.161  1.00  0.00     0.026 A 
HETATM    6  N   UNL     1     -41.656  55.040 -56.417  1.00  0.00    -0.265 NA
HETATM    7  C   UNL     1     -43.064  55.364 -56.664  1.00  0.00     0.224 C 
HETATM    8  C   UNL     1     -42.040  54.151 -52.809  1.00  0.00     0.019 A 
HETATM    9  C   UNL     1     -40.936  53.321 -52.628  1.00  0.00     0.001 A 
HETATM   10  C   UNL     1     -40.074  53.071 -53.693  1.00  0.00     0.002 A 
HETATM   11  C   UNL     1     -40.322  53.634 -54.948  1.00  0.00     0.024 A 
HETATM   12  H   UNL     1     -41.272  54.464 -57.166  1.00  0.00     0.130 HD
ENDROOT
BRANCH   7  13
HETATM   13  C   UNL     1     -43.168  56.043 -58.018  1.00  0.00     0.014 A 
HETATM   14  C   UNL     1     -42.466  57.217 -58.333  1.00  0.00     0.075 A 
HETATM   15  C   UNL     1     -42.634  57.850 -59.562  1.00  0.00     0.037 A 
HETATM   16  C   UNL     1     -43.508  57.317 -60.506  1.00  0.00     0.003 A 
HETATM   17  C   UNL     1     -44.215  56.152 -60.218  1.00  0.00     0.001 A 
HETATM   18  C   UNL     1     -44.049  55.520 -58.983  1.00  0.00     0.013 A 
BRANCH  14  19
HETATM   19  O   UNL     1     -41.595  57.806 -57.461  1.00  0.00    -0.360 OA
HETATM   20  H   UNL     1     -41.228  57.120 -56.863  1.00  0.00     0.217 HD
ENDBRANCH  14  19
ENDBRANCH   7  13
BRANCH   1  21
HETATM   21  N   UNL     1     -44.522  57.250 -55.837  1.00  0.00    -0.220 N 
HETATM   22  H   UNL     1     -45.085  57.151 -56.684  1.00  0.00     0.200 HD
BRANCH  21  23
HETATM   23  S   UNL     1     -44.073  58.863 -55.494  1.00  0.00     0.240 S 
HETATM   24  C   UNL     1     -45.145  59.187 -54.113  1.00  0.00     0.187 C 
HETATM   25  O   UNL     1     -44.519  59.719 -56.572  1.00  0.00    -0.205 OA
HETATM   26  O   UNL     1     -42.720  58.873 -54.981  1.00  0.00    -0.205 OA
ENDBRANCH  21  23
ENDBRANCH   1  21
TORSDOF 4
ENDMDL
MODEL 9
REMARK VINA RESULT:      -6.5      2.210      3.950
REMARK  4 active torsions:
REMARK  status: ('A' for Active; 'I' for Inactive)
REMARK    1  A    between atoms: S_2  and  N_3 
REMARK    2  A    between atoms: N_3  and  N_4 
REMARK    3  A    between atoms: C_10  and  C_11 
REMARK    4  A    between atoms: C_12  and  O_13 
ROOT
HETATM    1  N   UNL     1     -41.788  56.332 -53.254  1.00  0.00    -0.224 N 
HETATM    2  C   UNL     1     -41.200  55.561 -52.254  1.00  0.00     0.276 C 
HETATM    3  O   UNL     1     -40.975  55.929 -51.107  1.00  0.00    -0.266 OA
HETATM    4  C   UNL     1     -40.837  54.182 -52.665  1.00  0.00     0.055 A 
HETATM    5  C   UNL     1     -41.066  53.788 -53.992  1.00  0.00     0.026 A 
HETATM    6  N   UNL     1     -41.614  54.679 -54.940  1.00  0.00    -0.265 NA
HETATM    7  C   UNL     1     -42.509  55.665 -54.329  1.00  0.00     0.224 C 
HETATM    8  C   UNL     1     -40.235  53.310 -51.749  1.00  0.00     0.019 A 
HETATM    9  C   UNL     1     -39.827  52.045 -52.164  1.00  0.00     0.001 A 
HETATM   10  C   UNL     1     -40.002  51.661 -53.492  1.00  0.00     0.002 A 
HETATM   11  C   UNL     1     -40.603  52.533 -54.405  1.00  0.00     0.024 A 
HETATM   12  H   UNL     1     -42.080  54.169 -55.690  1.00  0.00     0.130 HD
ENDROOT
BRANCH   7  13
HETATM   13  C   UNL     1     -43.016  56.591 -55.422  1.00  0.00     0.014 A 
HETATM   14  C   UNL     1     -44.351  57.019 -55.493  1.00  0.00     0.075 A 
HETATM   15  C   UNL     1     -44.798  57.815 -56.545  1.00  0.00     0.037 A 
HETATM   16  C   UNL     1     -43.914  58.203 -57.548  1.00  0.00     0.003 A 
HETATM   17  C   UNL     1     -42.585  57.792 -57.499  1.00  0.00     0.001 A 
HETATM   18  C   UNL     1     -42.138  56.990 -56.447  1.00  0.00     0.013 A 
BRANCH  14  19
HETATM   19  O   UNL     1     -45.281  56.677 -54.552  1.00  0.00    -0.360 OA
HETATM   20  H   UNL     1     -44.887  56.782 -53.660  1.00  0.00     0.217 HD
ENDBRANCH  14  19
ENDBRANCH   7  13
BRANCH   1  21
HETATM   21  N   UNL     1     -42.044  57.782 -53.038  1.00  0.00    -0.220 N 
HETATM   22  H   UNL     1     -41.229  58.399 -53.037  1.00  0.00     0.200 HD
BRANCH  21  23
HETATM   23  S   UNL     1     -43.257  58.246 -51.927  1.00  0.00     0.240 S 
HETATM   24  C   UNL     1     -44.022  59.560 -52.848  1.00  0.00     0.187 C 
HETATM   25  O   UNL     1     -42.636  58.858 -50.773  1.00  0.00    -0.205 OA
HETATM   26  O   UNL     1     -44.234  57.183 -51.831  1.00  0.00    -0.205 OA
ENDBRANCH  21  23
ENDBRANCH   1  21
TORSDOF 4
ENDMDL
MODEL 10
REMARK VINA RESULT:      -6.5     15.928     17.243
REMARK  4 active torsions:
REMARK  status: ('A' for Active; 'I' for Inactive)
REMARK    1  A    between atoms: S_2  and  N_3 
REMARK    2  A    between atoms: N_3  and  N_4 
REMARK    3  A    between atoms: C_10  and  C_11 
REMARK    4  A    between atoms: C_12  and  O_13 
ROOT
HETATM    1  N   UNL     1     -33.622  40.202 -55.399  1.00  0.00    -0.224 N 
HETATM    2  C   UNL     1     -32.553  40.124 -54.510  1.00  0.00     0.276 C 
HETATM    3  O   UNL     1     -31.384  39.914 -54.814  1.00  0.00    -0.266 OA
HETATM    4  C   UNL     1     -32.913  40.323 -53.085  1.00  0.00     0.055 A 
HETATM    5  C   UNL     1     -34.261  40.524 -52.748  1.00  0.00     0.026 A 
HETATM    6  N   UNL     1     -35.273  40.522 -53.732  1.00  0.00    -0.265 NA
HETATM    7  C   UNL     1     -34.790  40.991 -55.034  1.00  0.00     0.224 C 
HETATM    8  C   UNL     1     -31.925  40.264 -52.094  1.00  0.00     0.019 A 
HETATM    9  C   UNL     1     -32.284  40.374 -50.753  1.00  0.00     0.001 A 
HETATM   10  C   UNL     1     -33.625  40.523 -50.403  1.00  0.00     0.002 A 
HETATM   11  C   UNL     1     -34.610  40.582 -51.394  1.00  0.00     0.024 A 
HETATM   12  H   UNL     1     -36.082  41.059 -53.422  1.00  0.00     0.130 HD
ENDROOT
BRANCH   7  13
HETATM   13  C   UNL     1     -35.939  40.920 -56.024  1.00  0.00     0.014 A 
HETATM   14  C   UNL     1     -36.760  39.788 -56.151  1.00  0.00     0.075 A 
HETATM   15  C   UNL     1     -37.764  39.730 -57.115  1.00  0.00     0.037 A 
HETATM   16  C   UNL     1     -37.971  40.809 -57.970  1.00  0.00     0.003 A 
HETATM   17  C   UNL     1     -37.170  41.943 -57.864  1.00  0.00     0.001 A 
HETATM   18  C   UNL     1     -36.160  41.999 -56.901  1.00  0.00     0.013 A 
BRANCH  14  19
HETATM   19  O   UNL     1     -36.619  38.687 -55.354  1.00  0.00    -0.360 OA
HETATM   20  H   UNL     1     -37.266  38.740 -54.619  1.00  0.00     0.217 HD
ENDBRANCH  14  19
ENDBRANCH   7  13
BRANCH   1  21
HETATM   21  N   UNL     1     -33.439  39.851 -56.834  1.00  0.00    -0.220 N 
HETATM   22  H   UNL     1     -33.899  40.455 -57.518  1.00  0.00     0.200 HD
BRANCH  21  23
HETATM   23  S   UNL     1     -33.414  38.201 -57.280  1.00  0.00     0.240 S 
HETATM   24  C   UNL     1     -34.608  38.228 -58.598  1.00  0.00     0.187 C 
HETATM   25  O   UNL     1     -33.993  37.412 -56.215  1.00  0.00    -0.205 OA
HETATM   26  O   UNL     1     -32.135  37.901 -57.885  1.00  0.00    -0.205 OA
ENDBRANCH  21  23
ENDBRANCH   1  21
TORSDOF 4
ENDMDL
