MODEL 1
REMARK VINA RESULT:      -8.2      0.000      0.000
REMARK  5 active torsions:
REMARK  status: ('A' for Active; 'I' for Inactive)
REMARK    1  A    between atoms: O_2  and  C_3 
REMARK    2  A    between atoms: C_3  and  C_4 
REMARK    3  A    between atoms: C_6  and  C_7 
REMARK       I    between atoms: C_7  and  N_8 
REMARK    4  A    between atoms: N_8  and  C_9 
REMARK    5  A    between atoms: C_10  and  O_11 
ROOT
HETATM    1  C   UNL     1     -41.456  55.860 -52.336  1.00  0.00     0.071 A 
HETATM    2  C   UNL     1     -41.432  55.578 -53.716  1.00  0.00     0.096 A 
HETATM    3  C   UNL     1     -41.077  54.315 -54.214  1.00  0.00     0.054 A 
HETATM    4  C   UNL     1     -40.686  53.325 -53.294  1.00  0.00     0.014 A 
HETATM    5  C   UNL     1     -40.709  53.636 -51.938  1.00  0.00     0.089 A 
HETATM    6  O   UNL     1     -40.301  52.570 -51.198  1.00  0.00    -0.309 OA
HETATM    7  C   UNL     1     -40.003  51.569 -52.069  1.00  0.00     0.087 A 
HETATM    8  C   UNL     1     -40.228  51.978 -53.379  1.00  0.00     0.011 A 
HETATM    9  C   UNL     1     -39.533  50.307 -51.713  1.00  0.00     0.038 A 
HETATM   10  C   UNL     1     -39.278  49.416 -52.760  1.00  0.00     0.003 A 
HETATM   11  C   UNL     1     -39.493  49.786 -54.090  1.00  0.00     0.001 A 
HETATM   12  C   UNL     1     -39.969  51.064 -54.418  1.00  0.00     0.015 A 
HETATM   13  C   UNL     1     -41.092  54.873 -51.416  1.00  0.00     0.070 A 
ENDROOT
BRANCH   1  14
HETATM   14  N   UNL     1     -41.826  57.174 -51.966  1.00  0.00    -0.320 N 
HETATM   15  C   UNL     1     -43.094  57.647 -51.701  1.00  0.00     0.256 C 
HETATM   16  O   UNL     1     -44.139  57.012 -51.771  1.00  0.00    -0.267 OA
HETATM   17  H   UNL     1     -41.035  57.783 -51.789  1.00  0.00     0.169 HD
BRANCH  15  18
HETATM   18  C   UNL     1     -43.150  59.052 -51.206  1.00  0.00     0.033 A 
HETATM   19  C   UNL     1     -44.415  59.608 -50.965  1.00  0.00     0.026 A 
HETATM   20  C   UNL     1     -44.542  60.912 -50.470  1.00  0.00    -0.034 A 
HETATM   21  C   UNL     1     -43.380  61.658 -50.228  1.00  0.00     0.009 A 
HETATM   22  C   UNL     1     -42.119  61.116 -50.484  1.00  0.00     0.002 A 
HETATM   23  C   UNL     1     -42.000  59.814 -50.974  1.00  0.00     0.017 A 
BRANCH  20  24
HETATM   24  C   UNL     1     -45.904  61.494 -50.195  1.00  0.00     0.205 C 
BRANCH  24  25
HETATM   25  O   UNL     1     -46.297  61.150 -48.870  1.00  0.00    -0.391 OA
HETATM   26  C   UNL     1     -46.508  62.308 -48.073  1.00  0.00     0.201 C 
ENDBRANCH  24  25
ENDBRANCH  20  24
ENDBRANCH  15  18
ENDBRANCH   1  14
BRANCH   2  27
HETATM   27  O   UNL     1     -41.813  56.579 -54.584  1.00  0.00    -0.354 OA
HETATM   28  C   UNL     1     -43.005  56.217 -55.285  1.00  0.00     0.210 C 
ENDBRANCH   2  27
TORSDOF 5
ENDMDL
MODEL 2
REMARK VINA RESULT:      -8.1      3.538      5.758
REMARK  5 active torsions:
REMARK  status: ('A' for Active; 'I' for Inactive)
REMARK    1  A    between atoms: O_2  and  C_3 
REMARK    2  A    between atoms: C_3  and  C_4 
REMARK    3  A    between atoms: C_6  and  C_7 
REMARK       I    between atoms: C_7  and  N_8 
REMARK    4  A    between atoms: N_8  and  C_9 
REMARK    5  A    between atoms: C_10  and  O_11 
ROOT
HETATM    1  C   UNL     1     -41.062  55.038 -54.919  1.00  0.00     0.071 A 
HETATM    2  C   UNL     1     -41.359  55.434 -53.600  1.00  0.00     0.096 A 
HETATM    3  C   UNL     1     -41.139  54.591 -52.500  1.00  0.00     0.054 A 
HETATM    4  C   UNL     1     -40.651  53.295 -52.745  1.00  0.00     0.014 A 
HETATM    5  C   UNL     1     -40.377  52.928 -54.058  1.00  0.00     0.089 A 
HETATM    6  O   UNL     1     -39.918  51.648 -54.110  1.00  0.00    -0.309 OA
HETATM    7  C   UNL     1     -39.903  51.177 -52.834  1.00  0.00     0.087 A 
HETATM    8  C   UNL     1     -40.341  52.155 -51.947  1.00  0.00     0.011 A 
HETATM    9  C   UNL     1     -39.511  49.895 -52.455  1.00  0.00     0.038 A 
HETATM   10  C   UNL     1     -39.573  49.600 -51.090  1.00  0.00     0.003 A 
HETATM   11  C   UNL     1     -40.006  50.554 -50.165  1.00  0.00     0.001 A 
HETATM   12  C   UNL     1     -40.392  51.838 -50.576  1.00  0.00     0.015 A 
HETATM   13  C   UNL     1     -40.554  53.760 -55.166  1.00  0.00     0.070 A 
ENDROOT
BRANCH   1  14
HETATM   14  N   UNL     1     -41.337  55.980 -55.938  1.00  0.00    -0.320 N 
HETATM   15  C   UNL     1     -42.379  55.960 -56.841  1.00  0.00     0.256 C 
HETATM   16  O   UNL     1     -43.241  55.096 -56.942  1.00  0.00    -0.267 OA
HETATM   17  H   UNL     1     -40.739  56.797 -55.905  1.00  0.00     0.169 HD
BRANCH  15  18
HETATM   18  C   UNL     1     -42.479  57.166 -57.711  1.00  0.00     0.033 A 
HETATM   19  C   UNL     1     -42.160  58.408 -57.143  1.00  0.00     0.026 A 
HETATM   20  C   UNL     1     -42.202  59.579 -57.910  1.00  0.00    -0.034 A 
HETATM   21  C   UNL     1     -42.578  59.491 -59.257  1.00  0.00     0.009 A 
HETATM   22  C   UNL     1     -42.916  58.259 -59.823  1.00  0.00     0.002 A 
HETATM   23  C   UNL     1     -42.869  57.096 -59.053  1.00  0.00     0.017 A 
BRANCH  20  24
HETATM   24  C   UNL     1     -41.837  60.906 -57.296  1.00  0.00     0.205 C 
BRANCH  24  25
HETATM   25  O   UNL     1     -40.686  61.424 -57.958  1.00  0.00    -0.391 OA
HETATM   26  C   UNL     1     -40.897  62.758 -58.399  1.00  0.00     0.201 C 
ENDBRANCH  24  25
ENDBRANCH  20  24
ENDBRANCH  15  18
ENDBRANCH   1  14
BRANCH   2  27
HETATM   27  O   UNL     1     -41.845  56.709 -53.405  1.00  0.00    -0.354 OA
HETATM   28  C   UNL     1     -43.152  56.673 -52.829  1.00  0.00     0.210 C 
ENDBRANCH   2  27
TORSDOF 5
ENDMDL
MODEL 3
REMARK VINA RESULT:      -8.1      1.760      2.419
REMARK  5 active torsions:
REMARK  status: ('A' for Active; 'I' for Inactive)
REMARK    1  A    between atoms: O_2  and  C_3 
REMARK    2  A    between atoms: C_3  and  C_4 
REMARK    3  A    between atoms: C_6  and  C_7 
REMARK       I    between atoms: C_7  and  N_8 
REMARK    4  A    between atoms: N_8  and  C_9 
REMARK    5  A    between atoms: C_10  and  O_11 
ROOT
HETATM    1  C   UNL     1     -42.292  57.649 -51.475  1.00  0.00     0.071 A 
HETATM    2  C   UNL     1     -42.284  57.531 -52.879  1.00  0.00     0.096 A 
HETATM    3  C   UNL     1     -41.829  56.373 -53.529  1.00  0.00     0.054 A 
HETATM    4  C   UNL     1     -41.321  55.326 -52.739  1.00  0.00     0.014 A 
HETATM    5  C   UNL     1     -41.332  55.475 -51.356  1.00  0.00     0.089 A 
HETATM    6  O   UNL     1     -40.806  54.373 -50.754  1.00  0.00    -0.309 OA
HETATM    7  C   UNL     1     -40.443  53.512 -51.743  1.00  0.00     0.087 A 
HETATM    8  C   UNL     1     -40.744  54.047 -52.991  1.00  0.00     0.011 A 
HETATM    9  C   UNL     1     -39.849  52.268 -51.547  1.00  0.00     0.038 A 
HETATM   10  C   UNL     1     -39.545  51.532 -52.695  1.00  0.00     0.003 A 
HETATM   11  C   UNL     1     -39.832  52.031 -53.969  1.00  0.00     0.001 A 
HETATM   12  C   UNL     1     -40.433  53.287 -54.135  1.00  0.00     0.015 A 
HETATM   13  C   UNL     1     -41.812  56.601 -50.685  1.00  0.00     0.070 A 
ENDROOT
BRANCH   1  14
HETATM   14  N   UNL     1     -42.771  58.871 -50.947  1.00  0.00    -0.320 N 
HETATM   15  C   UNL     1     -42.028  59.966 -50.557  1.00  0.00     0.256 C 
HETATM   16  O   UNL     1     -40.808  60.061 -50.569  1.00  0.00    -0.267 OA
HETATM   17  H   UNL     1     -43.781  58.952 -50.967  1.00  0.00     0.169 HD
BRANCH  15  18
HETATM   18  C   UNL     1     -42.829  61.159 -50.164  1.00  0.00     0.033 A 
HETATM   19  C   UNL     1     -43.984  60.946 -49.397  1.00  0.00     0.026 A 
HETATM   20  C   UNL     1     -44.767  62.024 -48.965  1.00  0.00    -0.034 A 
HETATM   21  C   UNL     1     -44.382  63.323 -49.322  1.00  0.00     0.009 A 
HETATM   22  C   UNL     1     -43.243  63.541 -50.101  1.00  0.00     0.002 A 
HETATM   23  C   UNL     1     -42.466  62.461 -50.525  1.00  0.00     0.017 A 
BRANCH  20  24
HETATM   24  C   UNL     1     -45.995  61.786 -48.124  1.00  0.00     0.205 C 
BRANCH  24  25
HETATM   25  O   UNL     1     -46.057  60.407 -47.772  1.00  0.00    -0.391 OA
HETATM   26  C   UNL     1     -46.104  60.232 -46.363  1.00  0.00     0.201 C 
ENDBRANCH  24  25
ENDBRANCH  20  24
ENDBRANCH  15  18
ENDBRANCH   1  14
BRANCH   2  27
HETATM   27  O   UNL     1     -42.781  58.585 -53.616  1.00  0.00    -0.354 OA
HETATM   28  C   UNL     1     -41.735  59.239 -54.337  1.00  0.00     0.210 C 
ENDBRANCH   2  27
TORSDOF 5
ENDMDL
MODEL 4
REMARK VINA RESULT:      -7.9      1.447      2.590
REMARK  5 active torsions:
REMARK  status: ('A' for Active; 'I' for Inactive)
REMARK    1  A    between atoms: O_2  and  C_3 
REMARK    2  A    between atoms: C_3  and  C_4 
REMARK    3  A    between atoms: C_6  and  C_7 
REMARK       I    between atoms: C_7  and  N_8 
REMARK    4  A    between atoms: N_8  and  C_9 
REMARK    5  A    between atoms: C_10  and  O_11 
ROOT
HETATM    1  C   UNL     1     -41.249  55.703 -51.717  1.00  0.00     0.071 A 
HETATM    2  C   UNL     1     -40.954  54.955 -50.560  1.00  0.00     0.096 A 
HETATM    3  C   UNL     1     -40.501  53.628 -50.624  1.00  0.00     0.054 A 
HETATM    4  C   UNL     1     -40.392  53.025 -51.890  1.00  0.00     0.014 A 
HETATM    5  C   UNL     1     -40.701  53.785 -53.014  1.00  0.00     0.089 A 
HETATM    6  O   UNL     1     -40.544  53.046 -54.146  1.00  0.00    -0.309 OA
HETATM    7  C   UNL     1     -40.143  51.805 -53.761  1.00  0.00     0.087 A 
HETATM    8  C   UNL     1     -40.026  51.736 -52.377  1.00  0.00     0.011 A 
HETATM    9  C   UNL     1     -39.885  50.741 -54.623  1.00  0.00     0.038 A 
HETATM   10  C   UNL     1     -39.488  49.539 -54.030  1.00  0.00     0.003 A 
HETATM   11  C   UNL     1     -39.357  49.427 -52.643  1.00  0.00     0.001 A 
HETATM   12  C   UNL     1     -39.621  50.517 -51.801  1.00  0.00     0.015 A 
HETATM   13  C   UNL     1     -41.119  55.117 -52.978  1.00  0.00     0.070 A 
ENDROOT
BRANCH   1  14
HETATM   14  N   UNL     1     -41.703  57.027 -51.513  1.00  0.00    -0.320 N 
HETATM   15  C   UNL     1     -42.995  57.498 -51.614  1.00  0.00     0.256 C 
HETATM   16  O   UNL     1     -43.984  56.850 -51.934  1.00  0.00    -0.267 OA
HETATM   17  H   UNL     1     -40.987  57.650 -51.157  1.00  0.00     0.169 HD
BRANCH  15  18
HETATM   18  C   UNL     1     -43.179  58.920 -51.210  1.00  0.00     0.033 A 
HETATM   19  C   UNL     1     -44.487  59.424 -51.175  1.00  0.00     0.026 A 
HETATM   20  C   UNL     1     -44.738  60.743 -50.774  1.00  0.00    -0.034 A 
HETATM   21  C   UNL     1     -43.654  61.557 -50.417  1.00  0.00     0.009 A 
HETATM   22  C   UNL     1     -42.347  61.066 -50.468  1.00  0.00     0.002 A 
HETATM   23  C   UNL     1     -42.106  59.750 -50.866  1.00  0.00     0.017 A 
BRANCH  20  24
HETATM   24  C   UNL     1     -46.149  61.269 -50.719  1.00  0.00     0.205 C 
BRANCH  24  25
HETATM   25  O   UNL     1     -46.360  62.148 -51.819  1.00  0.00    -0.391 OA
HETATM   26  C   UNL     1     -47.531  61.801 -52.544  1.00  0.00     0.201 C 
ENDBRANCH  24  25
ENDBRANCH  20  24
ENDBRANCH  15  18
ENDBRANCH   1  14
BRANCH   2  27
HETATM   27  O   UNL     1     -41.083  55.581 -49.338  1.00  0.00    -0.354 OA
HETATM   28  C   UNL     1     -40.833  54.666 -48.270  1.00  0.00     0.210 C 
ENDBRANCH   2  27
TORSDOF 5
ENDMDL
MODEL 5
REMARK VINA RESULT:      -7.9      3.444      6.032
REMARK  5 active torsions:
REMARK  status: ('A' for Active; 'I' for Inactive)
REMARK    1  A    between atoms: O_2  and  C_3 
REMARK    2  A    between atoms: C_3  and  C_4 
REMARK    3  A    between atoms: C_6  and  C_7 
REMARK       I    between atoms: C_7  and  N_8 
REMARK    4  A    between atoms: N_8  and  C_9 
REMARK    5  A    between atoms: C_10  and  O_11 
ROOT
HETATM    1  C   UNL     1     -41.230  55.180 -54.878  1.00  0.00     0.071 A 
HETATM    2  C   UNL     1     -41.452  55.510 -53.526  1.00  0.00     0.096 A 
HETATM    3  C   UNL     1     -41.156  54.622 -52.481  1.00  0.00     0.054 A 
HETATM    4  C   UNL     1     -40.668  53.345 -52.815  1.00  0.00     0.014 A 
HETATM    5  C   UNL     1     -40.469  53.043 -54.158  1.00  0.00     0.089 A 
HETATM    6  O   UNL     1     -40.000  51.773 -54.296  1.00  0.00    -0.309 OA
HETATM    7  C   UNL     1     -39.902  51.244 -53.047  1.00  0.00     0.087 A 
HETATM    8  C   UNL     1     -40.297  52.174 -52.091  1.00  0.00     0.011 A 
HETATM    9  C   UNL     1     -39.473  49.952 -52.752  1.00  0.00     0.038 A 
HETATM   10  C   UNL     1     -39.449  49.594 -51.402  1.00  0.00     0.003 A 
HETATM   11  C   UNL     1     -39.836  50.499 -50.409  1.00  0.00     0.001 A 
HETATM   12  C   UNL     1     -40.261  51.794 -50.736  1.00  0.00     0.015 A 
HETATM   13  C   UNL     1     -40.723  53.922 -55.213  1.00  0.00     0.070 A 
ENDROOT
BRANCH   1  14
HETATM   14  N   UNL     1     -41.577  56.163 -55.833  1.00  0.00    -0.320 N 
HETATM   15  C   UNL     1     -42.527  56.069 -56.829  1.00  0.00     0.256 C 
HETATM   16  O   UNL     1     -43.222  55.094 -57.084  1.00  0.00    -0.267 OA
HETATM   17  H   UNL     1     -41.129  57.058 -55.674  1.00  0.00     0.169 HD
BRANCH  15  18
HETATM   18  C   UNL     1     -42.758  57.325 -57.597  1.00  0.00     0.033 A 
HETATM   19  C   UNL     1     -43.827  57.347 -58.503  1.00  0.00     0.026 A 
HETATM   20  C   UNL     1     -44.122  58.503 -59.237  1.00  0.00    -0.034 A 
HETATM   21  C   UNL     1     -43.320  59.639 -59.057  1.00  0.00     0.009 A 
HETATM   22  C   UNL     1     -42.242  59.617 -58.170  1.00  0.00     0.002 A 
HETATM   23  C   UNL     1     -41.956  58.461 -57.440  1.00  0.00     0.017 A 
BRANCH  20  24
HETATM   24  C   UNL     1     -45.287  58.525 -60.193  1.00  0.00     0.205 C 
BRANCH  24  25
HETATM   25  O   UNL     1     -45.631  57.186 -60.536  1.00  0.00    -0.391 OA
HETATM   26  C   UNL     1     -46.952  56.867 -60.121  1.00  0.00     0.201 C 
ENDBRANCH  24  25
ENDBRANCH  20  24
ENDBRANCH  15  18
ENDBRANCH   1  14
BRANCH   2  27
HETATM   27  O   UNL     1     -41.939  56.768 -53.243  1.00  0.00    -0.354 OA
HETATM   28  C   UNL     1     -41.345  57.288 -52.051  1.00  0.00     0.210 C 
ENDBRANCH   2  27
TORSDOF 5
ENDMDL
MODEL 6
REMARK VINA RESULT:      -7.8      1.865      2.280
REMARK  5 active torsions:
REMARK  status: ('A' for Active; 'I' for Inactive)
REMARK    1  A    between atoms: O_2  and  C_3 
REMARK    2  A    between atoms: C_3  and  C_4 
REMARK    3  A    between atoms: C_6  and  C_7 
REMARK       I    between atoms: C_7  and  N_8 
REMARK    4  A    between atoms: N_8  and  C_9 
REMARK    5  A    between atoms: C_10  and  O_11 
ROOT
HETATM    1  C   UNL     1     -41.534  56.048 -52.530  1.00  0.00     0.071 A 
HETATM    2  C   UNL     1     -41.593  55.685 -53.890  1.00  0.00     0.096 A 
HETATM    3  C   UNL     1     -41.250  54.399 -54.336  1.00  0.00     0.054 A 
HETATM    4  C   UNL     1     -40.787  53.470 -53.386  1.00  0.00     0.014 A 
HETATM    5  C   UNL     1     -40.729  53.860 -52.052  1.00  0.00     0.089 A 
HETATM    6  O   UNL     1     -40.259  52.844 -51.279  1.00  0.00    -0.309 OA
HETATM    7  C   UNL     1     -40.001  51.797 -52.108  1.00  0.00     0.087 A 
HETATM    8  C   UNL     1     -40.315  52.125 -53.422  1.00  0.00     0.011 A 
HETATM    9  C   UNL     1     -39.490  50.564 -51.710  1.00  0.00     0.038 A 
HETATM   10  C   UNL     1     -39.288  49.616 -52.717  1.00  0.00     0.003 A 
HETATM   11  C   UNL     1     -39.592  49.904 -54.050  1.00  0.00     0.001 A 
HETATM   12  C   UNL     1     -40.108  51.154 -54.421  1.00  0.00     0.015 A 
HETATM   13  C   UNL     1     -41.098  55.121 -51.580  1.00  0.00     0.070 A 
ENDROOT
BRANCH   1  14
HETATM   14  N   UNL     1     -41.900  57.377 -52.215  1.00  0.00    -0.320 N 
HETATM   15  C   UNL     1     -41.130  58.514 -52.343  1.00  0.00     0.256 C 
HETATM   16  O   UNL     1     -39.968  58.568 -52.726  1.00  0.00    -0.267 OA
HETATM   17  H   UNL     1     -42.877  57.479 -51.966  1.00  0.00     0.169 HD
BRANCH  15  18
HETATM   18  C   UNL     1     -41.842  59.791 -52.054  1.00  0.00     0.033 A 
HETATM   19  C   UNL     1     -42.378  60.499 -53.139  1.00  0.00     0.026 A 
HETATM   20  C   UNL     1     -43.086  61.691 -52.938  1.00  0.00    -0.034 A 
HETATM   21  C   UNL     1     -43.242  62.171 -51.631  1.00  0.00     0.009 A 
HETATM   22  C   UNL     1     -42.694  61.480 -50.548  1.00  0.00     0.002 A 
HETATM   23  C   UNL     1     -41.992  60.291 -50.756  1.00  0.00     0.017 A 
BRANCH  20  24
HETATM   24  C   UNL     1     -43.677  62.434 -54.109  1.00  0.00     0.205 C 
BRANCH  24  25
HETATM   25  O   UNL     1     -45.062  62.660 -53.865  1.00  0.00    -0.391 OA
HETATM   26  C   UNL     1     -45.848  61.544 -54.256  1.00  0.00     0.201 C 
ENDBRANCH  24  25
ENDBRANCH  20  24
ENDBRANCH  15  18
ENDBRANCH   1  14
BRANCH   2  27
HETATM   27  O   UNL     1     -42.044  56.628 -54.789  1.00  0.00    -0.354 OA
HETATM   28  C   UNL     1     -43.293  56.232 -55.359  1.00  0.00     0.210 C 
ENDBRANCH   2  27
TORSDOF 5
ENDMDL
MODEL 7
REMARK VINA RESULT:      -7.7      3.280      8.453
REMARK  5 active torsions:
REMARK  status: ('A' for Active; 'I' for Inactive)
REMARK    1  A    between atoms: O_2  and  C_3 
REMARK    2  A    between atoms: C_3  and  C_4 
REMARK    3  A    between atoms: C_6  and  C_7 
REMARK       I    between atoms: C_7  and  N_8 
REMARK    4  A    between atoms: N_8  and  C_9 
REMARK    5  A    between atoms: C_10  and  O_11 
ROOT
HETATM    1  C   UNL     1     -42.698  55.261 -55.416  1.00  0.00     0.071 A 
HETATM    2  C   UNL     1     -43.282  56.339 -54.722  1.00  0.00     0.096 A 
HETATM    3  C   UNL     1     -43.926  57.394 -55.387  1.00  0.00     0.054 A 
HETATM    4  C   UNL     1     -43.937  57.383 -56.794  1.00  0.00     0.014 A 
HETATM    5  C   UNL     1     -43.343  56.311 -57.452  1.00  0.00     0.089 A 
HETATM    6  O   UNL     1     -43.443  56.465 -58.800  1.00  0.00    -0.309 OA
HETATM    7  C   UNL     1     -44.092  57.639 -59.021  1.00  0.00     0.087 A 
HETATM    8  C   UNL     1     -44.426  58.248 -57.816  1.00  0.00     0.011 A 
HETATM    9  C   UNL     1     -44.383  58.173 -60.275  1.00  0.00     0.038 A 
HETATM   10  C   UNL     1     -45.053  59.400 -60.292  1.00  0.00     0.003 A 
HETATM   11  C   UNL     1     -45.409  60.044 -59.104  1.00  0.00     0.001 A 
HETATM   12  C   UNL     1     -45.105  59.481 -57.856  1.00  0.00     0.015 A 
HETATM   13  C   UNL     1     -42.727  55.233 -56.813  1.00  0.00     0.070 A 
ENDROOT
BRANCH   1  14
HETATM   14  N   UNL     1     -42.074  54.266 -54.627  1.00  0.00    -0.320 N 
HETATM   15  C   UNL     1     -40.745  53.898 -54.635  1.00  0.00     0.256 C 
HETATM   16  O   UNL     1     -39.867  54.350 -55.360  1.00  0.00    -0.267 OA
HETATM   17  H   UNL     1     -42.682  53.872 -53.918  1.00  0.00     0.169 HD
BRANCH  15  18
HETATM   18  C   UNL     1     -40.361  52.906 -53.591  1.00  0.00     0.033 A 
HETATM   19  C   UNL     1     -40.503  53.285 -52.249  1.00  0.00     0.026 A 
HETATM   20  C   UNL     1     -40.191  52.393 -51.215  1.00  0.00    -0.034 A 
HETATM   21  C   UNL     1     -39.724  51.113 -51.546  1.00  0.00     0.009 A 
HETATM   22  C   UNL     1     -39.563  50.737 -52.882  1.00  0.00     0.002 A 
HETATM   23  C   UNL     1     -39.879  51.631 -53.906  1.00  0.00     0.017 A 
BRANCH  20  24
HETATM   24  C   UNL     1     -40.366  52.802 -49.776  1.00  0.00     0.205 C 
BRANCH  24  25
HETATM   25  O   UNL     1     -41.278  53.893 -49.710  1.00  0.00    -0.391 OA
HETATM   26  C   UNL     1     -40.964  54.769 -48.637  1.00  0.00     0.201 C 
ENDBRANCH  24  25
ENDBRANCH  20  24
ENDBRANCH  15  18
ENDBRANCH   1  14
BRANCH   2  27
HETATM   27  O   UNL     1     -43.240  56.316 -53.345  1.00  0.00    -0.354 OA
HETATM   28  C   UNL     1     -44.208  57.211 -52.792  1.00  0.00     0.210 C 
ENDBRANCH   2  27
TORSDOF 5
ENDMDL
MODEL 8
REMARK VINA RESULT:      -7.7      2.788      4.394
REMARK  5 active torsions:
REMARK  status: ('A' for Active; 'I' for Inactive)
REMARK    1  A    between atoms: O_2  and  C_3 
REMARK    2  A    between atoms: C_3  and  C_4 
REMARK    3  A    between atoms: C_6  and  C_7 
REMARK       I    between atoms: C_7  and  N_8 
REMARK    4  A    between atoms: N_8  and  C_9 
REMARK    5  A    between atoms: C_10  and  O_11 
ROOT
HETATM    1  C   UNL     1     -41.349  55.900 -53.014  1.00  0.00     0.071 A 
HETATM    2  C   UNL     1     -41.234  55.467 -51.678  1.00  0.00     0.096 A 
HETATM    3  C   UNL     1     -40.797  54.175 -51.346  1.00  0.00     0.054 A 
HETATM    4  C   UNL     1     -40.516  53.281 -52.395  1.00  0.00     0.014 A 
HETATM    5  C   UNL     1     -40.648  53.733 -53.703  1.00  0.00     0.089 A 
HETATM    6  O   UNL     1     -40.341  52.741 -54.583  1.00  0.00    -0.309 OA
HETATM    7  C   UNL     1     -40.017  51.642 -53.851  1.00  0.00     0.087 A 
HETATM    8  C   UNL     1     -40.103  51.920 -52.490  1.00  0.00     0.011 A 
HETATM    9  C   UNL     1     -39.654  50.404 -54.376  1.00  0.00     0.038 A 
HETATM   10  C   UNL     1     -39.365  49.394 -53.454  1.00  0.00     0.003 A 
HETATM   11  C   UNL     1     -39.436  49.631 -52.078  1.00  0.00     0.001 A 
HETATM   12  C   UNL     1     -39.802  50.889 -51.579  1.00  0.00     0.015 A 
HETATM   13  C   UNL     1     -41.047  55.023 -54.058  1.00  0.00     0.070 A 
ENDROOT
BRANCH   1  14
HETATM   14  N   UNL     1     -41.807  57.223 -53.211  1.00  0.00    -0.320 N 
HETATM   15  C   UNL     1     -41.054  58.378 -53.240  1.00  0.00     0.256 C 
HETATM   16  O   UNL     1     -39.845  58.465 -53.066  1.00  0.00    -0.267 OA
HETATM   17  H   UNL     1     -42.789  57.279 -53.455  1.00  0.00     0.169 HD
BRANCH  15  18
HETATM   18  C   UNL     1     -41.808  59.612 -53.602  1.00  0.00     0.033 A 
HETATM   19  C   UNL     1     -41.902  59.943 -54.961  1.00  0.00     0.026 A 
HETATM   20  C   UNL     1     -42.622  61.071 -55.375  1.00  0.00    -0.034 A 
HETATM   21  C   UNL     1     -43.241  61.871 -54.404  1.00  0.00     0.009 A 
HETATM   22  C   UNL     1     -43.135  61.556 -53.048  1.00  0.00     0.002 A 
HETATM   23  C   UNL     1     -42.418  60.428 -52.643  1.00  0.00     0.017 A 
BRANCH  20  24
HETATM   24  C   UNL     1     -42.735  61.408 -56.839  1.00  0.00     0.205 C 
BRANCH  24  25
HETATM   25  O   UNL     1     -41.511  61.078 -57.489  1.00  0.00    -0.391 OA
HETATM   26  C   UNL     1     -41.740  60.426 -58.730  1.00  0.00     0.201 C 
ENDBRANCH  24  25
ENDBRANCH  20  24
ENDBRANCH  15  18
ENDBRANCH   1  14
BRANCH   2  27
HETATM   27  O   UNL     1     -41.528  56.372 -50.680  1.00  0.00    -0.354 OA
HETATM   28  C   UNL     1     -41.283  55.805 -49.391  1.00  0.00     0.210 C 
ENDBRANCH   2  27
TORSDOF 5
ENDMDL
MODEL 9
REMARK VINA RESULT:      -7.6      2.483      3.326
REMARK  5 active torsions:
REMARK  status: ('A' for Active; 'I' for Inactive)
REMARK    1  A    between atoms: O_2  and  C_3 
REMARK    2  A    between atoms: C_3  and  C_4 
REMARK    3  A    between atoms: C_6  and  C_7 
REMARK       I    between atoms: C_7  and  N_8 
REMARK    4  A    between atoms: N_8  and  C_9 
REMARK    5  A    between atoms: C_10  and  O_11 
ROOT
HETATM    1  C   UNL     1     -41.392  55.972 -53.436  1.00  0.00     0.071 A 
HETATM    2  C   UNL     1     -41.335  55.663 -52.062  1.00  0.00     0.096 A 
HETATM    3  C   UNL     1     -40.900  54.414 -51.595  1.00  0.00     0.054 A 
HETATM    4  C   UNL     1     -40.560  53.433 -52.545  1.00  0.00     0.014 A 
HETATM    5  C   UNL     1     -40.635  53.763 -53.893  1.00  0.00     0.089 A 
HETATM    6  O   UNL     1     -40.275  52.701 -54.665  1.00  0.00    -0.309 OA
HETATM    7  C   UNL     1     -39.975  51.678 -53.821  1.00  0.00     0.087 A 
HETATM    8  C   UNL     1     -40.127  52.075 -52.497  1.00  0.00     0.011 A 
HETATM    9  C   UNL     1     -39.573  50.403 -54.215  1.00  0.00     0.038 A 
HETATM   10  C   UNL     1     -39.316  49.485 -53.193  1.00  0.00     0.003 A 
HETATM   11  C   UNL     1     -39.455  49.844 -51.849  1.00  0.00     0.001 A 
HETATM   12  C   UNL     1     -39.859  51.136 -51.483  1.00  0.00     0.015 A 
HETATM   13  C   UNL     1     -41.032  55.010 -54.382  1.00  0.00     0.070 A 
ENDROOT
BRANCH   1  14
HETATM   14  N   UNL     1     -41.856  57.265 -53.774  1.00  0.00    -0.320 N 
HETATM   15  C   UNL     1     -41.145  58.447 -53.744  1.00  0.00     0.256 C 
HETATM   16  O   UNL     1     -39.984  58.591 -53.385  1.00  0.00    -0.267 OA
HETATM   17  H   UNL     1     -42.787  57.270 -54.173  1.00  0.00     0.169 HD
BRANCH  15  18
HETATM   18  C   UNL     1     -41.872  59.630 -54.286  1.00  0.00     0.033 A 
HETATM   19  C   UNL     1     -42.345  60.580 -53.369  1.00  0.00     0.026 A 
HETATM   20  C   UNL     1     -43.010  61.732 -53.808  1.00  0.00    -0.034 A 
HETATM   21  C   UNL     1     -43.203  61.916 -55.184  1.00  0.00     0.009 A 
HETATM   22  C   UNL     1     -42.750  60.964 -56.101  1.00  0.00     0.002 A 
HETATM   23  C   UNL     1     -42.086  59.820 -55.655  1.00  0.00     0.017 A 
BRANCH  20  24
HETATM   24  C   UNL     1     -43.496  62.757 -52.817  1.00  0.00     0.205 C 
BRANCH  24  25
HETATM   25  O   UNL     1     -43.124  62.348 -51.504  1.00  0.00    -0.391 OA
HETATM   26  C   UNL     1     -44.141  62.647 -50.559  1.00  0.00     0.201 C 
ENDBRANCH  24  25
ENDBRANCH  20  24
ENDBRANCH  15  18
ENDBRANCH   1  14
BRANCH   2  27
HETATM   27  O   UNL     1     -41.687  56.650 -51.166  1.00  0.00    -0.354 OA
HETATM   28  C   UNL     1     -41.218  56.335 -49.853  1.00  0.00     0.210 C 
ENDBRANCH   2  27
TORSDOF 5
ENDMDL
MODEL 10
REMARK VINA RESULT:      -7.6      3.625      6.610
REMARK  5 active torsions:
REMARK  status: ('A' for Active; 'I' for Inactive)
REMARK    1  A    between atoms: O_2  and  C_3 
REMARK    2  A    between atoms: C_3  and  C_4 
REMARK    3  A    between atoms: C_6  and  C_7 
REMARK       I    between atoms: C_7  and  N_8 
REMARK    4  A    between atoms: N_8  and  C_9 
REMARK    5  A    between atoms: C_10  and  O_11 
ROOT
HETATM    1  C   UNL     1     -43.197  55.803 -55.190  1.00  0.00     0.071 A 
HETATM    2  C   UNL     1     -43.421  56.090 -53.829  1.00  0.00     0.096 A 
HETATM    3  C   UNL     1     -42.775  55.386 -52.801  1.00  0.00     0.054 A 
HETATM    4  C   UNL     1     -41.917  54.329 -53.160  1.00  0.00     0.014 A 
HETATM    5  C   UNL     1     -41.724  54.063 -54.511  1.00  0.00     0.089 A 
HETATM    6  O   UNL     1     -40.872  53.014 -54.672  1.00  0.00    -0.309 OA
HETATM    7  C   UNL     1     -40.518  52.591 -53.429  1.00  0.00     0.087 A 
HETATM    8  C   UNL     1     -41.130  53.372 -52.454  1.00  0.00     0.011 A 
HETATM    9  C   UNL     1     -39.666  51.524 -53.156  1.00  0.00     0.038 A 
HETATM   10  C   UNL     1     -39.430  51.241 -51.807  1.00  0.00     0.003 A 
HETATM   11  C   UNL     1     -40.024  52.002 -50.796  1.00  0.00     0.001 A 
HETATM   12  C   UNL     1     -40.876  53.073 -51.102  1.00  0.00     0.015 A 
HETATM   13  C   UNL     1     -42.328  54.771 -55.552  1.00  0.00     0.070 A 
ENDROOT
BRANCH   1  14
HETATM   14  N   UNL     1     -43.916  56.583 -56.126  1.00  0.00    -0.320 N 
HETATM   15  C   UNL     1     -43.520  57.765 -56.717  1.00  0.00     0.256 C 
HETATM   16  O   UNL     1     -42.477  58.371 -56.506  1.00  0.00    -0.267 OA
HETATM   17  H   UNL     1     -44.769  56.142 -56.451  1.00  0.00     0.169 HD
BRANCH  15  18
HETATM   18  C   UNL     1     -44.442  58.283 -57.766  1.00  0.00     0.033 A 
HETATM   19  C   UNL     1     -45.005  57.356 -58.655  1.00  0.00     0.026 A 
HETATM   20  C   UNL     1     -45.904  57.768 -59.646  1.00  0.00    -0.034 A 
HETATM   21  C   UNL     1     -46.226  59.129 -59.742  1.00  0.00     0.009 A 
HETATM   22  C   UNL     1     -45.654  60.060 -58.871  1.00  0.00     0.002 A 
HETATM   23  C   UNL     1     -44.761  59.641 -57.884  1.00  0.00     0.017 A 
BRANCH  20  24
HETATM   24  C   UNL     1     -46.520  56.762 -60.584  1.00  0.00     0.205 C 
BRANCH  24  25
HETATM   25  O   UNL     1     -45.982  55.474 -60.302  1.00  0.00    -0.391 OA
HETATM   26  C   UNL     1     -45.137  55.023 -61.351  1.00  0.00     0.201 C 
ENDBRANCH  24  25
ENDBRANCH  20  24
ENDBRANCH  15  18
ENDBRANCH   1  14
BRANCH   2  27
HETATM   27  O   UNL     1     -44.276  57.127 -53.522  1.00  0.00    -0.354 OA
HETATM   28  C   UNL     1     -44.334  57.336 -52.109  1.00  0.00     0.210 C 
ENDBRANCH   2  27
TORSDOF 5
ENDMDL
