MODEL 1
REMARK VINA RESULT:      -7.9      0.000      0.000
REMARK  8 active torsions:
REMARK  status: ('A' for Active; 'I' for Inactive)
REMARK    1  A    between atoms: C_2  and  C_3 
REMARK    2  A    between atoms: C_6  and  C_7 
REMARK    3  A    between atoms: C_8  and  C_9 
REMARK       I    between atoms: C_9  and  N_10 
REMARK    4  A    between atoms: N_10  and  C_11 
REMARK    5  A    between atoms: C_11  and  N_12 
REMARK    6  A    between atoms: N_12  and  C_13 
REMARK    7  A    between atoms: C_16  and  N_17 
REMARK       I    between atoms: N_20  and  C_21 
REMARK    8  A    between atoms: C_21  and  C_22 
ROOT
HETATM    1  C   UNL     1     -43.041  61.247 -55.675  1.00  0.00     0.034 A 
HETATM    2  C   UNL     1     -42.086  60.442 -55.067  1.00  0.00     0.032 A 
HETATM    3  C   UNL     1     -42.280  59.055 -54.989  1.00  0.00     0.031 A 
HETATM    4  C   UNL     1     -43.420  58.420 -55.512  1.00  0.00     0.030 A 
HETATM    5  C   UNL     1     -44.405  59.272 -56.035  1.00  0.00     0.031 A 
HETATM    6  C   UNL     1     -44.224  60.660 -56.115  1.00  0.00     0.032 A 
ENDROOT
BRANCH   1   7
HETATM    7  N   UNL     1     -42.915  62.642 -55.835  1.00  0.00    -0.333 N 
HETATM    8  H   UNL     1     -42.673  63.138 -54.982  1.00  0.00     0.168 HD
BRANCH   7   9
HETATM    9  C   UNL     1     -42.728  63.378 -56.953  1.00  0.00     0.179 C 
HETATM   10  S   UNL     1     -43.957  64.400 -57.450  1.00  0.00    -0.040 SA
BRANCH   9  11
HETATM   11  N   UNL     1     -41.602  63.292 -57.727  1.00  0.00    -0.300 N 
HETATM   12  C   UNL     1     -41.040  62.386 -58.612  1.00  0.00     0.247 C 
HETATM   13  O   UNL     1     -39.860  62.509 -58.935  1.00  0.00    -0.268 OA
HETATM   14  H   UNL     1     -41.017  64.115 -57.655  1.00  0.00     0.171 HD
BRANCH  12  15
HETATM   15  C   UNL     1     -41.900  61.317 -59.174  1.00  0.00     0.075 C 
HETATM   16  C   UNL     1     -41.713  60.055 -58.755  1.00  0.00     0.017 C 
BRANCH  16  17
HETATM   17  C   UNL     1     -42.487  58.879 -59.181  1.00  0.00    -0.036 A 
HETATM   18  C   UNL     1     -43.754  59.085 -59.741  1.00  0.00     0.012 A 
HETATM   19  C   UNL     1     -44.515  58.013 -60.220  1.00  0.00     0.008 A 
HETATM   20  C   UNL     1     -44.032  56.702 -60.146  1.00  0.00    -0.055 A 
HETATM   21  C   UNL     1     -42.756  56.497 -59.601  1.00  0.00     0.008 A 
HETATM   22  C   UNL     1     -41.992  57.572 -59.127  1.00  0.00     0.012 A 
BRANCH  20  23
HETATM   23  C   UNL     1     -44.820  55.517 -60.679  1.00  0.00     0.010 C 
HETATM   24  C   UNL     1     -46.300  55.881 -60.818  1.00  0.00     0.015 C 
HETATM   25  C   UNL     1     -44.656  54.246 -59.839  1.00  0.00     0.015 C 
ENDBRANCH  20  23
ENDBRANCH  16  17
ENDBRANCH  12  15
ENDBRANCH   9  11
ENDBRANCH   7   9
ENDBRANCH   1   7
BRANCH   4  26
HETATM   26  N   UNL     1     -43.563  57.030 -55.443  1.00  0.00    -0.378 N 
HETATM   27  C   UNL     1     -42.387  56.146 -55.662  1.00  0.00     0.143 C 
HETATM   28  C   UNL     1     -41.610  55.944 -54.346  1.00  0.00     0.146 C 
HETATM   29  N   UNL     1     -42.504  55.397 -53.316  1.00  0.00    -0.343 N 
HETATM   30  C   UNL     1     -42.391  54.168 -52.666  1.00  0.00     0.277 C 
HETATM   31  C   UNL     1     -43.678  56.242 -53.064  1.00  0.00     0.146 C 
HETATM   32  O   UNL     1     -43.139  53.896 -51.725  1.00  0.00    -0.265 OA
HETATM   33  C   UNL     1     -44.458  56.491 -54.376  1.00  0.00     0.143 C 
BRANCH  30  34
HETATM   34  C   UNL     1     -41.377  53.216 -53.090  1.00  0.00     0.142 A 
HETATM   35  O   UNL     1     -41.498  52.524 -54.267  1.00  0.00    -0.317 OA
HETATM   36  C   UNL     1     -40.432  51.688 -54.359  1.00  0.00     0.143 A 
HETATM   37  C   UNL     1     -39.634  51.799 -53.246  1.00  0.00     0.027 A 
HETATM   38  C   UNL     1     -40.253  52.765 -52.418  1.00  0.00     0.045 A 
ENDBRANCH  30  34
ENDBRANCH   4  26
TORSDOF 8
ENDMDL
MODEL 2
REMARK VINA RESULT:      -7.8      4.212      7.219
REMARK  8 active torsions:
REMARK  status: ('A' for Active; 'I' for Inactive)
REMARK    1  A    between atoms: C_2  and  C_3 
REMARK    2  A    between atoms: C_6  and  C_7 
REMARK    3  A    between atoms: C_8  and  C_9 
REMARK       I    between atoms: C_9  and  N_10 
REMARK    4  A    between atoms: N_10  and  C_11 
REMARK    5  A    between atoms: C_11  and  N_12 
REMARK    6  A    between atoms: N_12  and  C_13 
REMARK    7  A    between atoms: C_16  and  N_17 
REMARK       I    between atoms: N_20  and  C_21 
REMARK    8  A    between atoms: C_21  and  C_22 
ROOT
HETATM    1  C   UNL     1     -45.003  58.680 -57.425  1.00  0.00     0.034 A 
HETATM    2  C   UNL     1     -45.623  58.075 -56.339  1.00  0.00     0.032 A 
HETATM    3  C   UNL     1     -45.152  58.309 -55.038  1.00  0.00     0.031 A 
HETATM    4  C   UNL     1     -44.057  59.149 -54.770  1.00  0.00     0.030 A 
HETATM    5  C   UNL     1     -43.399  59.668 -55.894  1.00  0.00     0.031 A 
HETATM    6  C   UNL     1     -43.858  59.438 -57.199  1.00  0.00     0.032 A 
ENDROOT
BRANCH   1   7
HETATM    7  N   UNL     1     -45.429  58.535 -58.761  1.00  0.00    -0.333 N 
HETATM    8  H   UNL     1     -45.555  59.414 -59.254  1.00  0.00     0.168 HD
BRANCH   7   9
HETATM    9  C   UNL     1     -45.375  57.464 -59.582  1.00  0.00     0.179 C 
HETATM   10  S   UNL     1     -46.803  56.683 -59.971  1.00  0.00    -0.040 SA
BRANCH   9  11
HETATM   11  N   UNL     1     -44.202  56.954 -60.072  1.00  0.00    -0.300 N 
HETATM   12  C   UNL     1     -43.091  56.294 -59.574  1.00  0.00     0.247 C 
HETATM   13  O   UNL     1     -42.075  56.215 -60.263  1.00  0.00    -0.268 OA
HETATM   14  H   UNL     1     -44.116  57.071 -61.074  1.00  0.00     0.171 HD
BRANCH  12  15
HETATM   15  C   UNL     1     -43.180  55.665 -58.235  1.00  0.00     0.075 C 
HETATM   16  C   UNL     1     -42.440  56.172 -57.235  1.00  0.00     0.017 C 
BRANCH  16  17
HETATM   17  C   UNL     1     -42.423  55.696 -55.844  1.00  0.00    -0.036 A 
HETATM   18  C   UNL     1     -41.308  55.997 -55.052  1.00  0.00     0.012 A 
HETATM   19  C   UNL     1     -41.257  55.625 -53.704  1.00  0.00     0.008 A 
HETATM   20  C   UNL     1     -42.320  54.934 -53.111  1.00  0.00    -0.055 A 
HETATM   21  C   UNL     1     -43.444  54.648 -53.899  1.00  0.00     0.008 A 
HETATM   22  C   UNL     1     -43.496  55.026 -55.247  1.00  0.00     0.012 A 
BRANCH  20  23
HETATM   23  C   UNL     1     -42.309  54.537 -51.645  1.00  0.00     0.010 C 
HETATM   24  C   UNL     1     -41.219  53.497 -51.382  1.00  0.00     0.015 C 
HETATM   25  C   UNL     1     -43.665  54.034 -51.138  1.00  0.00     0.015 C 
ENDBRANCH  20  23
ENDBRANCH  16  17
ENDBRANCH  12  15
ENDBRANCH   9  11
ENDBRANCH   7   9
ENDBRANCH   1   7
BRANCH   4  26
HETATM   26  N   UNL     1     -43.637  59.382 -53.456  1.00  0.00    -0.378 N 
HETATM   27  C   UNL     1     -43.808  60.727 -52.844  1.00  0.00     0.143 C 
HETATM   28  C   UNL     1     -45.210  60.864 -52.221  1.00  0.00     0.146 C 
HETATM   29  N   UNL     1     -45.426  59.798 -51.233  1.00  0.00    -0.343 N 
HETATM   30  C   UNL     1     -45.652  59.947 -49.866  1.00  0.00     0.277 C 
HETATM   31  C   UNL     1     -45.272  58.451 -51.797  1.00  0.00     0.146 C 
HETATM   32  O   UNL     1     -45.950  58.968 -49.177  1.00  0.00    -0.265 OA
HETATM   33  C   UNL     1     -43.884  58.296 -52.461  1.00  0.00     0.143 C 
BRANCH  30  34
HETATM   34  C   UNL     1     -45.554  61.263 -49.255  1.00  0.00     0.142 A 
HETATM   35  O   UNL     1     -46.662  62.054 -49.086  1.00  0.00    -0.317 OA
HETATM   36  C   UNL     1     -46.246  63.227 -48.542  1.00  0.00     0.143 A 
HETATM   37  C   UNL     1     -44.882  63.227 -48.383  1.00  0.00     0.027 A 
HETATM   38  C   UNL     1     -44.432  61.974 -48.862  1.00  0.00     0.045 A 
ENDBRANCH  30  34
ENDBRANCH   4  26
TORSDOF 8
ENDMDL
MODEL 3
REMARK VINA RESULT:      -7.7      3.298      7.409
REMARK  8 active torsions:
REMARK  status: ('A' for Active; 'I' for Inactive)
REMARK    1  A    between atoms: C_2  and  C_3 
REMARK    2  A    between atoms: C_6  and  C_7 
REMARK    3  A    between atoms: C_8  and  C_9 
REMARK       I    between atoms: C_9  and  N_10 
REMARK    4  A    between atoms: N_10  and  C_11 
REMARK    5  A    between atoms: C_11  and  N_12 
REMARK    6  A    between atoms: N_12  and  C_13 
REMARK    7  A    between atoms: C_16  and  N_17 
REMARK       I    between atoms: N_20  and  C_21 
REMARK    8  A    between atoms: C_21  and  C_22 
ROOT
HETATM    1  C   UNL     1     -42.468  60.105 -52.422  1.00  0.00     0.034 A 
HETATM    2  C   UNL     1     -43.233  60.628 -53.458  1.00  0.00     0.032 A 
HETATM    3  C   UNL     1     -43.024  60.195 -54.776  1.00  0.00     0.031 A 
HETATM    4  C   UNL     1     -42.057  59.232 -55.111  1.00  0.00     0.030 A 
HETATM    5  C   UNL     1     -41.243  58.795 -54.056  1.00  0.00     0.031 A 
HETATM    6  C   UNL     1     -41.439  59.223 -52.735  1.00  0.00     0.032 A 
ENDROOT
BRANCH   1   7
HETATM    7  N   UNL     1     -42.633  60.450 -51.065  1.00  0.00    -0.333 N 
HETATM    8  H   UNL     1     -41.762  60.598 -50.565  1.00  0.00     0.168 HD
BRANCH   7   9
HETATM    9  C   UNL     1     -43.713  60.937 -50.414  1.00  0.00     0.179 C 
HETATM   10  S   UNL     1     -43.700  62.541 -49.937  1.00  0.00    -0.040 SA
BRANCH   9  11
HETATM   11  N   UNL     1     -44.797  60.169 -50.082  1.00  0.00    -0.300 N 
HETATM   12  C   UNL     1     -45.418  59.024 -50.553  1.00  0.00     0.247 C 
HETATM   13  O   UNL     1     -46.554  58.751 -50.170  1.00  0.00    -0.268 OA
HETATM   14  H   UNL     1     -45.278  60.512 -49.260  1.00  0.00     0.171 HD
BRANCH  12  15
HETATM   15  C   UNL     1     -44.669  58.140 -51.477  1.00  0.00     0.075 C 
HETATM   16  C   UNL     1     -44.155  56.995 -50.998  1.00  0.00     0.017 C 
BRANCH  16  17
HETATM   17  C   UNL     1     -43.412  55.990 -51.772  1.00  0.00    -0.036 A 
HETATM   18  C   UNL     1     -43.417  56.090 -53.169  1.00  0.00     0.012 A 
HETATM   19  C   UNL     1     -42.681  55.201 -53.960  1.00  0.00     0.008 A 
HETATM   20  C   UNL     1     -41.923  54.181 -53.375  1.00  0.00    -0.055 A 
HETATM   21  C   UNL     1     -41.904  54.091 -51.975  1.00  0.00     0.008 A 
HETATM   22  C   UNL     1     -42.636  54.985 -51.184  1.00  0.00     0.012 A 
BRANCH  20  23
HETATM   23  C   UNL     1     -41.092  53.214 -54.202  1.00  0.00     0.010 C 
HETATM   24  C   UNL     1     -40.228  52.340 -53.291  1.00  0.00     0.015 C 
HETATM   25  C   UNL     1     -40.228  53.903 -55.262  1.00  0.00     0.015 C 
ENDBRANCH  20  23
ENDBRANCH  16  17
ENDBRANCH  12  15
ENDBRANCH   9  11
ENDBRANCH   7   9
ENDBRANCH   1   7
BRANCH   4  26
HETATM   26  N   UNL     1     -41.901  58.803 -56.433  1.00  0.00    -0.378 N 
HETATM   27  C   UNL     1     -42.533  57.536 -56.888  1.00  0.00     0.143 C 
HETATM   28  C   UNL     1     -43.985  57.788 -57.340  1.00  0.00     0.146 C 
HETATM   29  N   UNL     1     -44.011  58.807 -58.398  1.00  0.00    -0.343 N 
HETATM   30  C   UNL     1     -44.450  58.648 -59.712  1.00  0.00     0.277 C 
HETATM   31  C   UNL     1     -43.399  60.078 -57.989  1.00  0.00     0.146 C 
HETATM   32  O   UNL     1     -44.539  59.628 -60.457  1.00  0.00    -0.265 OA
HETATM   33  C   UNL     1     -41.951  59.850 -57.498  1.00  0.00     0.143 C 
BRANCH  30  34
HETATM   34  C   UNL     1     -44.819  57.328 -60.197  1.00  0.00     0.142 A 
HETATM   35  O   UNL     1     -46.133  56.948 -60.294  1.00  0.00    -0.317 OA
HETATM   36  C   UNL     1     -46.154  55.661 -60.727  1.00  0.00     0.143 A 
HETATM   37  C   UNL     1     -44.875  55.184 -60.883  1.00  0.00     0.027 A 
HETATM   38  C   UNL     1     -44.015  56.249 -60.521  1.00  0.00     0.045 A 
ENDBRANCH  30  34
ENDBRANCH   4  26
TORSDOF 8
ENDMDL
MODEL 4
REMARK VINA RESULT:      -7.6      4.708      7.776
REMARK  8 active torsions:
REMARK  status: ('A' for Active; 'I' for Inactive)
REMARK    1  A    between atoms: C_2  and  C_3 
REMARK    2  A    between atoms: C_6  and  C_7 
REMARK    3  A    between atoms: C_8  and  C_9 
REMARK       I    between atoms: C_9  and  N_10 
REMARK    4  A    between atoms: N_10  and  C_11 
REMARK    5  A    between atoms: C_11  and  N_12 
REMARK    6  A    between atoms: N_12  and  C_13 
REMARK    7  A    between atoms: C_16  and  N_17 
REMARK       I    between atoms: N_20  and  C_21 
REMARK    8  A    between atoms: C_21  and  C_22 
ROOT
HETATM    1  C   UNL     1     -43.148  59.072 -55.508  1.00  0.00     0.034 A 
HETATM    2  C   UNL     1     -42.845  58.491 -54.283  1.00  0.00     0.032 A 
HETATM    3  C   UNL     1     -43.727  58.628 -53.200  1.00  0.00     0.031 A 
HETATM    4  C   UNL     1     -44.935  59.340 -53.294  1.00  0.00     0.030 A 
HETATM    5  C   UNL     1     -45.164  59.990 -54.516  1.00  0.00     0.031 A 
HETATM    6  C   UNL     1     -44.289  59.864 -55.604  1.00  0.00     0.032 A 
ENDROOT
BRANCH   1   7
HETATM    7  N   UNL     1     -42.344  58.955 -56.660  1.00  0.00    -0.333 N 
HETATM    8  H   UNL     1     -41.361  58.793 -56.466  1.00  0.00     0.168 HD
BRANCH   7   9
HETATM    9  C   UNL     1     -42.688  58.689 -57.939  1.00  0.00     0.179 C 
HETATM   10  S   UNL     1     -42.224  59.768 -59.132  1.00  0.00    -0.040 SA
BRANCH   9  11
HETATM   11  N   UNL     1     -43.442  57.605 -58.302  1.00  0.00    -0.300 N 
HETATM   12  C   UNL     1     -43.385  56.229 -58.155  1.00  0.00     0.247 C 
HETATM   13  O   UNL     1     -44.105  55.515 -58.852  1.00  0.00    -0.268 OA
HETATM   14  H   UNL     1     -44.281  57.866 -58.805  1.00  0.00     0.171 HD
BRANCH  12  15
HETATM   15  C   UNL     1     -42.481  55.662 -57.125  1.00  0.00     0.075 C 
HETATM   16  C   UNL     1     -43.018  55.181 -55.992  1.00  0.00     0.017 C 
BRANCH  16  17
HETATM   17  C   UNL     1     -42.280  54.561 -54.881  1.00  0.00    -0.036 A 
HETATM   18  C   UNL     1     -41.057  53.940 -55.161  1.00  0.00     0.012 A 
HETATM   19  C   UNL     1     -40.278  53.384 -54.140  1.00  0.00     0.008 A 
HETATM   20  C   UNL     1     -40.707  53.428 -52.808  1.00  0.00    -0.055 A 
HETATM   21  C   UNL     1     -41.924  54.064 -52.526  1.00  0.00     0.008 A 
HETATM   22  C   UNL     1     -42.699  54.626 -53.549  1.00  0.00     0.012 A 
BRANCH  20  23
HETATM   23  C   UNL     1     -39.875  52.856 -51.672  1.00  0.00     0.010 C 
HETATM   24  C   UNL     1     -39.362  51.462 -52.036  1.00  0.00     0.015 C 
HETATM   25  C   UNL     1     -40.616  52.823 -50.331  1.00  0.00     0.015 C 
ENDBRANCH  20  23
ENDBRANCH  16  17
ENDBRANCH  12  15
ENDBRANCH   9  11
ENDBRANCH   7   9
ENDBRANCH   1   7
BRANCH   4  26
HETATM   26  N   UNL     1     -45.803  59.427 -52.201  1.00  0.00    -0.378 N 
HETATM   27  C   UNL     1     -45.336  59.042 -50.842  1.00  0.00     0.143 C 
HETATM   28  C   UNL     1     -44.646  60.234 -50.151  1.00  0.00     0.146 C 
HETATM   29  N   UNL     1     -45.564  61.381 -50.094  1.00  0.00    -0.343 N 
HETATM   30  C   UNL     1     -46.064  62.006 -48.953  1.00  0.00     0.277 C 
HETATM   31  C   UNL     1     -46.047  61.797 -51.417  1.00  0.00     0.146 C 
HETATM   32  O   UNL     1     -46.723  63.044 -49.056  1.00  0.00    -0.265 OA
HETATM   33  C   UNL     1     -46.714  60.609 -52.150  1.00  0.00     0.143 C 
BRANCH  30  34
HETATM   34  C   UNL     1     -45.793  61.442 -47.641  1.00  0.00     0.142 A 
HETATM   35  O   UNL     1     -46.491  60.359 -47.173  1.00  0.00    -0.317 OA
HETATM   36  C   UNL     1     -46.048  60.102 -45.915  1.00  0.00     0.143 A 
HETATM   37  C   UNL     1     -45.096  61.018 -45.542  1.00  0.00     0.027 A 
HETATM   38  C   UNL     1     -44.946  61.895 -46.643  1.00  0.00     0.045 A 
ENDBRANCH  30  34
ENDBRANCH   4  26
TORSDOF 8
ENDMDL
MODEL 5
REMARK VINA RESULT:      -7.4      5.062      8.853
REMARK  8 active torsions:
REMARK  status: ('A' for Active; 'I' for Inactive)
REMARK    1  A    between atoms: C_2  and  C_3 
REMARK    2  A    between atoms: C_6  and  C_7 
REMARK    3  A    between atoms: C_8  and  C_9 
REMARK       I    between atoms: C_9  and  N_10 
REMARK    4  A    between atoms: N_10  and  C_11 
REMARK    5  A    between atoms: C_11  and  N_12 
REMARK    6  A    between atoms: N_12  and  C_13 
REMARK    7  A    between atoms: C_16  and  N_17 
REMARK       I    between atoms: N_20  and  C_21 
REMARK    8  A    between atoms: C_21  and  C_22 
ROOT
HETATM    1  C   UNL     1     -42.316  55.462 -50.578  1.00  0.00     0.034 A 
HETATM    2  C   UNL     1     -41.432  56.533 -50.562  1.00  0.00     0.032 A 
HETATM    3  C   UNL     1     -41.851  57.799 -50.998  1.00  0.00     0.031 A 
HETATM    4  C   UNL     1     -43.155  58.047 -51.459  1.00  0.00     0.030 A 
HETATM    5  C   UNL     1     -43.992  56.924 -51.548  1.00  0.00     0.031 A 
HETATM    6  C   UNL     1     -43.584  55.653 -51.120  1.00  0.00     0.032 A 
ENDROOT
BRANCH   1   7
HETATM    7  N   UNL     1     -41.997  54.166 -50.123  1.00  0.00    -0.333 N 
HETATM    8  H   UNL     1     -42.682  53.458 -50.371  1.00  0.00     0.168 HD
BRANCH   7   9
HETATM    9  C   UNL     1     -40.815  53.649 -49.722  1.00  0.00     0.179 C 
HETATM   10  S   UNL     1     -40.300  53.951 -48.159  1.00  0.00    -0.040 SA
BRANCH   9  11
HETATM   11  N   UNL     1     -39.992  52.932 -50.549  1.00  0.00    -0.300 N 
HETATM   12  C   UNL     1     -40.000  52.489 -51.862  1.00  0.00     0.247 C 
HETATM   13  O   UNL     1     -39.203  51.621 -52.213  1.00  0.00    -0.268 OA
HETATM   14  H   UNL     1     -39.131  52.654 -50.095  1.00  0.00     0.171 HD
BRANCH  12  15
HETATM   15  C   UNL     1     -40.950  53.113 -52.815  1.00  0.00     0.075 C 
HETATM   16  C   UNL     1     -40.603  54.266 -53.408  1.00  0.00     0.017 C 
BRANCH  16  17
HETATM   17  C   UNL     1     -41.403  55.006 -54.396  1.00  0.00    -0.036 A 
HETATM   18  C   UNL     1     -41.403  56.405 -54.336  1.00  0.00     0.012 A 
HETATM   19  C   UNL     1     -42.095  57.168 -55.283  1.00  0.00     0.008 A 
HETATM   20  C   UNL     1     -42.814  56.552 -56.313  1.00  0.00    -0.055 A 
HETATM   21  C   UNL     1     -42.801  55.152 -56.382  1.00  0.00     0.008 A 
HETATM   22  C   UNL     1     -42.102  54.389 -55.438  1.00  0.00     0.012 A 
BRANCH  20  23
HETATM   23  C   UNL     1     -43.556  57.351 -57.371  1.00  0.00     0.010 C 
HETATM   24  C   UNL     1     -44.822  57.973 -56.780  1.00  0.00     0.015 C 
HETATM   25  C   UNL     1     -43.894  56.537 -58.625  1.00  0.00     0.015 C 
ENDBRANCH  20  23
ENDBRANCH  16  17
ENDBRANCH  12  15
ENDBRANCH   9  11
ENDBRANCH   7   9
ENDBRANCH   1   7
BRANCH   4  26
HETATM   26  N   UNL     1     -43.544  59.330 -51.856  1.00  0.00    -0.378 N 
HETATM   27  C   UNL     1     -44.978  59.723 -51.816  1.00  0.00     0.143 C 
HETATM   28  C   UNL     1     -45.357  60.244 -50.416  1.00  0.00     0.146 C 
HETATM   29  N   UNL     1     -44.486  61.369 -50.047  1.00  0.00    -0.343 N 
HETATM   30  C   UNL     1     -44.869  62.685 -49.791  1.00  0.00     0.277 C 
HETATM   31  C   UNL     1     -43.059  61.023 -50.069  1.00  0.00     0.146 C 
HETATM   32  O   UNL     1     -44.045  63.496 -49.361  1.00  0.00    -0.265 OA
HETATM   33  C   UNL     1     -42.658  60.464 -51.454  1.00  0.00     0.143 C 
BRANCH  30  34
HETATM   34  C   UNL     1     -46.246  63.094 -50.014  1.00  0.00     0.142 A 
HETATM   35  O   UNL     1     -46.733  63.294 -51.280  1.00  0.00    -0.317 OA
HETATM   36  C   UNL     1     -48.020  63.713 -51.159  1.00  0.00     0.143 A 
HETATM   37  C   UNL     1     -48.370  63.820 -49.836  1.00  0.00     0.027 A 
HETATM   38  C   UNL     1     -47.223  63.445 -49.097  1.00  0.00     0.045 A 
ENDBRANCH  30  34
ENDBRANCH   4  26
TORSDOF 8
ENDMDL
MODEL 6
REMARK VINA RESULT:      -7.4      3.283      8.277
REMARK  8 active torsions:
REMARK  status: ('A' for Active; 'I' for Inactive)
REMARK    1  A    between atoms: C_2  and  C_3 
REMARK    2  A    between atoms: C_6  and  C_7 
REMARK    3  A    between atoms: C_8  and  C_9 
REMARK       I    between atoms: C_9  and  N_10 
REMARK    4  A    between atoms: N_10  and  C_11 
REMARK    5  A    between atoms: C_11  and  N_12 
REMARK    6  A    between atoms: N_12  and  C_13 
REMARK    7  A    between atoms: C_16  and  N_17 
REMARK       I    between atoms: N_20  and  C_21 
REMARK    8  A    between atoms: C_21  and  C_22 
ROOT
HETATM    1  C   UNL     1     -41.882  59.597 -53.737  1.00  0.00     0.034 A 
HETATM    2  C   UNL     1     -41.763  58.339 -54.316  1.00  0.00     0.032 A 
HETATM    3  C   UNL     1     -42.090  58.151 -55.667  1.00  0.00     0.031 A 
HETATM    4  C   UNL     1     -42.543  59.199 -56.488  1.00  0.00     0.030 A 
HETATM    5  C   UNL     1     -42.740  60.431 -55.848  1.00  0.00     0.031 A 
HETATM    6  C   UNL     1     -42.420  60.631 -54.498  1.00  0.00     0.032 A 
ENDROOT
BRANCH   1   7
HETATM    7  N   UNL     1     -41.539  59.888 -52.401  1.00  0.00    -0.333 N 
HETATM    8  H   UNL     1     -41.144  60.814 -52.266  1.00  0.00     0.168 HD
BRANCH   7   9
HETATM    9  C   UNL     1     -41.943  59.306 -51.250  1.00  0.00     0.179 C 
HETATM   10  S   UNL     1     -40.869  59.244 -49.968  1.00  0.00    -0.040 SA
BRANCH   9  11
HETATM   11  N   UNL     1     -43.171  58.719 -51.098  1.00  0.00    -0.300 N 
HETATM   12  C   UNL     1     -43.724  57.459 -51.252  1.00  0.00     0.247 C 
HETATM   13  O   UNL     1     -44.947  57.335 -51.288  1.00  0.00    -0.268 OA
HETATM   14  H   UNL     1     -43.874  59.370 -50.770  1.00  0.00     0.171 HD
BRANCH  12  15
HETATM   15  C   UNL     1     -42.816  56.290 -51.327  1.00  0.00     0.075 C 
HETATM   16  C   UNL     1     -42.767  55.585 -52.470  1.00  0.00     0.017 C 
BRANCH  16  17
HETATM   17  C   UNL     1     -41.908  54.420 -52.731  1.00  0.00    -0.036 A 
HETATM   18  C   UNL     1     -41.093  53.950 -51.694  1.00  0.00     0.012 A 
HETATM   19  C   UNL     1     -40.299  52.810 -51.860  1.00  0.00     0.008 A 
HETATM   20  C   UNL     1     -40.292  52.112 -53.073  1.00  0.00    -0.055 A 
HETATM   21  C   UNL     1     -41.120  52.573 -54.106  1.00  0.00     0.008 A 
HETATM   22  C   UNL     1     -41.920  53.711 -53.936  1.00  0.00     0.012 A 
BRANCH  20  23
HETATM   23  C   UNL     1     -39.461  50.857 -53.279  1.00  0.00     0.010 C 
HETATM   24  C   UNL     1     -39.892  50.136 -54.558  1.00  0.00     0.015 C 
HETATM   25  C   UNL     1     -39.495  49.898 -52.085  1.00  0.00     0.015 C 
ENDBRANCH  20  23
ENDBRANCH  16  17
ENDBRANCH  12  15
ENDBRANCH   9  11
ENDBRANCH   7   9
ENDBRANCH   1   7
BRANCH   4  26
HETATM   26  N   UNL     1     -42.830  58.978 -57.839  1.00  0.00    -0.378 N 
HETATM   27  C   UNL     1     -43.722  57.858 -58.241  1.00  0.00     0.143 C 
HETATM   28  C   UNL     1     -45.198  58.298 -58.193  1.00  0.00     0.146 C 
HETATM   29  N   UNL     1     -45.399  59.474 -59.052  1.00  0.00    -0.343 N 
HETATM   30  C   UNL     1     -46.214  59.566 -60.179  1.00  0.00     0.277 C 
HETATM   31  C   UNL     1     -44.540  60.607 -58.686  1.00  0.00     0.146 C 
HETATM   32  O   UNL     1     -46.390  60.657 -60.727  1.00  0.00    -0.265 OA
HETATM   33  C   UNL     1     -43.052  60.184 -58.692  1.00  0.00     0.143 C 
BRANCH  30  34
HETATM   34  C   UNL     1     -46.872  58.377 -60.696  1.00  0.00     0.142 A 
HETATM   35  O   UNL     1     -46.330  57.130 -60.520  1.00  0.00    -0.317 OA
HETATM   36  C   UNL     1     -47.140  56.241 -61.150  1.00  0.00     0.143 A 
HETATM   37  C   UNL     1     -48.185  56.891 -61.761  1.00  0.00     0.027 A 
HETATM   38  C   UNL     1     -48.002  58.267 -61.490  1.00  0.00     0.045 A 
ENDBRANCH  30  34
ENDBRANCH   4  26
TORSDOF 8
ENDMDL
MODEL 7
REMARK VINA RESULT:      -7.4      3.278      9.097
REMARK  8 active torsions:
REMARK  status: ('A' for Active; 'I' for Inactive)
REMARK    1  A    between atoms: C_2  and  C_3 
REMARK    2  A    between atoms: C_6  and  C_7 
REMARK    3  A    between atoms: C_8  and  C_9 
REMARK       I    between atoms: C_9  and  N_10 
REMARK    4  A    between atoms: N_10  and  C_11 
REMARK    5  A    between atoms: C_11  and  N_12 
REMARK    6  A    between atoms: N_12  and  C_13 
REMARK    7  A    between atoms: C_16  and  N_17 
REMARK       I    between atoms: N_20  and  C_21 
REMARK    8  A    between atoms: C_21  and  C_22 
ROOT
HETATM    1  C   UNL     1     -41.783  59.388 -53.694  1.00  0.00     0.034 A 
HETATM    2  C   UNL     1     -41.799  58.690 -54.895  1.00  0.00     0.032 A 
HETATM    3  C   UNL     1     -42.248  59.315 -56.068  1.00  0.00     0.031 A 
HETATM    4  C   UNL     1     -42.692  60.648 -56.092  1.00  0.00     0.030 A 
HETATM    5  C   UNL     1     -42.750  61.292 -54.847  1.00  0.00     0.031 A 
HETATM    6  C   UNL     1     -42.308  60.677 -53.668  1.00  0.00     0.032 A 
ENDROOT
BRANCH   1   7
HETATM    7  N   UNL     1     -41.313  58.857 -52.476  1.00  0.00    -0.333 N 
HETATM    8  H   UNL     1     -40.319  58.649 -52.469  1.00  0.00     0.168 HD
BRANCH   7   9
HETATM    9  C   UNL     1     -41.861  58.891 -51.241  1.00  0.00     0.179 C 
HETATM   10  S   UNL     1     -40.947  59.502 -49.979  1.00  0.00    -0.040 SA
BRANCH   9  11
HETATM   11  N   UNL     1     -43.110  58.404 -50.962  1.00  0.00    -0.300 N 
HETATM   12  C   UNL     1     -43.769  57.188 -51.033  1.00  0.00     0.247 C 
HETATM   13  O   UNL     1     -44.996  57.159 -50.952  1.00  0.00    -0.268 OA
HETATM   14  H   UNL     1     -43.728  59.112 -50.586  1.00  0.00     0.171 HD
BRANCH  12  15
HETATM   15  C   UNL     1     -42.963  55.950 -51.164  1.00  0.00     0.075 C 
HETATM   16  C   UNL     1     -42.622  55.531 -52.393  1.00  0.00     0.017 C 
BRANCH  16  17
HETATM   17  C   UNL     1     -41.807  54.348 -52.709  1.00  0.00    -0.036 A 
HETATM   18  C   UNL     1     -40.995  53.813 -51.701  1.00  0.00     0.012 A 
HETATM   19  C   UNL     1     -40.242  52.654 -51.919  1.00  0.00     0.008 A 
HETATM   20  C   UNL     1     -40.275  52.001 -53.156  1.00  0.00    -0.055 A 
HETATM   21  C   UNL     1     -41.102  52.526 -54.160  1.00  0.00     0.008 A 
HETATM   22  C   UNL     1     -41.860  53.684 -53.938  1.00  0.00     0.012 A 
BRANCH  20  23
HETATM   23  C   UNL     1     -39.490  50.727 -53.419  1.00  0.00     0.010 C 
HETATM   24  C   UNL     1     -40.042  50.005 -54.650  1.00  0.00     0.015 C 
HETATM   25  C   UNL     1     -39.444  49.778 -52.217  1.00  0.00     0.015 C 
ENDBRANCH  20  23
ENDBRANCH  16  17
ENDBRANCH  12  15
ENDBRANCH   9  11
ENDBRANCH   7   9
ENDBRANCH   1   7
BRANCH   4  26
HETATM   26  N   UNL     1     -43.103  61.246 -57.288  1.00  0.00    -0.378 N 
HETATM   27  C   UNL     1     -42.353  62.405 -57.841  1.00  0.00     0.143 C 
HETATM   28  C   UNL     1     -41.172  61.922 -58.706  1.00  0.00     0.146 C 
HETATM   29  N   UNL     1     -41.663  61.044 -59.778  1.00  0.00    -0.343 N 
HETATM   30  C   UNL     1     -41.574  61.260 -61.153  1.00  0.00     0.277 C 
HETATM   31  C   UNL     1     -42.407  59.882 -59.275  1.00  0.00     0.146 C 
HETATM   32  O   UNL     1     -41.911  60.372 -61.940  1.00  0.00    -0.265 OA
HETATM   33  C   UNL     1     -43.579  60.337 -58.374  1.00  0.00     0.143 C 
BRANCH  30  34
HETATM   34  C   UNL     1     -41.066  62.526 -61.655  1.00  0.00     0.142 A 
HETATM   35  O   UNL     1     -41.907  63.577 -61.915  1.00  0.00    -0.317 OA
HETATM   36  C   UNL     1     -41.151  64.589 -62.414  1.00  0.00     0.143 A 
HETATM   37  C   UNL     1     -39.836  64.205 -62.513  1.00  0.00     0.027 A 
HETATM   38  C   UNL     1     -39.783  62.870 -62.047  1.00  0.00     0.045 A 
ENDBRANCH  30  34
ENDBRANCH   4  26
TORSDOF 8
ENDMDL
MODEL 8
REMARK VINA RESULT:      -7.4      3.443      8.886
REMARK  8 active torsions:
REMARK  status: ('A' for Active; 'I' for Inactive)
REMARK    1  A    between atoms: C_2  and  C_3 
REMARK    2  A    between atoms: C_6  and  C_7 
REMARK    3  A    between atoms: C_8  and  C_9 
REMARK       I    between atoms: C_9  and  N_10 
REMARK    4  A    between atoms: N_10  and  C_11 
REMARK    5  A    between atoms: C_11  and  N_12 
REMARK    6  A    between atoms: N_12  and  C_13 
REMARK    7  A    between atoms: C_16  and  N_17 
REMARK       I    between atoms: N_20  and  C_21 
REMARK    8  A    between atoms: C_21  and  C_22 
ROOT
HETATM    1  C   UNL     1     -42.100  54.406 -53.672  1.00  0.00     0.034 A 
HETATM    2  C   UNL     1     -43.443  54.746 -53.778  1.00  0.00     0.032 A 
HETATM    3  C   UNL     1     -43.818  55.949 -54.396  1.00  0.00     0.031 A 
HETATM    4  C   UNL     1     -42.880  56.850 -54.929  1.00  0.00     0.030 A 
HETATM    5  C   UNL     1     -41.533  56.519 -54.722  1.00  0.00     0.031 A 
HETATM    6  C   UNL     1     -41.145  55.322 -54.103  1.00  0.00     0.032 A 
ENDROOT
BRANCH   1   7
HETATM    7  N   UNL     1     -41.632  53.203 -53.105  1.00  0.00    -0.333 N 
HETATM    8  H   UNL     1     -41.651  52.409 -53.738  1.00  0.00     0.168 HD
BRANCH   7   9
HETATM    9  C   UNL     1     -40.866  52.996 -52.010  1.00  0.00     0.179 C 
HETATM   10  S   UNL     1     -39.378  52.256 -52.206  1.00  0.00    -0.040 SA
BRANCH   9  11
HETATM   11  N   UNL     1     -41.270  53.316 -50.742  1.00  0.00    -0.300 N 
HETATM   12  C   UNL     1     -41.386  54.457 -49.966  1.00  0.00     0.247 C 
HETATM   13  O   UNL     1     -41.535  54.351 -48.750  1.00  0.00    -0.268 OA
HETATM   14  H   UNL     1     -41.588  52.508 -50.220  1.00  0.00     0.171 HD
BRANCH  12  15
HETATM   15  C   UNL     1     -41.367  55.778 -50.641  1.00  0.00     0.075 C 
HETATM   16  C   UNL     1     -42.520  56.456 -50.761  1.00  0.00     0.017 C 
BRANCH  16  17
HETATM   17  C   UNL     1     -42.683  57.784 -51.372  1.00  0.00    -0.036 A 
HETATM   18  C   UNL     1     -41.536  58.461 -51.804  1.00  0.00     0.012 A 
HETATM   19  C   UNL     1     -41.628  59.701 -52.446  1.00  0.00     0.008 A 
HETATM   20  C   UNL     1     -42.872  60.301 -52.670  1.00  0.00    -0.055 A 
HETATM   21  C   UNL     1     -44.022  59.615 -52.253  1.00  0.00     0.008 A 
HETATM   22  C   UNL     1     -43.929  58.371 -51.614  1.00  0.00     0.012 A 
BRANCH  20  23
HETATM   23  C   UNL     1     -43.011  61.634 -53.386  1.00  0.00     0.010 C 
HETATM   24  C   UNL     1     -43.369  62.740 -52.392  1.00  0.00     0.015 C 
HETATM   25  C   UNL     1     -44.018  61.604 -54.541  1.00  0.00     0.015 C 
ENDBRANCH  20  23
ENDBRANCH  16  17
ENDBRANCH  12  15
ENDBRANCH   9  11
ENDBRANCH   7   9
ENDBRANCH   1   7
BRANCH   4  26
HETATM   26  N   UNL     1     -43.295  58.024 -55.566  1.00  0.00    -0.378 N 
HETATM   27  C   UNL     1     -42.312  58.865 -56.300  1.00  0.00     0.143 C 
HETATM   28  C   UNL     1     -42.144  58.362 -57.747  1.00  0.00     0.146 C 
HETATM   29  N   UNL     1     -43.447  58.349 -58.426  1.00  0.00    -0.343 N 
HETATM   30  C   UNL     1     -43.821  59.087 -59.549  1.00  0.00     0.277 C 
HETATM   31  C   UNL     1     -44.449  57.526 -57.737  1.00  0.00     0.146 C 
HETATM   32  O   UNL     1     -44.908  58.877 -60.093  1.00  0.00    -0.265 OA
HETATM   33  C   UNL     1     -44.612  57.986 -56.269  1.00  0.00     0.143 C 
BRANCH  30  34
HETATM   34  C   UNL     1     -42.920  60.094 -60.086  1.00  0.00     0.142 A 
HETATM   35  O   UNL     1     -42.871  61.359 -59.560  1.00  0.00    -0.317 OA
HETATM   36  C   UNL     1     -41.980  62.072 -60.298  1.00  0.00     0.143 A 
HETATM   37  C   UNL     1     -41.472  61.302 -61.316  1.00  0.00     0.027 A 
HETATM   38  C   UNL     1     -42.092  60.036 -61.195  1.00  0.00     0.045 A 
ENDBRANCH  30  34
ENDBRANCH   4  26
TORSDOF 8
ENDMDL
MODEL 9
REMARK VINA RESULT:      -7.3      3.290      9.009
REMARK  8 active torsions:
REMARK  status: ('A' for Active; 'I' for Inactive)
REMARK    1  A    between atoms: C_2  and  C_3 
REMARK    2  A    between atoms: C_6  and  C_7 
REMARK    3  A    between atoms: C_8  and  C_9 
REMARK       I    between atoms: C_9  and  N_10 
REMARK    4  A    between atoms: N_10  and  C_11 
REMARK    5  A    between atoms: C_11  and  N_12 
REMARK    6  A    between atoms: N_12  and  C_13 
REMARK    7  A    between atoms: C_16  and  N_17 
REMARK       I    between atoms: N_20  and  C_21 
REMARK    8  A    between atoms: C_21  and  C_22 
ROOT
HETATM    1  C   UNL     1     -44.440  57.145 -55.014  1.00  0.00     0.034 A 
HETATM    2  C   UNL     1     -45.312  58.021 -55.648  1.00  0.00     0.032 A 
HETATM    3  C   UNL     1     -45.230  58.216 -57.036  1.00  0.00     0.031 A 
HETATM    4  C   UNL     1     -44.288  57.550 -57.838  1.00  0.00     0.030 A 
HETATM    5  C   UNL     1     -43.366  56.745 -57.153  1.00  0.00     0.031 A 
HETATM    6  C   UNL     1     -43.435  56.546 -55.767  1.00  0.00     0.032 A 
ENDROOT
BRANCH   1   7
HETATM    7  N   UNL     1     -44.473  56.856 -53.634  1.00  0.00    -0.333 N 
HETATM    8  H   UNL     1     -44.561  55.868 -53.418  1.00  0.00     0.168 HD
BRANCH   7   9
HETATM    9  C   UNL     1     -44.078  57.602 -52.578  1.00  0.00     0.179 C 
HETATM   10  S   UNL     1     -45.028  57.600 -51.201  1.00  0.00    -0.040 SA
BRANCH   9  11
HETATM   11  N   UNL     1     -42.964  58.398 -52.598  1.00  0.00    -0.300 N 
HETATM   12  C   UNL     1     -41.593  58.230 -52.694  1.00  0.00     0.247 C 
HETATM   13  O   UNL     1     -40.847  59.164 -52.404  1.00  0.00    -0.268 OA
HETATM   14  H   UNL     1     -43.190  59.383 -52.542  1.00  0.00     0.171 HD
BRANCH  12  15
HETATM   15  C   UNL     1     -41.070  56.932 -53.185  1.00  0.00     0.075 C 
HETATM   16  C   UNL     1     -41.073  55.880 -52.351  1.00  0.00     0.017 C 
BRANCH  16  17
HETATM   17  C   UNL     1     -40.621  54.518 -52.675  1.00  0.00    -0.036 A 
HETATM   18  C   UNL     1     -40.273  53.666 -51.620  1.00  0.00     0.012 A 
HETATM   19  C   UNL     1     -39.892  52.340 -51.858  1.00  0.00     0.008 A 
HETATM   20  C   UNL     1     -39.844  51.831 -53.161  1.00  0.00    -0.055 A 
HETATM   21  C   UNL     1     -40.210  52.680 -54.216  1.00  0.00     0.008 A 
HETATM   22  C   UNL     1     -40.596  54.005 -53.976  1.00  0.00     0.012 A 
BRANCH  20  23
HETATM   23  C   UNL     1     -39.460  50.391 -53.453  1.00  0.00     0.010 C 
HETATM   24  C   UNL     1     -40.170  49.895 -54.715  1.00  0.00     0.015 C 
HETATM   25  C   UNL     1     -39.722  49.439 -52.281  1.00  0.00     0.015 C 
ENDBRANCH  20  23
ENDBRANCH  16  17
ENDBRANCH  12  15
ENDBRANCH   9  11
ENDBRANCH   7   9
ENDBRANCH   1   7
BRANCH   4  26
HETATM   26  N   UNL     1     -44.259  57.746 -59.223  1.00  0.00    -0.378 N 
HETATM   27  C   UNL     1     -45.176  58.729 -59.858  1.00  0.00     0.143 C 
HETATM   28  C   UNL     1     -44.558  60.141 -59.833  1.00  0.00     0.146 C 
HETATM   29  N   UNL     1     -43.248  60.125 -60.500  1.00  0.00    -0.343 N 
HETATM   30  C   UNL     1     -42.876  60.826 -61.647  1.00  0.00     0.277 C 
HETATM   31  C   UNL     1     -42.308  59.170 -59.900  1.00  0.00     0.146 C 
HETATM   32  O   UNL     1     -41.701  60.822 -62.020  1.00  0.00    -0.265 OA
HETATM   33  C   UNL     1     -42.918  57.749 -59.880  1.00  0.00     0.143 C 
BRANCH  30  34
HETATM   34  C   UNL     1     -43.874  61.576 -62.392  1.00  0.00     0.142 A 
HETATM   35  O   UNL     1     -44.200  62.863 -62.048  1.00  0.00    -0.317 OA
HETATM   36  C   UNL     1     -45.185  63.272 -62.889  1.00  0.00     0.143 A 
HETATM   37  C   UNL     1     -45.530  62.263 -63.755  1.00  0.00     0.027 A 
HETATM   38  C   UNL     1     -44.704  61.163 -63.421  1.00  0.00     0.045 A 
ENDBRANCH  30  34
ENDBRANCH   4  26
TORSDOF 8
ENDMDL
MODEL 10
REMARK VINA RESULT:      -7.2      3.692      6.965
REMARK  8 active torsions:
REMARK  status: ('A' for Active; 'I' for Inactive)
REMARK    1  A    between atoms: C_2  and  C_3 
REMARK    2  A    between atoms: C_6  and  C_7 
REMARK    3  A    between atoms: C_8  and  C_9 
REMARK       I    between atoms: C_9  and  N_10 
REMARK    4  A    between atoms: N_10  and  C_11 
REMARK    5  A    between atoms: C_11  and  N_12 
REMARK    6  A    between atoms: N_12  and  C_13 
REMARK    7  A    between atoms: C_16  and  N_17 
REMARK       I    between atoms: N_20  and  C_21 
REMARK    8  A    between atoms: C_21  and  C_22 
ROOT
HETATM    1  C   UNL     1     -44.969  62.025 -53.520  1.00  0.00     0.034 A 
HETATM    2  C   UNL     1     -45.753  60.911 -53.793  1.00  0.00     0.032 A 
HETATM    3  C   UNL     1     -45.188  59.785 -54.410  1.00  0.00     0.031 A 
HETATM    4  C   UNL     1     -43.832  59.723 -54.774  1.00  0.00     0.030 A 
HETATM    5  C   UNL     1     -43.093  60.897 -54.568  1.00  0.00     0.031 A 
HETATM    6  C   UNL     1     -43.647  62.030 -53.956  1.00  0.00     0.032 A 
ENDROOT
BRANCH   1   7
HETATM    7  N   UNL     1     -45.439  63.183 -52.868  1.00  0.00    -0.333 N 
HETATM    8  H   UNL     1     -45.614  63.967 -53.489  1.00  0.00     0.168 HD
BRANCH   7   9
HETATM    9  C   UNL     1     -46.004  63.329 -51.649  1.00  0.00     0.179 C 
HETATM   10  S   UNL     1     -47.627  63.727 -51.565  1.00  0.00    -0.040 SA
BRANCH   9  11
HETATM   11  N   UNL     1     -45.302  63.217 -50.479  1.00  0.00    -0.300 N 
HETATM   12  C   UNL     1     -44.768  62.201 -49.704  1.00  0.00     0.247 C 
HETATM   13  O   UNL     1     -44.421  62.439 -48.548  1.00  0.00    -0.268 OA
HETATM   14  H   UNL     1     -45.096  64.116 -50.062  1.00  0.00     0.171 HD
BRANCH  12  15
HETATM   15  C   UNL     1     -44.593  60.861 -50.314  1.00  0.00     0.075 C 
HETATM   16  C   UNL     1     -43.356  60.463 -50.652  1.00  0.00     0.017 C 
BRANCH  16  17
HETATM   17  C   UNL     1     -42.994  59.163 -51.238  1.00  0.00    -0.036 A 
HETATM   18  C   UNL     1     -43.995  58.192 -51.366  1.00  0.00     0.012 A 
HETATM   19  C   UNL     1     -43.729  56.957 -51.969  1.00  0.00     0.008 A 
HETATM   20  C   UNL     1     -42.452  56.658 -52.456  1.00  0.00    -0.055 A 
HETATM   21  C   UNL     1     -41.455  57.637 -52.343  1.00  0.00     0.008 A 
HETATM   22  C   UNL     1     -41.723  58.875 -51.744  1.00  0.00     0.012 A 
BRANCH  20  23
HETATM   23  C   UNL     1     -42.136  55.338 -53.139  1.00  0.00     0.010 C 
HETATM   24  C   UNL     1     -43.400  54.742 -53.760  1.00  0.00     0.015 C 
HETATM   25  C   UNL     1     -41.460  54.319 -52.215  1.00  0.00     0.015 C 
ENDBRANCH  20  23
ENDBRANCH  16  17
ENDBRANCH  12  15
ENDBRANCH   9  11
ENDBRANCH   7   9
ENDBRANCH   1   7
BRANCH   4  26
HETATM   26  N   UNL     1     -43.299  58.570 -55.359  1.00  0.00    -0.378 N 
HETATM   27  C   UNL     1     -44.196  57.575 -56.005  1.00  0.00     0.143 C 
HETATM   28  C   UNL     1     -44.471  57.965 -57.470  1.00  0.00     0.146 C 
HETATM   29  N   UNL     1     -43.202  58.092 -58.201  1.00  0.00    -0.343 N 
HETATM   30  C   UNL     1     -42.778  57.337 -59.294  1.00  0.00     0.277 C 
HETATM   31  C   UNL     1     -42.286  59.070 -57.600  1.00  0.00     0.146 C 
HETATM   32  O   UNL     1     -41.744  57.642 -59.893  1.00  0.00    -0.265 OA
HETATM   33  C   UNL     1     -42.020  58.722 -56.116  1.00  0.00     0.143 C 
BRANCH  30  34
HETATM   34  C   UNL     1     -43.568  56.200 -59.738  1.00  0.00     0.142 A 
HETATM   35  O   UNL     1     -44.210  56.208 -60.949  1.00  0.00    -0.317 OA
HETATM   36  C   UNL     1     -44.895  55.040 -61.055  1.00  0.00     0.143 A 
HETATM   37  C   UNL     1     -44.737  54.284 -59.919  1.00  0.00     0.027 A 
HETATM   38  C   UNL     1     -43.903  55.039 -59.061  1.00  0.00     0.045 A 
ENDBRANCH  30  34
ENDBRANCH   4  26
TORSDOF 8
ENDMDL
