MODEL 1
REMARK VINA RESULT:      -8.6      0.000      0.000
REMARK  6 active torsions:
REMARK  status: ('A' for Active; 'I' for Inactive)
REMARK    1  A    between atoms: C_2  and  O_3 
REMARK    2  A    between atoms: C_2  and  C_4 
REMARK    3  A    between atoms: C_6  and  N_7 
REMARK       I    between atoms: N_7  and  C_8 
REMARK    4  A    between atoms: C_8  and  C_9 
REMARK    5  A    between atoms: C_12  and  C_13 
REMARK    6  A    between atoms: C_18  and  C_19 
ROOT
HETATM    1  C   UNL     1     -42.910  57.809 -54.177  1.00  0.00     0.096 A 
HETATM    2  C   UNL     1     -42.645  57.414 -52.880  1.00  0.00     0.138 A 
HETATM    3  N   UNL     1     -41.472  58.042 -52.528  1.00  0.00    -0.240 N 
HETATM    4  C   UNL     1     -40.807  57.883 -51.246  1.00  0.00     0.221 C 
HETATM    5  C   UNL     1     -41.727  57.154 -50.244  1.00  0.00     0.066 C 
HETATM    6  C   UNL     1     -42.473  55.986 -50.912  1.00  0.00     0.118 C 
HETATM    7  N   UNL     1     -43.266  56.562 -52.015  1.00  0.00    -0.365 N 
HETATM    8  N   UNL     1     -40.883  58.682 -53.550  1.00  0.00    -0.181 NA
HETATM    9  C   UNL     1     -41.764  58.553 -54.545  1.00  0.00     0.160 A 
HETATM   10  H   UNL     1     -43.950  55.900 -52.387  1.00  0.00     0.161 HD
ENDROOT
BRANCH   1  11
HETATM   11  C   UNL     1     -44.053  57.496 -55.016  1.00  0.00     0.261 C 
HETATM   12  N   UNL     1     -43.878  57.885 -56.331  1.00  0.00    -0.323 N 
HETATM   13  H   UNL     1     -42.947  58.218 -56.563  1.00  0.00     0.169 HD
HETATM   14  O   UNL     1     -45.021  56.898 -54.558  1.00  0.00    -0.267 OA
BRANCH  12  15
HETATM   15  C   UNL     1     -44.783  57.744 -57.398  1.00  0.00     0.035 A 
HETATM   16  C   UNL     1     -44.542  56.944 -58.518  1.00  0.00     0.039 A 
HETATM   17  C   UNL     1     -45.493  56.835 -59.552  1.00  0.00    -0.028 A 
HETATM   18  C   UNL     1     -46.694  57.545 -59.440  1.00  0.00     0.010 A 
HETATM   19  C   UNL     1     -46.944  58.345 -58.326  1.00  0.00     0.003 A 
HETATM   20  C   UNL     1     -45.995  58.436 -57.306  1.00  0.00     0.029 A 
BRANCH  17  21
HETATM   21  C   UNL     1     -45.214  55.922 -60.726  1.00  0.00     0.147 C 
HETATM   22  C   UNL     1     -44.852  54.517 -60.258  1.00  0.00     0.044 C 
BRANCH  21  23
HETATM   23  O   UNL     1     -46.355  55.846 -61.579  1.00  0.00    -0.391 OA
HETATM   24  H   UNL     1     -46.492  56.735 -61.947  1.00  0.00     0.210 HD
ENDBRANCH  21  23
ENDBRANCH  17  21
ENDBRANCH  12  15
ENDBRANCH   1  11
BRANCH   4  25
HETATM   25  C   UNL     1     -40.400  59.220 -50.669  1.00  0.00     0.409 C 
HETATM   26  F   UNL     1     -39.104  59.530 -50.868  1.00  0.00    -0.169 F 
HETATM   27  F   UNL     1     -41.158  60.237 -51.143  1.00  0.00    -0.169 F 
HETATM   28  F   UNL     1     -40.581  59.205 -49.319  1.00  0.00    -0.169 F 
ENDBRANCH   4  25
BRANCH   6  29
HETATM   29  C   UNL     1     -41.578  54.826 -51.348  1.00  0.00    -0.035 A 
HETATM   30  C   UNL     1     -40.661  54.261 -50.441  1.00  0.00     0.009 A 
HETATM   31  C   UNL     1     -39.829  53.200 -50.813  1.00  0.00     0.001 A 
HETATM   32  C   UNL     1     -39.913  52.664 -52.092  1.00  0.00     0.000 A 
HETATM   33  C   UNL     1     -40.834  53.181 -52.997  1.00  0.00     0.001 A 
HETATM   34  C   UNL     1     -41.660  54.247 -52.627  1.00  0.00     0.009 A 
ENDBRANCH   6  29
TORSDOF 6
ENDMDL
MODEL 2
REMARK VINA RESULT:      -8.5      3.164      7.924
REMARK  6 active torsions:
REMARK  status: ('A' for Active; 'I' for Inactive)
REMARK    1  A    between atoms: C_2  and  O_3 
REMARK    2  A    between atoms: C_2  and  C_4 
REMARK    3  A    between atoms: C_6  and  N_7 
REMARK       I    between atoms: N_7  and  C_8 
REMARK    4  A    between atoms: C_8  and  C_9 
REMARK    5  A    between atoms: C_12  and  C_13 
REMARK    6  A    between atoms: C_18  and  C_19 
ROOT
HETATM    1  C   UNL     1     -43.183  56.584 -55.050  1.00  0.00     0.096 A 
HETATM    2  C   UNL     1     -42.797  56.975 -56.318  1.00  0.00     0.138 A 
HETATM    3  N   UNL     1     -43.252  58.264 -56.469  1.00  0.00    -0.240 N 
HETATM    4  C   UNL     1     -43.088  59.058 -57.674  1.00  0.00     0.221 C 
HETATM    5  C   UNL     1     -42.100  58.374 -58.644  1.00  0.00     0.066 C 
HETATM    6  C   UNL     1     -42.335  56.855 -58.708  1.00  0.00     0.118 C 
HETATM    7  N   UNL     1     -42.154  56.337 -57.339  1.00  0.00    -0.365 N 
HETATM    8  N   UNL     1     -44.035  58.675 -55.459  1.00  0.00    -0.181 NA
HETATM    9  C   UNL     1     -43.979  57.660 -54.592  1.00  0.00     0.160 A 
HETATM   10  H   UNL     1     -42.088  55.318 -57.315  1.00  0.00     0.161 HD
ENDROOT
BRANCH   1  11
HETATM   11  C   UNL     1     -42.911  55.341 -54.350  1.00  0.00     0.261 C 
HETATM   12  N   UNL     1     -41.629  55.283 -53.837  1.00  0.00    -0.323 N 
HETATM   13  H   UNL     1     -41.096  56.144 -53.905  1.00  0.00     0.169 HD
HETATM   14  O   UNL     1     -43.786  54.493 -54.216  1.00  0.00    -0.267 OA
BRANCH  12  15
HETATM   15  C   UNL     1     -41.036  54.229 -53.119  1.00  0.00     0.035 A 
HETATM   16  C   UNL     1     -40.667  53.010 -53.694  1.00  0.00     0.039 A 
HETATM   17  C   UNL     1     -40.067  51.995 -52.924  1.00  0.00    -0.028 A 
HETATM   18  C   UNL     1     -39.844  52.225 -51.561  1.00  0.00     0.010 A 
HETATM   19  C   UNL     1     -40.208  53.438 -50.979  1.00  0.00     0.003 A 
HETATM   20  C   UNL     1     -40.794  54.437 -51.757  1.00  0.00     0.029 A 
BRANCH  17  21
HETATM   21  C   UNL     1     -39.639  50.707 -53.595  1.00  0.00     0.147 C 
HETATM   22  C   UNL     1     -39.597  49.554 -52.598  1.00  0.00     0.044 C 
BRANCH  21  23
HETATM   23  O   UNL     1     -40.538  50.373 -54.650  1.00  0.00    -0.391 OA
HETATM   24  H   UNL     1     -40.182  49.581 -55.085  1.00  0.00     0.210 HD
ENDBRANCH  21  23
ENDBRANCH  17  21
ENDBRANCH  12  15
ENDBRANCH   1  11
BRANCH   4  25
HETATM   25  C   UNL     1     -42.590  60.449 -57.354  1.00  0.00     0.409 C 
HETATM   26  F   UNL     1     -43.572  61.336 -57.103  1.00  0.00    -0.169 F 
HETATM   27  F   UNL     1     -41.731  60.459 -56.308  1.00  0.00    -0.169 F 
HETATM   28  F   UNL     1     -41.900  60.941 -58.420  1.00  0.00    -0.169 F 
ENDBRANCH   4  25
BRANCH   6  29
HETATM   29  C   UNL     1     -43.664  56.443 -59.342  1.00  0.00    -0.035 A 
HETATM   30  C   UNL     1     -43.969  55.079 -59.521  1.00  0.00     0.009 A 
HETATM   31  C   UNL     1     -45.176  54.674 -60.100  1.00  0.00     0.001 A 
HETATM   32  C   UNL     1     -46.116  55.621 -60.489  1.00  0.00     0.000 A 
HETATM   33  C   UNL     1     -45.853  56.973 -60.293  1.00  0.00     0.001 A 
HETATM   34  C   UNL     1     -44.643  57.378 -59.721  1.00  0.00     0.009 A 
ENDBRANCH   6  29
TORSDOF 6
ENDMDL
MODEL 3
REMARK VINA RESULT:      -8.5      3.411      8.055
REMARK  6 active torsions:
REMARK  status: ('A' for Active; 'I' for Inactive)
REMARK    1  A    between atoms: C_2  and  O_3 
REMARK    2  A    between atoms: C_2  and  C_4 
REMARK    3  A    between atoms: C_6  and  N_7 
REMARK       I    between atoms: N_7  and  C_8 
REMARK    4  A    between atoms: C_8  and  C_9 
REMARK    5  A    between atoms: C_12  and  C_13 
REMARK    6  A    between atoms: C_18  and  C_19 
ROOT
HETATM    1  C   UNL     1     -42.753  56.611 -55.006  1.00  0.00     0.096 A 
HETATM    2  C   UNL     1     -42.864  57.287 -56.207  1.00  0.00     0.138 A 
HETATM    3  N   UNL     1     -44.035  58.004 -56.128  1.00  0.00    -0.240 N 
HETATM    4  C   UNL     1     -44.559  58.842 -57.192  1.00  0.00     0.221 C 
HETATM    5  C   UNL     1     -43.499  59.042 -58.297  1.00  0.00     0.066 C 
HETATM    6  C   UNL     1     -42.748  57.734 -58.599  1.00  0.00     0.118 C 
HETATM    7  N   UNL     1     -42.106  57.310 -57.341  1.00  0.00    -0.365 N 
HETATM    8  N   UNL     1     -44.762  57.720 -55.036  1.00  0.00    -0.181 NA
HETATM    9  C   UNL     1     -43.976  56.887 -54.349  1.00  0.00     0.160 A 
HETATM   10  H   UNL     1     -41.421  56.567 -57.487  1.00  0.00     0.161 HD
ENDROOT
BRANCH   1  11
HETATM   11  C   UNL     1     -41.681  55.757 -54.530  1.00  0.00     0.261 C 
HETATM   12  N   UNL     1     -42.092  54.872 -53.551  1.00  0.00    -0.323 N 
HETATM   13  H   UNL     1     -43.093  54.847 -53.383  1.00  0.00     0.169 HD
HETATM   14  O   UNL     1     -40.560  55.825 -55.022  1.00  0.00    -0.267 OA
BRANCH  12  15
HETATM   15  C   UNL     1     -41.314  53.919 -52.870  1.00  0.00     0.035 A 
HETATM   16  C   UNL     1     -40.861  52.730 -53.449  1.00  0.00     0.039 A 
HETATM   17  C   UNL     1     -40.075  51.818 -52.719  1.00  0.00    -0.028 A 
HETATM   18  C   UNL     1     -39.751  52.121 -51.390  1.00  0.00     0.010 A 
HETATM   19  C   UNL     1     -40.198  53.304 -50.804  1.00  0.00     0.003 A 
HETATM   20  C   UNL     1     -40.968  54.202 -51.544  1.00  0.00     0.029 A 
BRANCH  17  21
HETATM   21  C   UNL     1     -39.566  50.565 -53.397  1.00  0.00     0.147 C 
HETATM   22  C   UNL     1     -39.569  49.379 -52.438  1.00  0.00     0.044 C 
BRANCH  21  23
HETATM   23  O   UNL     1     -40.375  50.247 -54.528  1.00  0.00    -0.391 OA
HETATM   24  H   UNL     1     -40.905  51.038 -54.727  1.00  0.00     0.210 HD
ENDBRANCH  21  23
ENDBRANCH  17  21
ENDBRANCH  12  15
ENDBRANCH   1  11
BRANCH   4  25
HETATM   25  C   UNL     1     -44.994  60.192 -56.667  1.00  0.00     0.409 C 
HETATM   26  F   UNL     1     -46.247  60.208 -56.172  1.00  0.00    -0.169 F 
HETATM   27  F   UNL     1     -44.156  60.667 -55.717  1.00  0.00    -0.169 F 
HETATM   28  F   UNL     1     -44.977  61.100 -57.682  1.00  0.00    -0.169 F 
ENDBRANCH   4  25
BRANCH   6  29
HETATM   29  C   UNL     1     -43.604  56.643 -59.243  1.00  0.00    -0.035 A 
HETATM   30  C   UNL     1     -44.482  56.963 -60.297  1.00  0.00     0.009 A 
HETATM   31  C   UNL     1     -45.278  55.986 -60.903  1.00  0.00     0.001 A 
HETATM   32  C   UNL     1     -45.195  54.662 -60.487  1.00  0.00     0.000 A 
HETATM   33  C   UNL     1     -44.311  54.314 -59.471  1.00  0.00     0.001 A 
HETATM   34  C   UNL     1     -43.521  55.293 -58.860  1.00  0.00     0.009 A 
ENDBRANCH   6  29
TORSDOF 6
ENDMDL
MODEL 4
REMARK VINA RESULT:      -8.4      1.196      1.985
REMARK  6 active torsions:
REMARK  status: ('A' for Active; 'I' for Inactive)
REMARK    1  A    between atoms: C_2  and  O_3 
REMARK    2  A    between atoms: C_2  and  C_4 
REMARK    3  A    between atoms: C_6  and  N_7 
REMARK       I    between atoms: N_7  and  C_8 
REMARK    4  A    between atoms: C_8  and  C_9 
REMARK    5  A    between atoms: C_12  and  C_13 
REMARK    6  A    between atoms: C_18  and  C_19 
ROOT
HETATM    1  C   UNL     1     -42.971  57.415 -54.797  1.00  0.00     0.096 A 
HETATM    2  C   UNL     1     -42.857  56.737 -53.598  1.00  0.00     0.138 A 
HETATM    3  N   UNL     1     -41.785  57.302 -52.946  1.00  0.00    -0.240 N 
HETATM    4  C   UNL     1     -41.291  56.871 -51.651  1.00  0.00     0.221 C 
HETATM    5  C   UNL     1     -42.288  55.899 -50.985  1.00  0.00     0.066 C 
HETATM    6  C   UNL     1     -42.860  54.896 -52.001  1.00  0.00     0.118 C 
HETATM    7  N   UNL     1     -43.533  55.687 -53.048  1.00  0.00    -0.365 N 
HETATM    8  N   UNL     1     -41.107  58.181 -53.700  1.00  0.00    -0.181 NA
HETATM    9  C   UNL     1     -41.836  58.260 -54.816  1.00  0.00     0.160 A 
HETATM   10  H   UNL     1     -44.116  55.109 -53.656  1.00  0.00     0.161 HD
ENDROOT
BRANCH   1  11
HETATM   11  C   UNL     1     -43.967  57.269 -55.842  1.00  0.00     0.261 C 
HETATM   12  N   UNL     1     -43.434  56.816 -57.034  1.00  0.00    -0.323 N 
HETATM   13  H   UNL     1     -42.460  56.532 -56.993  1.00  0.00     0.169 HD
HETATM   14  O   UNL     1     -45.152  57.488 -55.614  1.00  0.00    -0.267 OA
BRANCH  12  15
HETATM   15  C   UNL     1     -44.110  56.577 -58.244  1.00  0.00     0.035 A 
HETATM   16  C   UNL     1     -45.124  57.400 -58.742  1.00  0.00     0.039 A 
HETATM   17  C   UNL     1     -45.758  57.114 -59.966  1.00  0.00    -0.028 A 
HETATM   18  C   UNL     1     -45.355  55.983 -60.686  1.00  0.00     0.010 A 
HETATM   19  C   UNL     1     -44.343  55.156 -60.198  1.00  0.00     0.003 A 
HETATM   20  C   UNL     1     -43.719  55.458 -58.987  1.00  0.00     0.029 A 
BRANCH  17  21
HETATM   21  C   UNL     1     -46.819  58.055 -60.492  1.00  0.00     0.147 C 
HETATM   22  C   UNL     1     -46.259  59.459 -60.698  1.00  0.00     0.044 C 
BRANCH  21  23
HETATM   23  O   UNL     1     -47.337  57.579 -61.733  1.00  0.00    -0.391 OA
HETATM   24  H   UNL     1     -46.643  57.717 -62.400  1.00  0.00     0.210 HD
ENDBRANCH  21  23
ENDBRANCH  17  21
ENDBRANCH  12  15
ENDBRANCH   1  11
BRANCH   4  25
HETATM   25  C   UNL     1     -41.052  58.049 -50.733  1.00  0.00     0.409 C 
HETATM   26  F   UNL     1     -39.847  58.629 -50.890  1.00  0.00    -0.169 F 
HETATM   27  F   UNL     1     -42.004  59.002 -50.863  1.00  0.00    -0.169 F 
HETATM   28  F   UNL     1     -41.104  57.632 -49.437  1.00  0.00    -0.169 F 
ENDBRANCH   4  25
BRANCH   6  29
HETATM   29  C   UNL     1     -41.841  53.898 -52.553  1.00  0.00    -0.035 A 
HETATM   30  C   UNL     1     -40.911  53.287 -51.689  1.00  0.00     0.009 A 
HETATM   31  C   UNL     1     -39.967  52.373 -52.167  1.00  0.00     0.001 A 
HETATM   32  C   UNL     1     -39.948  52.028 -53.513  1.00  0.00     0.000 A 
HETATM   33  C   UNL     1     -40.878  52.592 -54.381  1.00  0.00     0.001 A 
HETATM   34  C   UNL     1     -41.817  53.512 -53.905  1.00  0.00     0.009 A 
ENDBRANCH   6  29
TORSDOF 6
ENDMDL
MODEL 5
REMARK VINA RESULT:      -8.2      3.480      8.477
REMARK  6 active torsions:
REMARK  status: ('A' for Active; 'I' for Inactive)
REMARK    1  A    between atoms: C_2  and  O_3 
REMARK    2  A    between atoms: C_2  and  C_4 
REMARK    3  A    between atoms: C_6  and  N_7 
REMARK       I    between atoms: N_7  and  C_8 
REMARK    4  A    between atoms: C_8  and  C_9 
REMARK    5  A    between atoms: C_12  and  C_13 
REMARK    6  A    between atoms: C_18  and  C_19 
ROOT
HETATM    1  C   UNL     1     -42.798  57.023 -55.889  1.00  0.00     0.096 A 
HETATM    2  C   UNL     1     -42.587  57.180 -57.245  1.00  0.00     0.138 A 
HETATM    3  N   UNL     1     -42.789  58.516 -57.505  1.00  0.00    -0.240 N 
HETATM    4  C   UNL     1     -42.696  59.120 -58.822  1.00  0.00     0.221 C 
HETATM    5  C   UNL     1     -42.071  58.132 -59.830  1.00  0.00     0.066 C 
HETATM    6  C   UNL     1     -42.619  56.708 -59.636  1.00  0.00     0.118 C 
HETATM    7  N   UNL     1     -42.292  56.310 -58.254  1.00  0.00    -0.365 N 
HETATM    8  N   UNL     1     -43.266  59.198 -56.452  1.00  0.00    -0.181 NA
HETATM    9  C   UNL     1     -43.256  58.294 -55.468  1.00  0.00     0.160 A 
HETATM   10  H   UNL     1     -42.432  55.311 -58.094  1.00  0.00     0.161 HD
ENDROOT
BRANCH   1  11
HETATM   11  C   UNL     1     -42.659  55.832 -55.071  1.00  0.00     0.261 C 
HETATM   12  N   UNL     1     -41.339  55.492 -54.837  1.00  0.00    -0.323 N 
HETATM   13  H   UNL     1     -40.654  56.170 -55.154  1.00  0.00     0.169 HD
HETATM   14  O   UNL     1     -43.646  55.263 -54.619  1.00  0.00    -0.267 OA
BRANCH  12  15
HETATM   15  C   UNL     1     -40.850  54.399 -54.099  1.00  0.00     0.035 A 
HETATM   16  C   UNL     1     -40.741  54.389 -52.706  1.00  0.00     0.039 A 
HETATM   17  C   UNL     1     -40.253  53.259 -52.022  1.00  0.00    -0.028 A 
HETATM   18  C   UNL     1     -39.873  52.134 -52.764  1.00  0.00     0.010 A 
HETATM   19  C   UNL     1     -39.979  52.134 -54.154  1.00  0.00     0.003 A 
HETATM   20  C   UNL     1     -40.473  53.258 -54.817  1.00  0.00     0.029 A 
BRANCH  17  21
HETATM   21  C   UNL     1     -40.195  53.272 -50.510  1.00  0.00     0.147 C 
HETATM   22  C   UNL     1     -41.197  54.263 -49.929  1.00  0.00     0.044 C 
BRANCH  21  23
HETATM   23  O   UNL     1     -40.474  51.974 -49.990  1.00  0.00    -0.391 OA
HETATM   24  H   UNL     1     -40.711  52.089 -49.055  1.00  0.00     0.210 HD
ENDBRANCH  21  23
ENDBRANCH  17  21
ENDBRANCH  12  15
ENDBRANCH   1  11
BRANCH   4  25
HETATM   25  C   UNL     1     -41.873  60.388 -58.790  1.00  0.00     0.409 C 
HETATM   26  F   UNL     1     -40.909  60.390 -57.848  1.00  0.00    -0.169 F 
HETATM   27  F   UNL     1     -41.300  60.660 -59.985  1.00  0.00    -0.169 F 
HETATM   28  F   UNL     1     -42.681  61.447 -58.504  1.00  0.00    -0.169 F 
ENDBRANCH   4  25
BRANCH   6  29
HETATM   29  C   UNL     1     -44.099  56.543 -59.982  1.00  0.00    -0.035 A 
HETATM   30  C   UNL     1     -44.883  57.673 -60.287  1.00  0.00     0.009 A 
HETATM   31  C   UNL     1     -46.239  57.552 -60.605  1.00  0.00     0.001 A 
HETATM   32  C   UNL     1     -46.836  56.297 -60.652  1.00  0.00     0.000 A 
HETATM   33  C   UNL     1     -46.075  55.163 -60.388  1.00  0.00     0.001 A 
HETATM   34  C   UNL     1     -44.721  55.285 -60.062  1.00  0.00     0.009 A 
ENDBRANCH   6  29
TORSDOF 6
ENDMDL
MODEL 6
REMARK VINA RESULT:      -8.2      4.882      9.362
REMARK  6 active torsions:
REMARK  status: ('A' for Active; 'I' for Inactive)
REMARK    1  A    between atoms: C_2  and  O_3 
REMARK    2  A    between atoms: C_2  and  C_4 
REMARK    3  A    between atoms: C_6  and  N_7 
REMARK       I    between atoms: N_7  and  C_8 
REMARK    4  A    between atoms: C_8  and  C_9 
REMARK    5  A    between atoms: C_12  and  C_13 
REMARK    6  A    between atoms: C_18  and  C_19 
ROOT
HETATM    1  C   UNL     1     -43.623  56.084 -57.912  1.00  0.00     0.096 A 
HETATM    2  C   UNL     1     -44.373  57.150 -58.371  1.00  0.00     0.138 A 
HETATM    3  N   UNL     1     -44.931  56.734 -59.558  1.00  0.00    -0.240 N 
HETATM    4  C   UNL     1     -45.779  57.558 -60.401  1.00  0.00     0.221 C 
HETATM    5  C   UNL     1     -46.196  58.845 -59.659  1.00  0.00     0.066 C 
HETATM    6  C   UNL     1     -45.020  59.446 -58.870  1.00  0.00     0.118 C 
HETATM    7  N   UNL     1     -44.580  58.417 -57.909  1.00  0.00    -0.365 N 
HETATM    8  N   UNL     1     -44.472  55.543 -59.974  1.00  0.00    -0.181 NA
HETATM    9  C   UNL     1     -43.691  55.143 -58.966  1.00  0.00     0.160 A 
HETATM   10  H   UNL     1     -43.942  58.791 -57.205  1.00  0.00     0.161 HD
ENDROOT
BRANCH   1  11
HETATM   11  C   UNL     1     -42.874  55.955 -56.675  1.00  0.00     0.261 C 
HETATM   12  N   UNL     1     -43.101  54.752 -56.032  1.00  0.00    -0.323 N 
HETATM   13  H   UNL     1     -43.651  54.078 -56.556  1.00  0.00     0.169 HD
HETATM   14  O   UNL     1     -42.097  56.833 -56.319  1.00  0.00    -0.267 OA
BRANCH  12  15
HETATM   15  C   UNL     1     -42.550  54.309 -54.817  1.00  0.00     0.035 A 
HETATM   16  C   UNL     1     -41.482  53.412 -54.730  1.00  0.00     0.039 A 
HETATM   17  C   UNL     1     -40.967  53.012 -53.482  1.00  0.00    -0.028 A 
HETATM   18  C   UNL     1     -41.545  53.531 -52.317  1.00  0.00     0.010 A 
HETATM   19  C   UNL     1     -42.610  54.427 -52.393  1.00  0.00     0.003 A 
HETATM   20  C   UNL     1     -43.104  54.820 -53.638  1.00  0.00     0.029 A 
BRANCH  17  21
HETATM   21  C   UNL     1     -39.780  52.075 -53.432  1.00  0.00     0.147 C 
HETATM   22  C   UNL     1     -39.456  51.671 -51.998  1.00  0.00     0.044 C 
BRANCH  21  23
HETATM   23  O   UNL     1     -40.042  50.899 -54.196  1.00  0.00    -0.391 OA
HETATM   24  H   UNL     1     -39.355  50.849 -54.881  1.00  0.00     0.210 HD
ENDBRANCH  21  23
ENDBRANCH  17  21
ENDBRANCH  12  15
ENDBRANCH   1  11
BRANCH   4  25
HETATM   25  C   UNL     1     -47.018  56.808 -60.836  1.00  0.00     0.409 C 
HETATM   26  F   UNL     1     -46.816  55.975 -61.876  1.00  0.00    -0.169 F 
HETATM   27  F   UNL     1     -47.570  56.099 -59.824  1.00  0.00    -0.169 F 
HETATM   28  F   UNL     1     -47.966  57.697 -61.243  1.00  0.00    -0.169 F 
ENDBRANCH   4  25
BRANCH   6  29
HETATM   29  C   UNL     1     -43.885  59.992 -59.737  1.00  0.00    -0.035 A 
HETATM   30  C   UNL     1     -44.099  60.239 -61.107  1.00  0.00     0.009 A 
HETATM   31  C   UNL     1     -43.079  60.737 -61.924  1.00  0.00     0.001 A 
HETATM   32  C   UNL     1     -41.831  61.024 -61.385  1.00  0.00     0.000 A 
HETATM   33  C   UNL     1     -41.604  60.822 -60.028  1.00  0.00     0.001 A 
HETATM   34  C   UNL     1     -42.621  60.317 -59.213  1.00  0.00     0.009 A 
ENDBRANCH   6  29
TORSDOF 6
ENDMDL
MODEL 7
REMARK VINA RESULT:      -8.1      4.815      9.415
REMARK  6 active torsions:
REMARK  status: ('A' for Active; 'I' for Inactive)
REMARK    1  A    between atoms: C_2  and  O_3 
REMARK    2  A    between atoms: C_2  and  C_4 
REMARK    3  A    between atoms: C_6  and  N_7 
REMARK       I    between atoms: N_7  and  C_8 
REMARK    4  A    between atoms: C_8  and  C_9 
REMARK    5  A    between atoms: C_12  and  C_13 
REMARK    6  A    between atoms: C_18  and  C_19 
ROOT
HETATM    1  C   UNL     1     -43.642  56.191 -57.985  1.00  0.00     0.096 A 
HETATM    2  C   UNL     1     -44.416  57.238 -58.446  1.00  0.00     0.138 A 
HETATM    3  N   UNL     1     -44.992  56.795 -59.615  1.00  0.00    -0.240 N 
HETATM    4  C   UNL     1     -45.868  57.593 -60.454  1.00  0.00     0.221 C 
HETATM    5  C   UNL     1     -46.289  58.886 -59.723  1.00  0.00     0.066 C 
HETATM    6  C   UNL     1     -45.107  59.517 -58.968  1.00  0.00     0.118 C 
HETATM    7  N   UNL     1     -44.633  58.509 -58.000  1.00  0.00    -0.365 N 
HETATM    8  N   UNL     1     -44.524  55.604 -60.020  1.00  0.00    -0.181 NA
HETATM    9  C   UNL     1     -43.718  55.232 -59.022  1.00  0.00     0.160 A 
HETATM   10  H   UNL     1     -43.987  58.904 -57.314  1.00  0.00     0.161 HD
ENDROOT
BRANCH   1  11
HETATM   11  C   UNL     1     -42.868  56.092 -56.761  1.00  0.00     0.261 C 
HETATM   12  N   UNL     1     -42.981  54.857 -56.151  1.00  0.00    -0.323 N 
HETATM   13  H   UNL     1     -43.478  54.153 -56.687  1.00  0.00     0.169 HD
HETATM   14  O   UNL     1     -42.163  57.024 -56.389  1.00  0.00    -0.267 OA
BRANCH  12  15
HETATM   15  C   UNL     1     -42.377  54.429 -54.955  1.00  0.00     0.035 A 
HETATM   16  C   UNL     1     -42.996  54.498 -53.705  1.00  0.00     0.039 A 
HETATM   17  C   UNL     1     -42.344  54.044 -52.542  1.00  0.00    -0.028 A 
HETATM   18  C   UNL     1     -41.052  53.516 -52.658  1.00  0.00     0.010 A 
HETATM   19  C   UNL     1     -40.425  53.442 -53.901  1.00  0.00     0.003 A 
HETATM   20  C   UNL     1     -41.089  53.889 -55.045  1.00  0.00     0.029 A 
BRANCH  17  21
HETATM   21  C   UNL     1     -43.068  54.094 -51.215  1.00  0.00     0.147 C 
HETATM   22  C   UNL     1     -42.134  54.540 -50.094  1.00  0.00     0.044 C 
BRANCH  21  23
HETATM   23  O   UNL     1     -44.171  54.996 -51.283  1.00  0.00    -0.391 OA
HETATM   24  H   UNL     1     -43.811  55.864 -51.528  1.00  0.00     0.210 HD
ENDBRANCH  21  23
ENDBRANCH  17  21
ENDBRANCH  12  15
ENDBRANCH   1  11
BRANCH   4  25
HETATM   25  C   UNL     1     -47.104  56.819 -60.852  1.00  0.00     0.409 C 
HETATM   26  F   UNL     1     -46.912  55.976 -61.885  1.00  0.00    -0.169 F 
HETATM   27  F   UNL     1     -47.623  56.114 -59.819  1.00  0.00    -0.169 F 
HETATM   28  F   UNL     1     -48.075  57.687 -61.249  1.00  0.00    -0.169 F 
ENDBRANCH   4  25
BRANCH   6  29
HETATM   29  C   UNL     1     -43.997  60.065 -59.866  1.00  0.00    -0.035 A 
HETATM   30  C   UNL     1     -42.721  60.328 -59.332  1.00  0.00     0.009 A 
HETATM   31  C   UNL     1     -41.689  60.831 -60.130  1.00  0.00     0.001 A 
HETATM   32  C   UNL     1     -41.901  61.058 -61.485  1.00  0.00     0.000 A 
HETATM   33  C   UNL     1     -43.143  60.774 -62.044  1.00  0.00     0.001 A 
HETATM   34  C   UNL     1     -44.177  60.278 -61.244  1.00  0.00     0.009 A 
ENDBRANCH   6  29
TORSDOF 6
ENDMDL
MODEL 8
REMARK VINA RESULT:      -8.0      3.906      7.612
REMARK  6 active torsions:
REMARK  status: ('A' for Active; 'I' for Inactive)
REMARK    1  A    between atoms: C_2  and  O_3 
REMARK    2  A    between atoms: C_2  and  C_4 
REMARK    3  A    between atoms: C_6  and  N_7 
REMARK       I    between atoms: N_7  and  C_8 
REMARK    4  A    between atoms: C_8  and  C_9 
REMARK    5  A    between atoms: C_12  and  C_13 
REMARK    6  A    between atoms: C_18  and  C_19 
ROOT
HETATM    1  C   UNL     1     -42.515  55.558 -54.266  1.00  0.00     0.096 A 
HETATM    2  C   UNL     1     -43.378  56.559 -53.862  1.00  0.00     0.138 A 
HETATM    3  N   UNL     1     -43.282  57.546 -54.815  1.00  0.00    -0.240 N 
HETATM    4  C   UNL     1     -44.005  58.805 -54.771  1.00  0.00     0.221 C 
HETATM    5  C   UNL     1     -45.094  58.767 -53.678  1.00  0.00     0.066 C 
HETATM    6  C   UNL     1     -44.582  58.089 -52.396  1.00  0.00     0.118 C 
HETATM    7  N   UNL     1     -44.179  56.720 -52.769  1.00  0.00    -0.365 N 
HETATM    8  N   UNL     1     -42.310  57.326 -55.714  1.00  0.00    -0.181 NA
HETATM    9  C   UNL     1     -41.856  56.112 -55.388  1.00  0.00     0.160 A 
HETATM   10  H   UNL     1     -44.018  56.127 -51.953  1.00  0.00     0.161 HD
ENDROOT
BRANCH   1  11
HETATM   11  C   UNL     1     -42.269  54.261 -53.663  1.00  0.00     0.261 C 
HETATM   12  N   UNL     1     -41.129  53.649 -54.150  1.00  0.00    -0.323 N 
HETATM   13  H   UNL     1     -40.556  54.224 -54.759  1.00  0.00     0.169 HD
HETATM   14  O   UNL     1     -43.003  53.830 -52.780  1.00  0.00    -0.267 OA
BRANCH  12  15
HETATM   15  C   UNL     1     -40.608  52.392 -53.794  1.00  0.00     0.035 A 
HETATM   16  C   UNL     1     -40.182  52.066 -52.504  1.00  0.00     0.039 A 
HETATM   17  C   UNL     1     -39.678  50.785 -52.205  1.00  0.00    -0.028 A 
HETATM   18  C   UNL     1     -39.608  49.833 -53.230  1.00  0.00     0.010 A 
HETATM   19  C   UNL     1     -40.030  50.149 -54.520  1.00  0.00     0.003 A 
HETATM   20  C   UNL     1     -40.536  51.420 -54.798  1.00  0.00     0.029 A 
BRANCH  17  21
HETATM   21  C   UNL     1     -39.271  50.457 -50.785  1.00  0.00     0.147 C 
HETATM   22  C   UNL     1     -40.389  50.788 -49.802  1.00  0.00     0.044 C 
BRANCH  21  23
HETATM   23  O   UNL     1     -38.946  49.073 -50.668  1.00  0.00    -0.391 OA
HETATM   24  H   UNL     1     -39.345  48.624 -51.432  1.00  0.00     0.210 HD
ENDBRANCH  21  23
ENDBRANCH  17  21
ENDBRANCH  12  15
ENDBRANCH   1  11
BRANCH   4  25
HETATM   25  C   UNL     1     -44.645  59.119 -56.104  1.00  0.00     0.409 C 
HETATM   26  F   UNL     1     -45.008  58.027 -56.807  1.00  0.00    -0.169 F 
HETATM   27  F   UNL     1     -45.727  59.922 -55.978  1.00  0.00    -0.169 F 
HETATM   28  F   UNL     1     -43.758  59.793 -56.887  1.00  0.00    -0.169 F 
ENDBRANCH   4  25
BRANCH   6  29
HETATM   29  C   UNL     1     -43.489  58.865 -51.660  1.00  0.00    -0.035 A 
HETATM   30  C   UNL     1     -43.721  60.190 -51.244  1.00  0.00     0.009 A 
HETATM   31  C   UNL     1     -42.739  60.924 -50.570  1.00  0.00     0.001 A 
HETATM   32  C   UNL     1     -41.513  60.340 -50.273  1.00  0.00     0.000 A 
HETATM   33  C   UNL     1     -41.271  59.021 -50.642  1.00  0.00     0.001 A 
HETATM   34  C   UNL     1     -42.250  58.291 -51.323  1.00  0.00     0.009 A 
ENDBRANCH   6  29
TORSDOF 6
ENDMDL
MODEL 9
REMARK VINA RESULT:      -8.0      3.334      7.247
REMARK  6 active torsions:
REMARK  status: ('A' for Active; 'I' for Inactive)
REMARK    1  A    between atoms: C_2  and  O_3 
REMARK    2  A    between atoms: C_2  and  C_4 
REMARK    3  A    between atoms: C_6  and  N_7 
REMARK       I    between atoms: N_7  and  C_8 
REMARK    4  A    between atoms: C_8  and  C_9 
REMARK    5  A    between atoms: C_12  and  C_13 
REMARK    6  A    between atoms: C_18  and  C_19 
ROOT
HETATM    1  C   UNL     1     -42.329  56.506 -51.626  1.00  0.00     0.096 A 
HETATM    2  C   UNL     1     -42.112  57.686 -52.312  1.00  0.00     0.138 A 
HETATM    3  N   UNL     1     -43.169  58.507 -51.994  1.00  0.00    -0.240 N 
HETATM    4  C   UNL     1     -43.358  59.846 -52.522  1.00  0.00     0.221 C 
HETATM    5  C   UNL     1     -42.086  60.326 -53.253  1.00  0.00     0.066 C 
HETATM    6  C   UNL     1     -41.471  59.204 -54.107  1.00  0.00     0.118 C 
HETATM    7  N   UNL     1     -41.150  58.095 -53.189  1.00  0.00    -0.365 N 
HETATM    8  N   UNL     1     -44.127  57.890 -51.284  1.00  0.00    -0.181 NA
HETATM    9  C   UNL     1     -43.609  56.682 -51.048  1.00  0.00     0.160 A 
HETATM   10  H   UNL     1     -40.555  57.390 -53.626  1.00  0.00     0.161 HD
ENDROOT
BRANCH   1  11
HETATM   11  C   UNL     1     -41.494  55.321 -51.551  1.00  0.00     0.261 C 
HETATM   12  N   UNL     1     -41.496  54.587 -52.723  1.00  0.00    -0.323 N 
HETATM   13  H   UNL     1     -41.969  55.025 -53.508  1.00  0.00     0.169 HD
HETATM   14  O   UNL     1     -40.838  55.079 -50.545  1.00  0.00    -0.267 OA
BRANCH  12  15
HETATM   15  C   UNL     1     -40.810  53.389 -52.989  1.00  0.00     0.035 A 
HETATM   16  C   UNL     1     -40.413  52.486 -51.999  1.00  0.00     0.039 A 
HETATM   17  C   UNL     1     -39.737  51.295 -52.328  1.00  0.00    -0.028 A 
HETATM   18  C   UNL     1     -39.466  51.025 -53.675  1.00  0.00     0.010 A 
HETATM   19  C   UNL     1     -39.858  51.919 -54.670  1.00  0.00     0.003 A 
HETATM   20  C   UNL     1     -40.535  53.091 -54.328  1.00  0.00     0.029 A 
BRANCH  17  21
HETATM   21  C   UNL     1     -39.366  50.322 -51.230  1.00  0.00     0.147 C 
HETATM   22  C   UNL     1     -40.277  50.485 -50.018  1.00  0.00     0.044 C 
BRANCH  21  23
HETATM   23  O   UNL     1     -39.461  48.980 -51.703  1.00  0.00    -0.391 OA
HETATM   24  H   UNL     1     -39.400  48.402 -50.924  1.00  0.00     0.210 HD
ENDBRANCH  21  23
ENDBRANCH  17  21
ENDBRANCH  12  15
ENDBRANCH   1  11
BRANCH   4  25
HETATM   25  C   UNL     1     -43.703  60.827 -51.424  1.00  0.00     0.409 C 
HETATM   26  F   UNL     1     -45.022  60.914 -51.164  1.00  0.00    -0.169 F 
HETATM   27  F   UNL     1     -43.059  60.550 -50.267  1.00  0.00    -0.169 F 
HETATM   28  F   UNL     1     -43.308  62.077 -51.792  1.00  0.00    -0.169 F 
ENDBRANCH   4  25
BRANCH   6  29
HETATM   29  C   UNL     1     -42.322  58.776 -55.303  1.00  0.00    -0.035 A 
HETATM   30  C   UNL     1     -42.427  57.414 -55.645  1.00  0.00     0.009 A 
HETATM   31  C   UNL     1     -43.197  56.995 -56.735  1.00  0.00     0.001 A 
HETATM   32  C   UNL     1     -43.901  57.925 -57.490  1.00  0.00     0.000 A 
HETATM   33  C   UNL     1     -43.842  59.273 -57.153  1.00  0.00     0.001 A 
HETATM   34  C   UNL     1     -43.065  59.692 -56.069  1.00  0.00     0.009 A 
ENDBRANCH   6  29
TORSDOF 6
ENDMDL
MODEL 10
REMARK VINA RESULT:      -7.9      4.461      8.232
REMARK  6 active torsions:
REMARK  status: ('A' for Active; 'I' for Inactive)
REMARK    1  A    between atoms: C_2  and  O_3 
REMARK    2  A    between atoms: C_2  and  C_4 
REMARK    3  A    between atoms: C_6  and  N_7 
REMARK       I    between atoms: N_7  and  C_8 
REMARK    4  A    between atoms: C_8  and  C_9 
REMARK    5  A    between atoms: C_12  and  C_13 
REMARK    6  A    between atoms: C_18  and  C_19 
ROOT
HETATM    1  C   UNL     1     -43.237  58.024 -51.613  1.00  0.00     0.096 A 
HETATM    2  C   UNL     1     -43.466  57.084 -52.599  1.00  0.00     0.138 A 
HETATM    3  N   UNL     1     -42.346  56.285 -52.626  1.00  0.00    -0.240 N 
HETATM    4  C   UNL     1     -42.149  55.176 -53.542  1.00  0.00     0.221 C 
HETATM    5  C   UNL     1     -43.463  54.840 -54.279  1.00  0.00     0.066 C 
HETATM    6  C   UNL     1     -44.209  56.115 -54.709  1.00  0.00     0.118 C 
HETATM    7  N   UNL     1     -44.489  56.881 -53.479  1.00  0.00    -0.365 N 
HETATM    8  N   UNL     1     -41.353  56.735 -51.843  1.00  0.00    -0.181 NA
HETATM    9  C   UNL     1     -41.900  57.780 -51.218  1.00  0.00     0.160 A 
HETATM   10  H   UNL     1     -45.156  57.638 -53.638  1.00  0.00     0.161 HD
ENDROOT
BRANCH   1  11
HETATM   11  C   UNL     1     -44.114  59.071 -51.122  1.00  0.00     0.261 C 
HETATM   12  N   UNL     1     -43.472  59.960 -50.280  1.00  0.00    -0.323 N 
HETATM   13  H   UNL     1     -42.466  59.843 -50.213  1.00  0.00     0.169 HD
HETATM   14  O   UNL     1     -45.280  59.138 -51.495  1.00  0.00    -0.267 OA
BRANCH  12  15
HETATM   15  C   UNL     1     -44.022  61.077 -49.626  1.00  0.00     0.035 A 
HETATM   16  C   UNL     1     -44.958  60.986 -48.592  1.00  0.00     0.039 A 
HETATM   17  C   UNL     1     -45.466  62.142 -47.967  1.00  0.00    -0.028 A 
HETATM   18  C   UNL     1     -45.016  63.395 -48.400  1.00  0.00     0.010 A 
HETATM   19  C   UNL     1     -44.083  63.495 -49.431  1.00  0.00     0.003 A 
HETATM   20  C   UNL     1     -43.583  62.340 -50.034  1.00  0.00     0.029 A 
BRANCH  17  21
HETATM   21  C   UNL     1     -46.442  61.999 -46.820  1.00  0.00     0.147 C 
HETATM   22  C   UNL     1     -46.213  63.075 -45.764  1.00  0.00     0.044 C 
BRANCH  21  23
HETATM   23  O   UNL     1     -47.784  62.095 -47.294  1.00  0.00    -0.391 OA
HETATM   24  H   UNL     1     -48.257  61.313 -46.961  1.00  0.00     0.210 HD
ENDBRANCH  21  23
ENDBRANCH  17  21
ENDBRANCH  12  15
ENDBRANCH   1  11
BRANCH   4  25
HETATM   25  C   UNL     1     -41.654  53.945 -52.818  1.00  0.00     0.409 C 
HETATM   26  F   UNL     1     -40.354  54.004 -52.465  1.00  0.00    -0.169 F 
HETATM   27  F   UNL     1     -42.383  53.672 -51.710  1.00  0.00    -0.169 F 
HETATM   28  F   UNL     1     -41.774  52.860 -53.632  1.00  0.00    -0.169 F 
ENDBRANCH   4  25
BRANCH   6  29
HETATM   29  C   UNL     1     -43.499  56.935 -55.787  1.00  0.00    -0.035 A 
HETATM   30  C   UNL     1     -43.186  56.348 -57.028  1.00  0.00     0.009 A 
HETATM   31  C   UNL     1     -42.535  57.073 -58.031  1.00  0.00     0.001 A 
HETATM   32  C   UNL     1     -42.208  58.409 -57.826  1.00  0.00     0.000 A 
HETATM   33  C   UNL     1     -42.537  59.021 -56.622  1.00  0.00     0.001 A 
HETATM   34  C   UNL     1     -43.180  58.293 -55.616  1.00  0.00     0.009 A 
ENDBRANCH   6  29
TORSDOF 6
ENDMDL
