MODEL 1
REMARK VINA RESULT:      -7.7      0.000      0.000
REMARK  3 active torsions:
REMARK  status: ('A' for Active; 'I' for Inactive)
REMARK    1  A    between atoms: C_2  and  C_3 
REMARK    2  A    between atoms: C_7  and  N_8 
REMARK       I    between atoms: N_8  and  C_9 
REMARK    3  A    between atoms: C_9  and  C_10 
ROOT
HETATM    1  N   UNL     1     -42.165  55.904 -55.986  1.00  0.00    -0.309 N 
HETATM    2  C   UNL     1     -42.387  55.173 -54.840  1.00  0.00     0.234 C 
HETATM    3  O   UNL     1     -43.419  54.580 -54.549  1.00  0.00    -0.272 OA
HETATM    4  H   UNL     1     -41.351  56.500 -56.053  1.00  0.00     0.170 HD
ENDROOT
BRANCH   2   5
HETATM    5  C   UNL     1     -41.179  55.186 -53.918  1.00  0.00     0.138 C 
HETATM    6  C   UNL     1     -40.722  53.836 -53.477  1.00  0.00    -0.008 A 
HETATM    7  C   UNL     1     -40.457  53.875 -52.115  1.00  0.00     0.076 A 
HETATM    8  C   UNL     1     -40.486  52.680 -54.206  1.00  0.00     0.030 A 
HETATM    9  C   UNL     1     -39.953  52.788 -51.430  1.00  0.00     0.039 A 
HETATM   10  O   UNL     1     -40.720  55.087 -51.534  1.00  0.00    -0.349 OA
HETATM   11  C   UNL     1     -39.724  51.613 -52.147  1.00  0.00     0.022 A 
HETATM   12  C   UNL     1     -39.992  51.564 -53.523  1.00  0.00     0.011 A 
HETATM   13 BR   UNL     1     -39.667  49.962 -54.476  1.00  0.00    -0.051 Br
HETATM   14  C   UNL     1     -41.494  55.785 -52.540  1.00  0.00     0.194 C 
ENDBRANCH   2   5
BRANCH   1  15
HETATM   15  C   UNL     1     -43.028  56.130 -57.030  1.00  0.00     0.158 A 
HETATM   16  N   UNL     1     -43.190  55.107 -57.875  1.00  0.00    -0.156 NA
HETATM   17  N   UNL     1     -44.004  55.580 -58.823  1.00  0.00    -0.280 N 
HETATM   18  C   UNL     1     -44.419  56.859 -58.600  1.00  0.00     0.037 A 
HETATM   19  H   UNL     1     -44.245  54.971 -59.598  1.00  0.00     0.189 HD
HETATM   20  C   UNL     1     -43.827  57.249 -57.407  1.00  0.00     0.010 A 
HETATM   21  C   UNL     1     -44.037  58.544 -56.714  1.00  0.00     0.054 C 
BRANCH  18  22
HETATM   22  C   UNL     1     -45.334  57.564 -59.543  1.00  0.00     0.055 C 
HETATM   23  C   UNL     1     -46.721  56.942 -59.555  1.00  0.00     0.011 C 
ENDBRANCH  18  22
ENDBRANCH   1  15
TORSDOF 3
ENDMDL
MODEL 2
REMARK VINA RESULT:      -7.4      2.198      3.055
REMARK  3 active torsions:
REMARK  status: ('A' for Active; 'I' for Inactive)
REMARK    1  A    between atoms: C_2  and  C_3 
REMARK    2  A    between atoms: C_7  and  N_8 
REMARK       I    between atoms: N_8  and  C_9 
REMARK    3  A    between atoms: C_9  and  C_10 
ROOT
HETATM    1  N   UNL     1     -40.999  55.560 -53.205  1.00  0.00    -0.309 N 
HETATM    2  C   UNL     1     -41.587  54.848 -52.184  1.00  0.00     0.234 C 
HETATM    3  O   UNL     1     -42.789  54.753 -51.967  1.00  0.00    -0.272 OA
HETATM    4  H   UNL     1     -40.001  55.723 -53.196  1.00  0.00     0.170 HD
ENDROOT
BRANCH   2   5
HETATM    5  C   UNL     1     -40.554  54.174 -51.296  1.00  0.00     0.138 C 
HETATM    6  C   UNL     1     -40.300  52.740 -51.620  1.00  0.00    -0.008 A 
HETATM    7  C   UNL     1     -40.263  52.013 -50.438  1.00  0.00     0.076 A 
HETATM    8  C   UNL     1     -40.051  52.119 -52.835  1.00  0.00     0.030 A 
HETATM    9  C   UNL     1     -39.980  50.662 -50.412  1.00  0.00     0.039 A 
HETATM   10  O   UNL     1     -40.509  52.762 -49.319  1.00  0.00    -0.349 OA
HETATM   11  C   UNL     1     -39.741  50.020 -51.628  1.00  0.00     0.022 A 
HETATM   12  C   UNL     1     -39.779  50.748 -52.827  1.00  0.00     0.011 A 
HETATM   13 BR   UNL     1     -39.445  49.858 -54.464  1.00  0.00    -0.051 Br
HETATM   14  C   UNL     1     -41.039  54.001 -49.850  1.00  0.00     0.194 C 
ENDBRANCH   2   5
BRANCH   1  15
HETATM   15  C   UNL     1     -41.611  56.305 -54.183  1.00  0.00     0.158 A 
HETATM   16  N   UNL     1     -41.432  57.627 -54.096  1.00  0.00    -0.156 NA
HETATM   17  N   UNL     1     -42.162  58.131 -55.095  1.00  0.00    -0.280 N 
HETATM   18  C   UNL     1     -42.771  57.182 -55.862  1.00  0.00     0.037 A 
HETATM   19  H   UNL     1     -42.199  59.140 -55.204  1.00  0.00     0.189 HD
HETATM   20  C   UNL     1     -42.403  55.960 -55.318  1.00  0.00     0.010 A 
HETATM   21  C   UNL     1     -42.763  54.624 -55.854  1.00  0.00     0.054 C 
BRANCH  18  22
HETATM   22  C   UNL     1     -43.627  57.543 -57.027  1.00  0.00     0.055 C 
HETATM   23  C   UNL     1     -42.871  57.430 -58.341  1.00  0.00     0.011 C 
ENDBRANCH  18  22
ENDBRANCH   1  15
TORSDOF 3
ENDMDL
MODEL 3
REMARK VINA RESULT:      -7.2      4.338      6.975
REMARK  3 active torsions:
REMARK  status: ('A' for Active; 'I' for Inactive)
REMARK    1  A    between atoms: C_2  and  C_3 
REMARK    2  A    between atoms: C_7  and  N_8 
REMARK       I    between atoms: N_8  and  C_9 
REMARK    3  A    between atoms: C_9  and  C_10 
ROOT
HETATM    1  N   UNL     1     -41.118  54.703 -51.636  1.00  0.00    -0.309 N 
HETATM    2  C   UNL     1     -42.403  54.973 -51.221  1.00  0.00     0.234 C 
HETATM    3  O   UNL     1     -43.327  54.170 -51.161  1.00  0.00    -0.272 OA
HETATM    4  H   UNL     1     -40.478  55.463 -51.820  1.00  0.00     0.170 HD
ENDROOT
BRANCH   2   5
HETATM    5  C   UNL     1     -42.581  56.435 -50.845  1.00  0.00     0.138 C 
HETATM    6  C   UNL     1     -42.895  57.336 -51.991  1.00  0.00    -0.008 A 
HETATM    7  C   UNL     1     -42.119  58.482 -51.886  1.00  0.00     0.076 A 
HETATM    8  C   UNL     1     -43.828  57.210 -53.009  1.00  0.00     0.030 A 
HETATM    9  C   UNL     1     -42.236  59.535 -52.771  1.00  0.00     0.039 A 
HETATM   10  O   UNL     1     -41.258  58.473 -50.822  1.00  0.00    -0.349 OA
HETATM   11  C   UNL     1     -43.160  59.417 -53.810  1.00  0.00     0.022 A 
HETATM   12  C   UNL     1     -43.946  58.261 -53.924  1.00  0.00     0.011 A 
HETATM   13 BR   UNL     1     -45.199  58.125 -55.336  1.00  0.00    -0.051 Br
HETATM   14  C   UNL     1     -41.270  57.091 -50.388  1.00  0.00     0.194 C 
ENDBRANCH   2   5
BRANCH   1  15
HETATM   15  C   UNL     1     -40.598  53.506 -52.066  1.00  0.00     0.158 A 
HETATM   16  N   UNL     1     -40.252  52.649 -51.100  1.00  0.00    -0.156 NA
HETATM   17  N   UNL     1     -39.721  51.609 -51.749  1.00  0.00    -0.280 N 
HETATM   18  C   UNL     1     -39.753  51.735 -53.107  1.00  0.00     0.037 A 
HETATM   19  H   UNL     1     -39.356  50.835 -51.203  1.00  0.00     0.189 HD
HETATM   20  C   UNL     1     -40.358  52.958 -53.360  1.00  0.00     0.010 A 
HETATM   21  C   UNL     1     -40.682  53.508 -54.699  1.00  0.00     0.054 C 
BRANCH  18  22
HETATM   22  C   UNL     1     -39.211  50.679 -54.007  1.00  0.00     0.055 C 
HETATM   23  C   UNL     1     -40.310  49.779 -54.548  1.00  0.00     0.011 C 
ENDBRANCH  18  22
ENDBRANCH   1  15
TORSDOF 3
ENDMDL
MODEL 4
REMARK VINA RESULT:      -6.9      3.584      7.865
REMARK  3 active torsions:
REMARK  status: ('A' for Active; 'I' for Inactive)
REMARK    1  A    between atoms: C_2  and  C_3 
REMARK    2  A    between atoms: C_7  and  N_8 
REMARK       I    between atoms: N_8  and  C_9 
REMARK    3  A    between atoms: C_9  and  C_10 
ROOT
HETATM    1  N   UNL     1     -43.008  55.458 -56.671  1.00  0.00    -0.309 N 
HETATM    2  C   UNL     1     -42.716  56.718 -57.141  1.00  0.00     0.234 C 
HETATM    3  O   UNL     1     -42.265  57.650 -56.484  1.00  0.00    -0.272 OA
HETATM    4  H   UNL     1     -43.540  54.816 -57.244  1.00  0.00     0.170 HD
ENDROOT
BRANCH   2   5
HETATM    5  C   UNL     1     -43.039  56.859 -58.620  1.00  0.00     0.138 C 
HETATM    6  C   UNL     1     -44.466  57.176 -58.916  1.00  0.00    -0.008 A 
HETATM    7  C   UNL     1     -44.895  56.375 -59.965  1.00  0.00     0.076 A 
HETATM    8  C   UNL     1     -45.311  58.130 -58.369  1.00  0.00     0.030 A 
HETATM    9  C   UNL     1     -46.160  56.486 -60.508  1.00  0.00     0.039 A 
HETATM   10  O   UNL     1     -43.948  55.494 -60.413  1.00  0.00    -0.349 OA
HETATM   11  C   UNL     1     -47.026  57.432 -59.960  1.00  0.00     0.022 A 
HETATM   12  C   UNL     1     -46.601  58.244 -58.897  1.00  0.00     0.011 A 
HETATM   13 BR   UNL     1     -47.790  59.525 -58.173  1.00  0.00    -0.051 Br
HETATM   14  C   UNL     1     -42.937  55.527 -59.376  1.00  0.00     0.194 C 
ENDBRANCH   2   5
BRANCH   1  15
HETATM   15  C   UNL     1     -42.865  54.974 -55.393  1.00  0.00     0.158 A 
HETATM   16  N   UNL     1     -43.963  55.024 -54.632  1.00  0.00    -0.156 NA
HETATM   17  N   UNL     1     -43.566  54.571 -53.440  1.00  0.00    -0.280 N 
HETATM   18  C   UNL     1     -42.261  54.178 -53.409  1.00  0.00     0.037 A 
HETATM   19  H   UNL     1     -44.243  54.548 -52.683  1.00  0.00     0.189 HD
HETATM   20  C   UNL     1     -41.770  54.393 -54.689  1.00  0.00     0.010 A 
HETATM   21  C   UNL     1     -40.408  54.050 -55.167  1.00  0.00     0.054 C 
BRANCH  18  22
HETATM   22  C   UNL     1     -41.631  53.640 -52.170  1.00  0.00     0.055 C 
HETATM   23  C   UNL     1     -42.303  54.176 -50.916  1.00  0.00     0.011 C 
ENDBRANCH  18  22
ENDBRANCH   1  15
TORSDOF 3
ENDMDL
MODEL 5
REMARK VINA RESULT:      -6.9      3.813      7.176
REMARK  3 active torsions:
REMARK  status: ('A' for Active; 'I' for Inactive)
REMARK    1  A    between atoms: C_2  and  C_3 
REMARK    2  A    between atoms: C_7  and  N_8 
REMARK       I    between atoms: N_8  and  C_9 
REMARK    3  A    between atoms: C_9  and  C_10 
ROOT
HETATM    1  N   UNL     1     -41.497  54.132 -53.739  1.00  0.00    -0.309 N 
HETATM    2  C   UNL     1     -41.025  55.209 -54.456  1.00  0.00     0.234 C 
HETATM    3  O   UNL     1     -39.893  55.336 -54.910  1.00  0.00    -0.272 OA
HETATM    4  H   UNL     1     -42.383  54.197 -53.257  1.00  0.00     0.170 HD
ENDROOT
BRANCH   2   5
HETATM    5  C   UNL     1     -42.086  56.284 -54.626  1.00  0.00     0.138 C 
HETATM    6  C   UNL     1     -42.343  57.099 -53.404  1.00  0.00    -0.008 A 
HETATM    7  C   UNL     1     -43.714  57.239 -53.238  1.00  0.00     0.076 A 
HETATM    8  C   UNL     1     -41.463  57.729 -52.537  1.00  0.00     0.030 A 
HETATM    9  C   UNL     1     -44.261  58.000 -52.225  1.00  0.00     0.039 A 
HETATM   10  O   UNL     1     -44.456  56.576 -54.179  1.00  0.00    -0.349 OA
HETATM   11  C   UNL     1     -43.388  58.630 -51.336  1.00  0.00     0.022 A 
HETATM   12  C   UNL     1     -42.001  58.491 -51.495  1.00  0.00     0.011 A 
HETATM   13 BR   UNL     1     -40.836  59.359 -50.282  1.00  0.00    -0.051 Br
HETATM   14  C   UNL     1     -43.493  55.701 -54.816  1.00  0.00     0.194 C 
ENDBRANCH   2   5
BRANCH   1  15
HETATM   15  C   UNL     1     -40.823  52.991 -53.378  1.00  0.00     0.158 A 
HETATM   16  N   UNL     1     -40.733  52.051 -54.324  1.00  0.00    -0.156 NA
HETATM   17  N   UNL     1     -40.107  51.033 -53.727  1.00  0.00    -0.280 N 
HETATM   18  C   UNL     1     -39.741  51.293 -52.440  1.00  0.00     0.037 A 
HETATM   19  H   UNL     1     -39.954  50.182 -54.260  1.00  0.00     0.189 HD
HETATM   20  C   UNL     1     -40.161  52.590 -52.180  1.00  0.00     0.010 A 
HETATM   21  C   UNL     1     -39.924  53.347 -50.926  1.00  0.00     0.054 C 
BRANCH  18  22
HETATM   22  C   UNL     1     -39.029  50.284 -51.606  1.00  0.00     0.055 C 
HETATM   23  C   UNL     1     -39.954  49.637 -50.588  1.00  0.00     0.011 C 
ENDBRANCH  18  22
ENDBRANCH   1  15
TORSDOF 3
ENDMDL
MODEL 6
REMARK VINA RESULT:      -6.8      3.099      6.956
REMARK  3 active torsions:
REMARK  status: ('A' for Active; 'I' for Inactive)
REMARK    1  A    between atoms: C_2  and  C_3 
REMARK    2  A    between atoms: C_7  and  N_8 
REMARK       I    between atoms: N_8  and  C_9 
REMARK    3  A    between atoms: C_9  and  C_10 
ROOT
HETATM    1  N   UNL     1     -41.452  55.775 -54.500  1.00  0.00    -0.309 N 
HETATM    2  C   UNL     1     -42.782  56.130 -54.470  1.00  0.00     0.234 C 
HETATM    3  O   UNL     1     -43.724  55.388 -54.216  1.00  0.00    -0.272 OA
HETATM    4  H   UNL     1     -40.769  56.409 -54.892  1.00  0.00     0.170 HD
ENDROOT
BRANCH   2   5
HETATM    5  C   UNL     1     -42.983  57.597 -54.815  1.00  0.00     0.138 C 
HETATM    6  C   UNL     1     -42.837  57.918 -56.264  1.00  0.00    -0.008 A 
HETATM    7  C   UNL     1     -42.072  59.068 -56.394  1.00  0.00     0.076 A 
HETATM    8  C   UNL     1     -43.381  57.305 -57.384  1.00  0.00     0.030 A 
HETATM    9  C   UNL     1     -41.818  59.651 -57.620  1.00  0.00     0.039 A 
HETATM   10  O   UNL     1     -41.619  59.570 -55.204  1.00  0.00    -0.349 OA
HETATM   11  C   UNL     1     -42.346  59.038 -58.757  1.00  0.00     0.022 A 
HETATM   12  C   UNL     1     -43.119  57.874 -58.634  1.00  0.00     0.011 A 
HETATM   13 BR   UNL     1     -43.830  57.064 -60.189  1.00  0.00    -0.051 Br
HETATM   14  C   UNL     1     -41.864  58.492 -54.266  1.00  0.00     0.194 C 
ENDBRANCH   2   5
BRANCH   1  15
HETATM   15  C   UNL     1     -40.897  54.541 -54.262  1.00  0.00     0.158 A 
HETATM   16  N   UNL     1     -40.295  53.969 -55.309  1.00  0.00    -0.156 NA
HETATM   17  N   UNL     1     -39.900  52.774 -54.858  1.00  0.00    -0.280 N 
HETATM   18  C   UNL     1     -40.179  52.567 -53.540  1.00  0.00     0.037 A 
HETATM   19  H   UNL     1     -39.437  52.144 -55.505  1.00  0.00     0.189 HD
HETATM   20  C   UNL     1     -40.804  53.724 -53.097  1.00  0.00     0.010 A 
HETATM   21  C   UNL     1     -41.235  54.003 -51.705  1.00  0.00     0.054 C 
BRANCH  18  22
HETATM   22  C   UNL     1     -39.816  51.297 -52.850  1.00  0.00     0.055 C 
HETATM   23  C   UNL     1     -39.795  50.119 -53.810  1.00  0.00     0.011 C 
ENDBRANCH  18  22
ENDBRANCH   1  15
TORSDOF 3
ENDMDL
MODEL 7
REMARK VINA RESULT:      -6.8      3.573      4.304
REMARK  3 active torsions:
REMARK  status: ('A' for Active; 'I' for Inactive)
REMARK    1  A    between atoms: C_2  and  C_3 
REMARK    2  A    between atoms: C_7  and  N_8 
REMARK       I    between atoms: N_8  and  C_9 
REMARK    3  A    between atoms: C_9  and  C_10 
ROOT
HETATM    1  N   UNL     1     -44.112  56.189 -53.631  1.00  0.00    -0.309 N 
HETATM    2  C   UNL     1     -42.794  55.804 -53.730  1.00  0.00     0.234 C 
HETATM    3  O   UNL     1     -41.834  56.546 -53.906  1.00  0.00    -0.272 OA
HETATM    4  H   UNL     1     -44.844  55.492 -53.665  1.00  0.00     0.170 HD
ENDROOT
BRANCH   2   5
HETATM    5  C   UNL     1     -42.634  54.297 -53.612  1.00  0.00     0.138 C 
HETATM    6  C   UNL     1     -41.696  53.855 -52.540  1.00  0.00    -0.008 A 
HETATM    7  C   UNL     1     -40.876  52.856 -53.045  1.00  0.00     0.076 A 
HETATM    8  C   UNL     1     -41.601  54.236 -51.210  1.00  0.00     0.030 A 
HETATM    9  C   UNL     1     -39.943  52.201 -52.265  1.00  0.00     0.039 A 
HETATM   10  O   UNL     1     -41.096  52.574 -54.367  1.00  0.00    -0.349 OA
HETATM   11  C   UNL     1     -39.826  52.583 -50.928  1.00  0.00     0.022 A 
HETATM   12  C   UNL     1     -40.650  53.594 -50.410  1.00  0.00     0.011 A 
HETATM   13 BR   UNL     1     -40.478  54.091 -48.593  1.00  0.00    -0.051 Br
HETATM   14  C   UNL     1     -41.912  53.683 -54.819  1.00  0.00     0.194 C 
ENDBRANCH   2   5
BRANCH   1  15
HETATM   15  C   UNL     1     -44.635  57.457 -53.708  1.00  0.00     0.158 A 
HETATM   16  N   UNL     1     -45.178  57.785 -54.885  1.00  0.00    -0.156 NA
HETATM   17  N   UNL     1     -45.549  59.060 -54.739  1.00  0.00    -0.280 N 
HETATM   18  C   UNL     1     -45.314  59.560 -53.493  1.00  0.00     0.037 A 
HETATM   19  H   UNL     1     -45.967  59.534 -55.534  1.00  0.00     0.189 HD
HETATM   20  C   UNL     1     -44.745  58.523 -52.769  1.00  0.00     0.010 A 
HETATM   21  C   UNL     1     -44.377  58.565 -51.332  1.00  0.00     0.054 C 
BRANCH  18  22
HETATM   22  C   UNL     1     -45.661  60.964 -53.132  1.00  0.00     0.055 C 
HETATM   23  C   UNL     1     -46.312  61.701 -54.290  1.00  0.00     0.011 C 
ENDBRANCH  18  22
ENDBRANCH   1  15
TORSDOF 3
ENDMDL
MODEL 8
REMARK VINA RESULT:      -6.7      4.160      5.655
REMARK  3 active torsions:
REMARK  status: ('A' for Active; 'I' for Inactive)
REMARK    1  A    between atoms: C_2  and  C_3 
REMARK    2  A    between atoms: C_7  and  N_8 
REMARK       I    between atoms: N_8  and  C_9 
REMARK    3  A    between atoms: C_9  and  C_10 
ROOT
HETATM    1  N   UNL     1     -44.418  57.096 -52.616  1.00  0.00    -0.309 N 
HETATM    2  C   UNL     1     -43.144  56.756 -53.012  1.00  0.00     0.234 C 
HETATM    3  O   UNL     1     -42.109  57.330 -52.690  1.00  0.00    -0.272 OA
HETATM    4  H   UNL     1     -45.216  56.677 -53.074  1.00  0.00     0.170 HD
ENDROOT
BRANCH   2   5
HETATM    5  C   UNL     1     -43.142  55.556 -53.944  1.00  0.00     0.138 C 
HETATM    6  C   UNL     1     -42.065  54.561 -53.671  1.00  0.00    -0.008 A 
HETATM    7  C   UNL     1     -41.487  54.184 -54.875  1.00  0.00     0.076 A 
HETATM    8  C   UNL     1     -41.659  53.973 -52.482  1.00  0.00     0.030 A 
HETATM    9  C   UNL     1     -40.500  53.221 -54.950  1.00  0.00     0.039 A 
HETATM   10  O   UNL     1     -42.001  54.835 -55.965  1.00  0.00    -0.349 OA
HETATM   11  C   UNL     1     -40.071  52.630 -53.761  1.00  0.00     0.022 A 
HETATM   12  C   UNL     1     -40.649  53.008 -52.539  1.00  0.00     0.011 A 
HETATM   13 BR   UNL     1     -40.057  52.189 -50.940  1.00  0.00    -0.051 Br
HETATM   14  C   UNL     1     -42.755  55.927 -55.383  1.00  0.00     0.194 C 
ENDBRANCH   2   5
BRANCH   1  15
HETATM   15  C   UNL     1     -44.807  58.128 -51.797  1.00  0.00     0.158 A 
HETATM   16  N   UNL     1     -45.241  57.768 -50.585  1.00  0.00    -0.156 NA
HETATM   17  N   UNL     1     -45.617  58.914 -50.010  1.00  0.00    -0.280 N 
HETATM   18  C   UNL     1     -45.397  60.014 -50.784  1.00  0.00     0.037 A 
HETATM   19  H   UNL     1     -46.014  58.877 -49.076  1.00  0.00     0.189 HD
HETATM   20  C   UNL     1     -44.828  59.544 -51.959  1.00  0.00     0.010 A 
HETATM   21  C   UNL     1     -44.346  60.379 -53.087  1.00  0.00     0.054 C 
BRANCH  18  22
HETATM   22  C   UNL     1     -45.747  61.386 -50.318  1.00  0.00     0.055 C 
HETATM   23  C   UNL     1     -44.587  62.049 -49.592  1.00  0.00     0.011 C 
ENDBRANCH  18  22
ENDBRANCH   1  15
TORSDOF 3
ENDMDL
MODEL 9
REMARK VINA RESULT:      -6.7      1.571      1.991
REMARK  3 active torsions:
REMARK  status: ('A' for Active; 'I' for Inactive)
REMARK    1  A    between atoms: C_2  and  C_3 
REMARK    2  A    between atoms: C_7  and  N_8 
REMARK       I    between atoms: N_8  and  C_9 
REMARK    3  A    between atoms: C_9  and  C_10 
ROOT
HETATM    1  N   UNL     1     -42.257  56.232 -53.953  1.00  0.00    -0.309 N 
HETATM    2  C   UNL     1     -42.508  55.552 -52.783  1.00  0.00     0.234 C 
HETATM    3  O   UNL     1     -43.608  55.202 -52.370  1.00  0.00    -0.272 OA
HETATM    4  H   UNL     1     -41.343  56.630 -54.119  1.00  0.00     0.170 HD
ENDROOT
BRANCH   2   5
HETATM    5  C   UNL     1     -41.232  55.277 -52.004  1.00  0.00     0.138 C 
HETATM    6  C   UNL     1     -40.764  53.862 -52.059  1.00  0.00    -0.008 A 
HETATM    7  C   UNL     1     -40.394  53.461 -50.783  1.00  0.00     0.076 A 
HETATM    8  C   UNL     1     -40.605  53.005 -53.138  1.00  0.00     0.030 A 
HETATM    9  C   UNL     1     -39.856  52.216 -50.527  1.00  0.00     0.039 A 
HETATM   10  O   UNL     1     -40.590  54.418 -49.823  1.00  0.00    -0.349 OA
HETATM   11  C   UNL     1     -39.703  51.337 -51.601  1.00  0.00     0.022 A 
HETATM   12  C   UNL     1     -40.077  51.733 -52.894  1.00  0.00     0.011 A 
HETATM   13 BR   UNL     1     -39.854  50.528 -54.335  1.00  0.00    -0.051 Br
HETATM   14  C   UNL     1     -41.429  55.396 -50.486  1.00  0.00     0.194 C 
ENDBRANCH   2   5
BRANCH   1  15
HETATM   15  C   UNL     1     -43.159  56.663 -54.895  1.00  0.00     0.158 A 
HETATM   16  N   UNL     1     -43.072  56.069 -56.090  1.00  0.00    -0.156 NA
HETATM   17  N   UNL     1     -43.987  56.690 -56.840  1.00  0.00    -0.280 N 
HETATM   18  C   UNL     1     -44.703  57.633 -56.164  1.00  0.00     0.037 A 
HETATM   19  H   UNL     1     -44.078  56.416 -57.814  1.00  0.00     0.189 HD
HETATM   20  C   UNL     1     -44.214  57.622 -54.866  1.00  0.00     0.010 A 
HETATM   21  C   UNL     1     -44.729  58.432 -53.734  1.00  0.00     0.054 C 
BRANCH  18  22
HETATM   22  C   UNL     1     -45.772  58.433 -56.826  1.00  0.00     0.055 C 
HETATM   23  C   UNL     1     -45.572  58.507 -58.331  1.00  0.00     0.011 C 
ENDBRANCH  18  22
ENDBRANCH   1  15
TORSDOF 3
ENDMDL
MODEL 10
REMARK VINA RESULT:      -6.6      2.682      3.274
REMARK  3 active torsions:
REMARK  status: ('A' for Active; 'I' for Inactive)
REMARK    1  A    between atoms: C_2  and  C_3 
REMARK    2  A    between atoms: C_7  and  N_8 
REMARK       I    between atoms: N_8  and  C_9 
REMARK    3  A    between atoms: C_9  and  C_10 
ROOT
HETATM    1  N   UNL     1     -42.246  55.097 -55.321  1.00  0.00    -0.309 N 
HETATM    2  C   UNL     1     -41.062  54.519 -54.921  1.00  0.00     0.234 C 
HETATM    3  O   UNL     1     -39.937  54.961 -55.123  1.00  0.00    -0.272 OA
HETATM    4  H   UNL     1     -43.108  54.572 -55.264  1.00  0.00     0.170 HD
ENDROOT
BRANCH   2   5
HETATM    5  C   UNL     1     -41.292  53.210 -54.184  1.00  0.00     0.138 C 
HETATM    6  C   UNL     1     -40.946  53.245 -52.734  1.00  0.00    -0.008 A 
HETATM    7  C   UNL     1     -40.236  52.096 -52.414  1.00  0.00     0.076 A 
HETATM    8  C   UNL     1     -41.276  54.164 -51.749  1.00  0.00     0.030 A 
HETATM    9  C   UNL     1     -39.832  51.814 -51.124  1.00  0.00     0.039 A 
HETATM   10  O   UNL     1     -40.000  51.275 -53.484  1.00  0.00    -0.349 OA
HETATM   11  C   UNL     1     -40.145  52.736 -50.125  1.00  0.00     0.022 A 
HETATM   12  C   UNL     1     -40.859  53.901 -50.440  1.00  0.00     0.011 A 
HETATM   13 BR   UNL     1     -41.278  55.134 -49.068  1.00  0.00    -0.051 Br
HETATM   14  C   UNL     1     -40.323  52.105 -54.626  1.00  0.00     0.194 C 
ENDBRANCH   2   5
BRANCH   1  15
HETATM   15  C   UNL     1     -42.427  56.266 -56.020  1.00  0.00     0.158 A 
HETATM   16  N   UNL     1     -42.143  57.388 -55.351  1.00  0.00    -0.156 NA
HETATM   17  N   UNL     1     -42.455  58.372 -56.199  1.00  0.00    -0.280 N 
HETATM   18  C   UNL     1     -42.885  57.932 -57.415  1.00  0.00     0.037 A 
HETATM   19  H   UNL     1     -42.345  59.331 -55.885  1.00  0.00     0.189 HD
HETATM   20  C   UNL     1     -42.846  56.546 -57.354  1.00  0.00     0.010 A 
HETATM   21  C   UNL     1     -43.159  55.616 -58.467  1.00  0.00     0.054 C 
BRANCH  18  22
HETATM   22  C   UNL     1     -43.278  58.877 -58.499  1.00  0.00     0.055 C 
HETATM   23  C   UNL     1     -44.375  59.828 -58.049  1.00  0.00     0.011 C 
ENDBRANCH  18  22
ENDBRANCH   1  15
TORSDOF 3
ENDMDL
