MODEL 1
REMARK VINA RESULT:      -8.1      0.000      0.000
REMARK  2 active torsions:
REMARK  status: ('A' for Active; 'I' for Inactive)
REMARK    1  A    between atoms: C_11  and  N_12 
REMARK    2  A    between atoms: N_12  and  C_13 
ROOT
HETATM    1  C   UNL     1     -42.730  56.483 -50.951  1.00  0.00     0.045 A 
HETATM    2  C   UNL     1     -41.460  55.926 -50.889  1.00  0.00     0.117 A 
HETATM    3  F   UNL     1     -40.669  56.202 -49.844  1.00  0.00    -0.206 F 
HETATM    4  C   UNL     1     -40.993  55.077 -51.890  1.00  0.00     0.054 A 
HETATM    5  C   UNL     1     -41.802  54.761 -52.995  1.00  0.00     0.001 A 
HETATM    6  C   UNL     1     -43.065  55.373 -53.063  1.00  0.00     0.077 A 
HETATM    7  O   UNL     1     -43.899  55.147 -54.126  1.00  0.00    -0.351 OA
HETATM    8  C   UNL     1     -43.411  55.809 -55.297  1.00  0.00     0.175 C 
HETATM    9  C   UNL     1     -42.526  54.882 -56.121  1.00  0.00     0.029 C 
HETATM   10  C   UNL     1     -41.204  54.520 -55.434  1.00  0.00     0.032 C 
HETATM   11  C   UNL     1     -41.388  53.788 -54.087  1.00  0.00     0.118 C 
HETATM   12  C   UNL     1     -43.541  56.202 -52.045  1.00  0.00     0.040 A 
ENDROOT
BRANCH  11  13
HETATM   13  N   UNL     1     -40.133  53.100 -53.779  1.00  0.00    -0.378 N 
HETATM   14  H   UNL     1     -39.339  53.733 -53.712  1.00  0.00     0.160 HD
BRANCH  13  15
HETATM   15  C   UNL     1     -39.923  51.847 -53.200  1.00  0.00     0.075 A 
HETATM   16  C   UNL     1     -39.797  51.439 -51.921  1.00  0.00     0.131 A 
HETATM   17 CL   UNL     1     -39.888  52.500 -50.555  1.00  0.00    -0.076 Cl
HETATM   18  C   UNL     1     -39.546  50.006 -51.575  1.00  0.00     0.285 A 
HETATM   19  O   UNL     1     -39.432  49.603 -50.420  1.00  0.00    -0.265 OA
HETATM   20  N   UNL     1     -39.440  49.140 -52.632  1.00  0.00    -0.242 N 
HETATM   21  N   UNL     1     -39.574  49.471 -53.938  1.00  0.00    -0.182 NA
HETATM   22  H   UNL     1     -39.265  48.162 -52.418  1.00  0.00     0.192 HD
HETATM   23  C   UNL     1     -39.802  50.719 -54.182  1.00  0.00     0.169 A 
ENDBRANCH  13  15
ENDBRANCH  11  13
TORSDOF 2
ENDMDL
MODEL 2
REMARK VINA RESULT:      -8.0      3.158      6.053
REMARK  2 active torsions:
REMARK  status: ('A' for Active; 'I' for Inactive)
REMARK    1  A    between atoms: C_11  and  N_12 
REMARK    2  A    between atoms: N_12  and  C_13 
ROOT
HETATM    1  C   UNL     1     -39.765  49.961 -50.928  1.00  0.00     0.045 A 
HETATM    2  C   UNL     1     -40.316  50.876 -50.041  1.00  0.00     0.117 A 
HETATM    3  F   UNL     1     -40.602  50.493 -48.791  1.00  0.00    -0.206 F 
HETATM    4  C   UNL     1     -40.568  52.192 -50.425  1.00  0.00     0.054 A 
HETATM    5  C   UNL     1     -40.270  52.628 -51.728  1.00  0.00     0.001 A 
HETATM    6  C   UNL     1     -39.758  51.674 -52.623  1.00  0.00     0.077 A 
HETATM    7  O   UNL     1     -39.477  52.008 -53.922  1.00  0.00    -0.351 OA
HETATM    8  C   UNL     1     -40.685  52.197 -54.665  1.00  0.00     0.175 C 
HETATM    9  C   UNL     1     -41.115  53.659 -54.649  1.00  0.00     0.029 C 
HETATM   10  C   UNL     1     -41.557  54.156 -53.268  1.00  0.00     0.032 C 
HETATM   11  C   UNL     1     -40.452  54.063 -52.194  1.00  0.00     0.118 C 
HETATM   12  C   UNL     1     -39.481  50.363 -52.229  1.00  0.00     0.040 A 
ENDROOT
BRANCH  11  13
HETATM   13  N   UNL     1     -40.815  54.967 -51.101  1.00  0.00    -0.378 N 
HETATM   14  H   UNL     1     -40.060  55.104 -50.432  1.00  0.00     0.160 HD
BRANCH  13  15
HETATM   15  C   UNL     1     -41.822  55.932 -51.042  1.00  0.00     0.075 A 
HETATM   16  C   UNL     1     -43.149  55.858 -50.819  1.00  0.00     0.131 A 
HETATM   17 CL   UNL     1     -43.996  54.378 -50.511  1.00  0.00    -0.076 Cl
HETATM   18  C   UNL     1     -44.019  57.074 -50.836  1.00  0.00     0.285 A 
HETATM   19  O   UNL     1     -45.229  57.039 -50.631  1.00  0.00    -0.265 OA
HETATM   20  N   UNL     1     -43.389  58.262 -51.104  1.00  0.00    -0.242 N 
HETATM   21  N   UNL     1     -42.061  58.418 -51.317  1.00  0.00    -0.182 NA
HETATM   22  H   UNL     1     -43.962  59.100 -51.124  1.00  0.00     0.192 HD
HETATM   23  C   UNL     1     -41.353  57.337 -51.279  1.00  0.00     0.169 A 
ENDBRANCH  13  15
ENDBRANCH  11  13
TORSDOF 2
ENDMDL
MODEL 3
REMARK VINA RESULT:      -7.9      4.095      7.171
REMARK  2 active torsions:
REMARK  status: ('A' for Active; 'I' for Inactive)
REMARK    1  A    between atoms: C_11  and  N_12 
REMARK    2  A    between atoms: N_12  and  C_13 
ROOT
HETATM    1  C   UNL     1     -39.902  52.422 -54.001  1.00  0.00     0.045 A 
HETATM    2  C   UNL     1     -40.314  53.645 -54.513  1.00  0.00     0.117 A 
HETATM    3  F   UNL     1     -40.103  53.923 -55.805  1.00  0.00    -0.206 F 
HETATM    4  C   UNL     1     -40.953  54.587 -53.709  1.00  0.00     0.054 A 
HETATM    5  C   UNL     1     -41.197  54.321 -52.350  1.00  0.00     0.001 A 
HETATM    6  C   UNL     1     -40.729  53.099 -51.840  1.00  0.00     0.077 A 
HETATM    7  O   UNL     1     -40.893  52.779 -50.519  1.00  0.00    -0.351 OA
HETATM    8  C   UNL     1     -40.019  53.563 -49.700  1.00  0.00     0.175 C 
HETATM    9  C   UNL     1     -40.712  54.831 -49.217  1.00  0.00     0.029 C 
HETATM   10  C   UNL     1     -41.017  55.831 -50.338  1.00  0.00     0.032 C 
HETATM   11  C   UNL     1     -41.949  55.270 -51.432  1.00  0.00     0.118 C 
HETATM   12  C   UNL     1     -40.114  52.144 -52.654  1.00  0.00     0.040 A 
ENDROOT
BRANCH  11  13
HETATM   13  N   UNL     1     -42.528  56.407 -52.150  1.00  0.00    -0.378 N 
HETATM   14  H   UNL     1     -42.712  56.204 -53.131  1.00  0.00     0.160 HD
BRANCH  13  15
HETATM   15  C   UNL     1     -43.204  57.523 -51.654  1.00  0.00     0.075 A 
HETATM   16  C   UNL     1     -42.857  58.819 -51.520  1.00  0.00     0.131 A 
HETATM   17 CL   UNL     1     -41.321  59.462 -51.999  1.00  0.00    -0.076 Cl
HETATM   18  C   UNL     1     -43.787  59.823 -50.919  1.00  0.00     0.285 A 
HETATM   19  O   UNL     1     -43.501  61.011 -50.788  1.00  0.00    -0.265 OA
HETATM   20  N   UNL     1     -45.002  59.346 -50.502  1.00  0.00    -0.242 N 
HETATM   21  N   UNL     1     -45.429  58.067 -50.621  1.00  0.00    -0.182 NA
HETATM   22  H   UNL     1     -45.647  60.011 -50.086  1.00  0.00     0.192 HD
HETATM   23  C   UNL     1     -44.592  57.241 -51.159  1.00  0.00     0.169 A 
ENDBRANCH  13  15
ENDBRANCH  11  13
TORSDOF 2
ENDMDL
MODEL 4
REMARK VINA RESULT:      -7.5      3.603      6.677
REMARK  2 active torsions:
REMARK  status: ('A' for Active; 'I' for Inactive)
REMARK    1  A    between atoms: C_11  and  N_12 
REMARK    2  A    between atoms: N_12  and  C_13 
ROOT
HETATM    1  C   UNL     1     -39.516  51.612 -52.861  1.00  0.00     0.045 A 
HETATM    2  C   UNL     1     -40.314  52.318 -53.751  1.00  0.00     0.117 A 
HETATM    3  F   UNL     1     -40.189  52.096 -55.066  1.00  0.00    -0.206 F 
HETATM    4  C   UNL     1     -41.249  53.248 -53.303  1.00  0.00     0.054 A 
HETATM    5  C   UNL     1     -41.410  53.497 -51.929  1.00  0.00     0.001 A 
HETATM    6  C   UNL     1     -40.561  52.807 -51.047  1.00  0.00     0.077 A 
HETATM    7  O   UNL     1     -40.628  53.020 -49.696  1.00  0.00    -0.351 OA
HETATM    8  C   UNL     1     -40.089  54.303 -49.362  1.00  0.00     0.175 C 
HETATM    9  C   UNL     1     -41.182  55.364 -49.327  1.00  0.00     0.029 C 
HETATM   10  C   UNL     1     -41.792  55.666 -50.700  1.00  0.00     0.032 C 
HETATM   11  C   UNL     1     -42.457  54.442 -51.365  1.00  0.00     0.118 C 
HETATM   12  C   UNL     1     -39.643  51.855 -51.497  1.00  0.00     0.040 A 
ENDROOT
BRANCH  11  13
HETATM   13  N   UNL     1     -43.378  54.937 -52.389  1.00  0.00    -0.378 N 
HETATM   14  H   UNL     1     -44.212  54.362 -52.485  1.00  0.00     0.160 HD
BRANCH  13  15
HETATM   15  C   UNL     1     -43.491  56.214 -52.944  1.00  0.00     0.075 A 
HETATM   16  C   UNL     1     -44.103  57.341 -52.530  1.00  0.00     0.131 A 
HETATM   17 CL   UNL     1     -44.980  57.474 -51.042  1.00  0.00    -0.076 Cl
HETATM   18  C   UNL     1     -44.087  58.591 -53.352  1.00  0.00     0.285 A 
HETATM   19  O   UNL     1     -44.631  59.634 -52.999  1.00  0.00    -0.265 OA
HETATM   20  N   UNL     1     -43.427  58.516 -54.550  1.00  0.00    -0.242 N 
HETATM   21  N   UNL     1     -42.773  57.429 -55.023  1.00  0.00    -0.182 NA
HETATM   22  H   UNL     1     -43.408  59.353 -55.125  1.00  0.00     0.192 HD
HETATM   23  C   UNL     1     -42.806  56.379 -54.269  1.00  0.00     0.169 A 
ENDBRANCH  13  15
ENDBRANCH  11  13
TORSDOF 2
ENDMDL
MODEL 5
REMARK VINA RESULT:      -7.5      3.075      5.751
REMARK  2 active torsions:
REMARK  status: ('A' for Active; 'I' for Inactive)
REMARK    1  A    between atoms: C_11  and  N_12 
REMARK    2  A    between atoms: N_12  and  C_13 
ROOT
HETATM    1  C   UNL     1     -42.104  54.276 -49.781  1.00  0.00     0.045 A 
HETATM    2  C   UNL     1     -43.112  54.519 -50.704  1.00  0.00     0.117 A 
HETATM    3  F   UNL     1     -44.293  54.988 -50.281  1.00  0.00    -0.206 F 
HETATM    4  C   UNL     1     -42.917  54.292 -52.064  1.00  0.00     0.054 A 
HETATM    5  C   UNL     1     -41.686  53.808 -52.541  1.00  0.00     0.001 A 
HETATM    6  C   UNL     1     -40.695  53.523 -51.586  1.00  0.00     0.077 A 
HETATM    7  O   UNL     1     -39.481  53.013 -51.964  1.00  0.00    -0.351 OA
HETATM    8  C   UNL     1     -39.615  51.648 -52.372  1.00  0.00     0.175 C 
HETATM    9  C   UNL     1     -39.840  51.545 -53.874  1.00  0.00     0.029 C 
HETATM   10  C   UNL     1     -41.190  52.107 -54.336  1.00  0.00     0.032 C 
HETATM   11  C   UNL     1     -41.378  53.605 -54.014  1.00  0.00     0.118 C 
HETATM   12  C   UNL     1     -40.884  53.777 -50.225  1.00  0.00     0.040 A 
ENDROOT
BRANCH  11  13
HETATM   13  N   UNL     1     -42.437  54.117 -54.886  1.00  0.00    -0.378 N 
HETATM   14  H   UNL     1     -43.355  53.742 -54.657  1.00  0.00     0.160 HD
BRANCH  13  15
HETATM   15  C   UNL     1     -42.464  55.272 -55.672  1.00  0.00     0.075 A 
HETATM   16  C   UNL     1     -42.207  56.567 -55.404  1.00  0.00     0.131 A 
HETATM   17 CL   UNL     1     -41.722  57.155 -53.848  1.00  0.00    -0.076 Cl
HETATM   18  C   UNL     1     -42.341  57.628 -56.450  1.00  0.00     0.285 A 
HETATM   19  O   UNL     1     -42.110  58.815 -56.238  1.00  0.00    -0.265 OA
HETATM   20  N   UNL     1     -42.751  57.205 -57.688  1.00  0.00    -0.242 N 
HETATM   21  N   UNL     1     -43.008  55.922 -58.036  1.00  0.00    -0.182 NA
HETATM   22  H   UNL     1     -42.853  57.910 -58.411  1.00  0.00     0.192 HD
HETATM   23  C   UNL     1     -42.865  55.043 -57.099  1.00  0.00     0.169 A 
ENDBRANCH  13  15
ENDBRANCH  11  13
TORSDOF 2
ENDMDL
MODEL 6
REMARK VINA RESULT:      -7.5      3.533      6.491
REMARK  2 active torsions:
REMARK  status: ('A' for Active; 'I' for Inactive)
REMARK    1  A    between atoms: C_11  and  N_12 
REMARK    2  A    between atoms: N_12  and  C_13 
ROOT
HETATM    1  C   UNL     1     -39.681  51.741 -52.466  1.00  0.00     0.045 A 
HETATM    2  C   UNL     1     -40.401  52.078 -53.605  1.00  0.00     0.117 A 
HETATM    3  F   UNL     1     -40.133  51.460 -54.761  1.00  0.00    -0.206 F 
HETATM    4  C   UNL     1     -41.404  53.045 -53.565  1.00  0.00     0.054 A 
HETATM    5  C   UNL     1     -41.715  53.706 -52.364  1.00  0.00     0.001 A 
HETATM    6  C   UNL     1     -40.943  53.384 -51.235  1.00  0.00     0.077 A 
HETATM    7  O   UNL     1     -41.156  54.011 -50.036  1.00  0.00    -0.351 OA
HETATM    8  C   UNL     1     -40.692  55.363 -50.085  1.00  0.00     0.175 C 
HETATM    9  C   UNL     1     -41.812  56.312 -50.492  1.00  0.00     0.029 C 
HETATM   10  C   UNL     1     -42.284  56.126 -51.938  1.00  0.00     0.032 C 
HETATM   11  C   UNL     1     -42.841  54.717 -52.231  1.00  0.00     0.118 C 
HETATM   12  C   UNL     1     -39.956  52.396 -51.270  1.00  0.00     0.040 A 
ENDROOT
BRANCH  11  13
HETATM   13  N   UNL     1     -43.664  54.805 -53.439  1.00  0.00    -0.378 N 
HETATM   14  H   UNL     1     -44.502  54.230 -53.391  1.00  0.00     0.160 HD
BRANCH  13  15
HETATM   15  C   UNL     1     -43.698  55.796 -54.422  1.00  0.00     0.075 A 
HETATM   16  C   UNL     1     -42.955  56.018 -55.524  1.00  0.00     0.131 A 
HETATM   17 CL   UNL     1     -41.646  55.002 -56.029  1.00  0.00    -0.076 Cl
HETATM   18  C   UNL     1     -43.196  57.199 -56.410  1.00  0.00     0.285 A 
HETATM   19  O   UNL     1     -42.539  57.425 -57.423  1.00  0.00    -0.265 OA
HETATM   20  N   UNL     1     -44.206  58.043 -56.028  1.00  0.00    -0.242 N 
HETATM   21  N   UNL     1     -45.007  57.875 -54.949  1.00  0.00    -0.182 NA
HETATM   22  H   UNL     1     -44.384  58.853 -56.614  1.00  0.00     0.192 HD
HETATM   23  C   UNL     1     -44.764  56.833 -54.224  1.00  0.00     0.169 A 
ENDBRANCH  13  15
ENDBRANCH  11  13
TORSDOF 2
ENDMDL
MODEL 7
REMARK VINA RESULT:      -7.3      3.763      6.476
REMARK  2 active torsions:
REMARK  status: ('A' for Active; 'I' for Inactive)
REMARK    1  A    between atoms: C_11  and  N_12 
REMARK    2  A    between atoms: N_12  and  C_13 
ROOT
HETATM    1  C   UNL     1     -39.833  51.884 -53.159  1.00  0.00     0.045 A 
HETATM    2  C   UNL     1     -40.130  52.455 -51.929  1.00  0.00     0.117 A 
HETATM    3  F   UNL     1     -39.774  51.821 -50.804  1.00  0.00    -0.206 F 
HETATM    4  C   UNL     1     -40.783  53.682 -51.841  1.00  0.00     0.054 A 
HETATM    5  C   UNL     1     -41.162  54.378 -53.002  1.00  0.00     0.001 A 
HETATM    6  C   UNL     1     -40.895  53.760 -54.236  1.00  0.00     0.077 A 
HETATM    7  O   UNL     1     -41.266  54.353 -55.413  1.00  0.00    -0.351 OA
HETATM    8  C   UNL     1     -42.685  54.293 -55.582  1.00  0.00     0.175 C 
HETATM    9  C   UNL     1     -43.356  55.546 -55.034  1.00  0.00     0.029 C 
HETATM   10  C   UNL     1     -43.262  55.679 -53.510  1.00  0.00     0.032 C 
HETATM   11  C   UNL     1     -41.812  55.750 -52.984  1.00  0.00     0.118 C 
HETATM   12  C   UNL     1     -40.216  52.543 -54.323  1.00  0.00     0.040 A 
ENDROOT
BRANCH  11  13
HETATM   13  N   UNL     1     -41.854  56.335 -51.642  1.00  0.00    -0.378 N 
HETATM   14  H   UNL     1     -41.549  55.688 -50.918  1.00  0.00     0.160 HD
BRANCH  13  15
HETATM   15  C   UNL     1     -41.857  57.676 -51.254  1.00  0.00     0.075 A 
HETATM   16  C   UNL     1     -42.830  58.607 -51.184  1.00  0.00     0.131 A 
HETATM   17 CL   UNL     1     -44.485  58.307 -51.596  1.00  0.00    -0.076 Cl
HETATM   18  C   UNL     1     -42.546  60.009 -50.748  1.00  0.00     0.285 A 
HETATM   19  O   UNL     1     -43.411  60.877 -50.669  1.00  0.00    -0.265 OA
HETATM   20  N   UNL     1     -41.241  60.292 -50.440  1.00  0.00    -0.242 N 
HETATM   21  N   UNL     1     -40.216  59.408 -50.468  1.00  0.00    -0.182 NA
HETATM   22  H   UNL     1     -41.026  61.240 -50.146  1.00  0.00     0.192 HD
HETATM   23  C   UNL     1     -40.517  58.207 -50.838  1.00  0.00     0.169 A 
ENDBRANCH  13  15
ENDBRANCH  11  13
TORSDOF 2
ENDMDL
MODEL 8
REMARK VINA RESULT:      -7.3      3.692      6.421
REMARK  2 active torsions:
REMARK  status: ('A' for Active; 'I' for Inactive)
REMARK    1  A    between atoms: C_11  and  N_12 
REMARK    2  A    between atoms: N_12  and  C_13 
ROOT
HETATM    1  C   UNL     1     -39.641  51.353 -51.533  1.00  0.00     0.045 A 
HETATM    2  C   UNL     1     -40.360  52.005 -50.540  1.00  0.00     0.117 A 
HETATM    3  F   UNL     1     -40.333  51.531 -49.289  1.00  0.00    -0.206 F 
HETATM    4  C   UNL     1     -41.103  53.150 -50.820  1.00  0.00     0.054 A 
HETATM    5  C   UNL     1     -41.144  53.677 -52.122  1.00  0.00     0.001 A 
HETATM    6  C   UNL     1     -40.449  52.976 -53.121  1.00  0.00     0.077 A 
HETATM    7  O   UNL     1     -40.469  53.402 -54.423  1.00  0.00    -0.351 OA
HETATM    8  C   UNL     1     -41.751  53.159 -55.012  1.00  0.00     0.175 C 
HETATM    9  C   UNL     1     -42.659  54.373 -54.866  1.00  0.00     0.029 C 
HETATM   10  C   UNL     1     -43.068  54.667 -53.419  1.00  0.00     0.032 C 
HETATM   11  C   UNL     1     -41.874  54.959 -52.485  1.00  0.00     0.118 C 
HETATM   12  C   UNL     1     -39.682  51.844 -52.834  1.00  0.00     0.040 A 
ENDROOT
BRANCH  11  13
HETATM   13  N   UNL     1     -42.389  55.665 -51.310  1.00  0.00    -0.378 N 
HETATM   14  H   UNL     1     -42.016  55.303 -50.435  1.00  0.00     0.160 HD
BRANCH  13  15
HETATM   15  C   UNL     1     -42.959  56.936 -51.214  1.00  0.00     0.075 A 
HETATM   16  C   UNL     1     -42.452  58.179 -51.338  1.00  0.00     0.131 A 
HETATM   17 CL   UNL     1     -40.791  58.513 -51.696  1.00  0.00    -0.076 Cl
HETATM   18  C   UNL     1     -43.302  59.396 -51.156  1.00  0.00     0.285 A 
HETATM   19  O   UNL     1     -42.870  60.540 -51.267  1.00  0.00    -0.265 OA
HETATM   20  N   UNL     1     -44.617  59.172 -50.843  1.00  0.00    -0.242 N 
HETATM   21  N   UNL     1     -45.202  57.956 -50.721  1.00  0.00    -0.182 NA
HETATM   22  H   UNL     1     -45.210  59.985 -50.710  1.00  0.00     0.192 HD
HETATM   23  C   UNL     1     -44.427  56.937 -50.901  1.00  0.00     0.169 A 
ENDBRANCH  13  15
ENDBRANCH  11  13
TORSDOF 2
ENDMDL
MODEL 9
REMARK VINA RESULT:      -7.1      3.275      4.450
REMARK  2 active torsions:
REMARK  status: ('A' for Active; 'I' for Inactive)
REMARK    1  A    between atoms: C_11  and  N_12 
REMARK    2  A    between atoms: N_12  and  C_13 
ROOT
HETATM    1  C   UNL     1     -42.597  58.735 -55.794  1.00  0.00     0.045 A 
HETATM    2  C   UNL     1     -43.142  57.488 -55.524  1.00  0.00     0.117 A 
HETATM    3  F   UNL     1     -44.037  56.962 -56.369  1.00  0.00    -0.206 F 
HETATM    4  C   UNL     1     -42.768  56.766 -54.392  1.00  0.00     0.054 A 
HETATM    5  C   UNL     1     -41.825  57.286 -53.489  1.00  0.00     0.001 A 
HETATM    6  C   UNL     1     -41.322  58.570 -53.756  1.00  0.00     0.077 A 
HETATM    7  O   UNL     1     -40.427  59.165 -52.906  1.00  0.00    -0.351 OA
HETATM    8  C   UNL     1     -41.075  59.567 -51.695  1.00  0.00     0.175 C 
HETATM    9  C   UNL     1     -40.974  58.480 -50.633  1.00  0.00     0.029 C 
HETATM   10  C   UNL     1     -41.771  57.214 -50.968  1.00  0.00     0.032 C 
HETATM   11  C   UNL     1     -41.318  56.527 -52.275  1.00  0.00     0.118 C 
HETATM   12  C   UNL     1     -41.676  59.281 -54.905  1.00  0.00     0.040 A 
ENDROOT
BRANCH  11  13
HETATM   13  N   UNL     1     -41.795  55.143 -52.238  1.00  0.00    -0.378 N 
HETATM   14  H   UNL     1     -42.749  55.043 -52.578  1.00  0.00     0.160 HD
BRANCH  13  15
HETATM   15  C   UNL     1     -41.068  53.951 -52.196  1.00  0.00     0.075 A 
HETATM   16  C   UNL     1     -40.438  53.230 -53.145  1.00  0.00     0.131 A 
HETATM   17 CL   UNL     1     -40.374  53.678 -54.817  1.00  0.00    -0.076 Cl
HETATM   18  C   UNL     1     -39.742  51.946 -52.823  1.00  0.00     0.285 A 
HETATM   19  O   UNL     1     -39.155  51.270 -53.663  1.00  0.00    -0.265 OA
HETATM   20  N   UNL     1     -39.795  51.544 -51.513  1.00  0.00    -0.242 N 
HETATM   21  N   UNL     1     -40.389  52.223 -50.504  1.00  0.00    -0.182 NA
HETATM   22  H   UNL     1     -39.332  50.672 -51.274  1.00  0.00     0.192 HD
HETATM   23  C   UNL     1     -40.966  53.332 -50.834  1.00  0.00     0.169 A 
ENDBRANCH  13  15
ENDBRANCH  11  13
TORSDOF 2
ENDMDL
MODEL 10
REMARK VINA RESULT:      -7.1      4.102      6.629
REMARK  2 active torsions:
REMARK  status: ('A' for Active; 'I' for Inactive)
REMARK    1  A    between atoms: C_11  and  N_12 
REMARK    2  A    between atoms: N_12  and  C_13 
ROOT
HETATM    1  C   UNL     1     -43.035  56.808 -51.116  1.00  0.00     0.045 A 
HETATM    2  C   UNL     1     -43.986  56.963 -52.115  1.00  0.00     0.117 A 
HETATM    3  F   UNL     1     -45.090  57.678 -51.869  1.00  0.00    -0.206 F 
HETATM    4  C   UNL     1     -43.809  56.395 -53.375  1.00  0.00     0.054 A 
HETATM    5  C   UNL     1     -42.656  55.646 -53.668  1.00  0.00     0.001 A 
HETATM    6  C   UNL     1     -41.729  55.461 -52.629  1.00  0.00     0.077 A 
HETATM    7  O   UNL     1     -40.598  54.712 -52.821  1.00  0.00    -0.351 OA
HETATM    8  C   UNL     1     -40.924  53.322 -52.906  1.00  0.00     0.175 C 
HETATM    9  C   UNL     1     -41.144  52.898 -54.352  1.00  0.00     0.029 C 
HETATM   10  C   UNL     1     -42.391  53.516 -54.993  1.00  0.00     0.032 C 
HETATM   11  C   UNL     1     -42.363  55.059 -55.039  1.00  0.00     0.118 C 
HETATM   12  C   UNL     1     -41.895  56.054 -51.375  1.00  0.00     0.040 A 
ENDROOT
BRANCH  11  13
HETATM   13  N   UNL     1     -43.326  55.492 -56.053  1.00  0.00    -0.378 N 
HETATM   14  H   UNL     1     -44.273  55.576 -55.691  1.00  0.00     0.160 HD
BRANCH  13  15
HETATM   15  C   UNL     1     -43.108  56.159 -57.261  1.00  0.00     0.075 A 
HETATM   16  C   UNL     1     -43.388  55.848 -58.542  1.00  0.00     0.131 A 
HETATM   17 CL   UNL     1     -44.181  54.387 -59.030  1.00  0.00    -0.076 Cl
HETATM   18  C   UNL     1     -43.012  56.753 -59.671  1.00  0.00     0.285 A 
HETATM   19  O   UNL     1     -43.259  56.500 -60.848  1.00  0.00    -0.265 OA
HETATM   20  N   UNL     1     -42.357  57.907 -59.327  1.00  0.00    -0.242 N 
HETATM   21  N   UNL     1     -42.060  58.296 -58.064  1.00  0.00    -0.182 NA
HETATM   22  H   UNL     1     -42.089  58.534 -60.079  1.00  0.00     0.192 HD
HETATM   23  C   UNL     1     -42.417  57.484 -57.124  1.00  0.00     0.169 A 
ENDBRANCH  13  15
ENDBRANCH  11  13
TORSDOF 2
ENDMDL
