MODEL 1
REMARK VINA RESULT:      -8.9      0.000      0.000
REMARK  5 active torsions:
REMARK  status: ('A' for Active; 'I' for Inactive)
REMARK    1  A    between atoms: C_2  and  C_3 
REMARK    2  A    between atoms: C_6  and  C_7 
REMARK    3  A    between atoms: C_7  and  C_8 
REMARK       I    between atoms: C_8  and  N_9 
REMARK    4  A    between atoms: N_9  and  C_10 
REMARK    5  A    between atoms: C_17  and  C_18 
REMARK       I    between atoms: C_18  and  N_19 
ROOT
HETATM    1  C   UNL     1     -42.687  56.659 -56.925  1.00  0.00     0.035 A 
HETATM    2  C   UNL     1     -43.235  55.969 -58.017  1.00  0.00     0.046 A 
HETATM    3  C   UNL     1     -44.210  56.599 -58.821  1.00  0.00     0.030 A 
HETATM    4  C   UNL     1     -44.581  57.904 -58.525  1.00  0.00     0.063 A 
HETATM    5  N   UNL     1     -45.527  58.231 -59.456  1.00  0.00    -0.277 N 
HETATM    6  H   UNL     1     -46.024  59.111 -59.545  1.00  0.00     0.189 HD
HETATM    7  N   UNL     1     -45.821  57.247 -60.322  1.00  0.00    -0.168 NA
HETATM    8  C   UNL     1     -45.014  56.230 -59.941  1.00  0.00     0.156 A 
HETATM    9  C   UNL     1     -44.039  58.630 -57.462  1.00  0.00     0.034 A 
HETATM   10  C   UNL     1     -43.092  57.974 -56.663  1.00  0.00     0.032 A 
ENDROOT
BRANCH   1  11
HETATM   11  N   UNL     1     -41.802  56.059 -56.003  1.00  0.00    -0.327 N 
HETATM   12  C   UNL     1     -42.145  55.398 -54.836  1.00  0.00     0.226 C 
HETATM   13  O   UNL     1     -43.243  54.914 -54.579  1.00  0.00    -0.273 OA
HETATM   14  H   UNL     1     -40.814  56.118 -56.218  1.00  0.00     0.169 HD
BRANCH  12  15
HETATM   15  C   UNL     1     -41.010  55.363 -53.825  1.00  0.00     0.141 C 
BRANCH  15  16
HETATM   16  C   UNL     1     -40.510  53.992 -53.453  1.00  0.00    -0.049 A 
HETATM   17  C   UNL     1     -40.386  53.632 -52.104  1.00  0.00     0.008 A 
HETATM   18  C   UNL     1     -40.050  52.325 -51.741  1.00  0.00     0.007 A 
HETATM   19  C   UNL     1     -39.845  51.344 -52.718  1.00  0.00    -0.059 A 
HETATM   20  C   UNL     1     -39.941  51.708 -54.066  1.00  0.00     0.007 A 
HETATM   21  C   UNL     1     -40.272  53.017 -54.430  1.00  0.00     0.008 A 
BRANCH  19  22
HETATM   22  C   UNL     1     -39.541  49.919 -52.327  1.00  0.00     0.034 C 
HETATM   23  C   UNL     1     -39.495  49.724 -50.816  1.00  0.00     0.010 C 
ENDBRANCH  19  22
ENDBRANCH  15  16
ENDBRANCH  12  15
ENDBRANCH   1  11
BRANCH   8  24
HETATM   24  C   UNL     1     -45.045  54.933 -60.633  1.00  0.00     0.270 C 
HETATM   25  N   UNL     1     -45.183  53.857 -59.798  1.00  0.00    -0.365 N 
HETATM   26  H   UNL     1     -45.237  54.021 -58.800  1.00  0.00     0.159 HD
HETATM   27  H   UNL     1     -45.193  52.927 -60.183  1.00  0.00     0.159 HD
HETATM   28  O   UNL     1     -44.944  54.785 -61.846  1.00  0.00    -0.266 OA
ENDBRANCH   8  24
TORSDOF 5
ENDMDL
MODEL 2
REMARK VINA RESULT:      -8.0      1.862      2.736
REMARK  5 active torsions:
REMARK  status: ('A' for Active; 'I' for Inactive)
REMARK    1  A    between atoms: C_2  and  C_3 
REMARK    2  A    between atoms: C_6  and  C_7 
REMARK    3  A    between atoms: C_7  and  C_8 
REMARK       I    between atoms: C_8  and  N_9 
REMARK    4  A    between atoms: N_9  and  C_10 
REMARK    5  A    between atoms: C_17  and  C_18 
REMARK       I    between atoms: C_18  and  N_19 
ROOT
HETATM    1  C   UNL     1     -43.219  56.150 -57.937  1.00  0.00     0.035 A 
HETATM    2  C   UNL     1     -44.178  57.160 -57.769  1.00  0.00     0.046 A 
HETATM    3  C   UNL     1     -45.072  57.454 -58.820  1.00  0.00     0.030 A 
HETATM    4  C   UNL     1     -44.998  56.710 -59.991  1.00  0.00     0.063 A 
HETATM    5  N   UNL     1     -45.968  57.222 -60.807  1.00  0.00    -0.277 N 
HETATM    6  H   UNL     1     -46.201  56.922 -61.747  1.00  0.00     0.189 HD
HETATM    7  N   UNL     1     -46.656  58.249 -60.280  1.00  0.00    -0.168 NA
HETATM    8  C   UNL     1     -46.112  58.405 -59.051  1.00  0.00     0.156 A 
HETATM    9  C   UNL     1     -44.075  55.681 -60.183  1.00  0.00     0.034 A 
HETATM   10  C   UNL     1     -43.180  55.425 -59.134  1.00  0.00     0.032 A 
ENDROOT
BRANCH   1  11
HETATM   11  N   UNL     1     -42.213  55.879 -56.984  1.00  0.00    -0.327 N 
HETATM   12  C   UNL     1     -42.347  55.127 -55.829  1.00  0.00     0.226 C 
HETATM   13  O   UNL     1     -43.220  54.292 -55.611  1.00  0.00    -0.273 OA
HETATM   14  H   UNL     1     -41.299  56.276 -57.163  1.00  0.00     0.169 HD
BRANCH  12  15
HETATM   15  C   UNL     1     -41.303  55.472 -54.779  1.00  0.00     0.141 C 
BRANCH  15  16
HETATM   16  C   UNL     1     -40.740  54.305 -54.011  1.00  0.00    -0.049 A 
HETATM   17  C   UNL     1     -40.802  54.290 -52.611  1.00  0.00     0.008 A 
HETATM   18  C   UNL     1     -40.403  53.161 -51.890  1.00  0.00     0.007 A 
HETATM   19  C   UNL     1     -39.949  52.015 -52.554  1.00  0.00    -0.059 A 
HETATM   20  C   UNL     1     -39.860  52.039 -53.950  1.00  0.00     0.007 A 
HETATM   21  C   UNL     1     -40.253  53.170 -54.672  1.00  0.00     0.008 A 
BRANCH  19  22
HETATM   22  C   UNL     1     -39.575  50.775 -51.780  1.00  0.00     0.034 C 
HETATM   23  C   UNL     1     -39.646  49.512 -52.630  1.00  0.00     0.010 C 
ENDBRANCH  19  22
ENDBRANCH  15  16
ENDBRANCH  12  15
ENDBRANCH   1  11
BRANCH   8  24
HETATM   24  C   UNL     1     -46.577  59.462 -58.141  1.00  0.00     0.270 C 
HETATM   25  N   UNL     1     -47.737  59.160 -57.481  1.00  0.00    -0.365 N 
HETATM   26  H   UNL     1     -48.186  58.272 -57.669  1.00  0.00     0.159 HD
HETATM   27  H   UNL     1     -48.142  59.834 -56.851  1.00  0.00     0.159 HD
HETATM   28  O   UNL     1     -46.013  60.537 -57.971  1.00  0.00    -0.266 OA
ENDBRANCH   8  24
TORSDOF 5
ENDMDL
MODEL 3
REMARK VINA RESULT:      -8.0      3.060      4.913
REMARK  5 active torsions:
REMARK  status: ('A' for Active; 'I' for Inactive)
REMARK    1  A    between atoms: C_2  and  C_3 
REMARK    2  A    between atoms: C_6  and  C_7 
REMARK    3  A    between atoms: C_7  and  C_8 
REMARK       I    between atoms: C_8  and  N_9 
REMARK    4  A    between atoms: N_9  and  C_10 
REMARK    5  A    between atoms: C_17  and  C_18 
REMARK       I    between atoms: C_18  and  N_19 
ROOT
HETATM    1  C   UNL     1     -42.936  57.181 -55.414  1.00  0.00     0.035 A 
HETATM    2  C   UNL     1     -43.381  57.408 -54.103  1.00  0.00     0.046 A 
HETATM    3  C   UNL     1     -44.333  58.421 -53.856  1.00  0.00     0.030 A 
HETATM    4  C   UNL     1     -44.828  59.151 -54.929  1.00  0.00     0.063 A 
HETATM    5  N   UNL     1     -45.709  60.043 -54.383  1.00  0.00    -0.277 N 
HETATM    6  H   UNL     1     -46.259  60.740 -54.873  1.00  0.00     0.189 HD
HETATM    7  N   UNL     1     -45.817  59.974 -53.046  1.00  0.00    -0.168 NA
HETATM    8  C   UNL     1     -44.970  58.975 -52.705  1.00  0.00     0.156 A 
HETATM    9  C   UNL     1     -44.427  58.935 -56.249  1.00  0.00     0.034 A 
HETATM   10  C   UNL     1     -43.462  57.941 -56.465  1.00  0.00     0.032 A 
ENDROOT
BRANCH   1  11
HETATM   11  N   UNL     1     -41.900  56.274 -55.727  1.00  0.00    -0.327 N 
HETATM   12  C   UNL     1     -41.950  54.894 -55.630  1.00  0.00     0.226 C 
HETATM   13  O   UNL     1     -42.969  54.211 -55.605  1.00  0.00    -0.273 OA
HETATM   14  H   UNL     1     -41.030  56.675 -56.056  1.00  0.00     0.169 HD
BRANCH  12  15
HETATM   15  C   UNL     1     -40.573  54.263 -55.499  1.00  0.00     0.141 C 
BRANCH  15  16
HETATM   16  C   UNL     1     -40.319  53.510 -54.220  1.00  0.00    -0.049 A 
HETATM   17  C   UNL     1     -40.617  54.104 -52.985  1.00  0.00     0.008 A 
HETATM   18  C   UNL     1     -40.511  53.374 -51.798  1.00  0.00     0.007 A 
HETATM   19  C   UNL     1     -40.120  52.030 -51.820  1.00  0.00    -0.059 A 
HETATM   20  C   UNL     1     -39.795  51.444 -53.049  1.00  0.00     0.007 A 
HETATM   21  C   UNL     1     -39.895  52.176 -54.236  1.00  0.00     0.008 A 
BRANCH  19  22
HETATM   22  C   UNL     1     -40.063  51.224 -50.545  1.00  0.00     0.034 C 
HETATM   23  C   UNL     1     -39.573  49.799 -50.775  1.00  0.00     0.010 C 
ENDBRANCH  19  22
ENDBRANCH  15  16
ENDBRANCH  12  15
ENDBRANCH   1  11
BRANCH   8  24
HETATM   24  C   UNL     1     -44.773  58.590 -51.300  1.00  0.00     0.270 C 
HETATM   25  N   UNL     1     -43.537  58.904 -50.803  1.00  0.00    -0.365 N 
HETATM   26  H   UNL     1     -42.865  59.347 -51.417  1.00  0.00     0.159 HD
HETATM   27  H   UNL     1     -43.306  58.659 -49.854  1.00  0.00     0.159 HD
HETATM   28  O   UNL     1     -45.610  58.024 -50.605  1.00  0.00    -0.266 OA
ENDBRANCH   8  24
TORSDOF 5
ENDMDL
MODEL 4
REMARK VINA RESULT:      -8.0      3.174      4.417
REMARK  5 active torsions:
REMARK  status: ('A' for Active; 'I' for Inactive)
REMARK    1  A    between atoms: C_2  and  C_3 
REMARK    2  A    between atoms: C_6  and  C_7 
REMARK    3  A    between atoms: C_7  and  C_8 
REMARK       I    between atoms: C_8  and  N_9 
REMARK    4  A    between atoms: N_9  and  C_10 
REMARK    5  A    between atoms: C_17  and  C_18 
REMARK       I    between atoms: C_18  and  N_19 
ROOT
HETATM    1  C   UNL     1     -43.586  57.178 -51.689  1.00  0.00     0.035 A 
HETATM    2  C   UNL     1     -43.436  57.023 -53.075  1.00  0.00     0.046 A 
HETATM    3  C   UNL     1     -44.185  57.835 -53.953  1.00  0.00     0.030 A 
HETATM    4  C   UNL     1     -45.036  58.794 -53.417  1.00  0.00     0.063 A 
HETATM    5  N   UNL     1     -45.616  59.405 -54.494  1.00  0.00    -0.277 N 
HETATM    6  H   UNL     1     -46.296  60.157 -54.480  1.00  0.00     0.189 HD
HETATM    7  N   UNL     1     -45.234  58.917 -55.685  1.00  0.00    -0.168 NA
HETATM    8  C   UNL     1     -44.349  57.943 -55.367  1.00  0.00     0.156 A 
HETATM    9  C   UNL     1     -45.191  58.994 -52.044  1.00  0.00     0.034 A 
HETATM   10  C   UNL     1     -44.456  58.157 -51.193  1.00  0.00     0.032 A 
ENDROOT
BRANCH   1  11
HETATM   11  N   UNL     1     -42.968  56.326 -50.749  1.00  0.00    -0.327 N 
HETATM   12  C   UNL     1     -41.628  56.310 -50.399  1.00  0.00     0.226 C 
HETATM   13  O   UNL     1     -40.832  57.231 -50.561  1.00  0.00    -0.273 OA
HETATM   14  H   UNL     1     -43.566  55.655 -50.282  1.00  0.00     0.169 HD
BRANCH  12  15
HETATM   15  C   UNL     1     -41.188  54.978 -49.817  1.00  0.00     0.141 C 
BRANCH  15  16
HETATM   16  C   UNL     1     -40.831  53.912 -50.820  1.00  0.00    -0.049 A 
HETATM   17  C   UNL     1     -40.913  54.185 -52.192  1.00  0.00     0.008 A 
HETATM   18  C   UNL     1     -40.463  53.255 -53.134  1.00  0.00     0.007 A 
HETATM   19  C   UNL     1     -39.905  52.039 -52.724  1.00  0.00    -0.059 A 
HETATM   20  C   UNL     1     -39.848  51.753 -51.354  1.00  0.00     0.007 A 
HETATM   21  C   UNL     1     -40.303  52.681 -50.412  1.00  0.00     0.008 A 
BRANCH  19  22
HETATM   22  C   UNL     1     -39.364  51.060 -53.736  1.00  0.00     0.034 C 
HETATM   23  C   UNL     1     -40.456  50.203 -54.364  1.00  0.00     0.010 C 
ENDBRANCH  19  22
ENDBRANCH  15  16
ENDBRANCH  12  15
ENDBRANCH   1  11
BRANCH   8  24
HETATM   24  C   UNL     1     -43.703  57.131 -56.408  1.00  0.00     0.270 C 
HETATM   25  N   UNL     1     -44.470  56.943 -57.527  1.00  0.00    -0.365 N 
HETATM   26  H   UNL     1     -45.399  57.348 -57.552  1.00  0.00     0.159 HD
HETATM   27  H   UNL     1     -44.117  56.383 -58.284  1.00  0.00     0.159 HD
HETATM   28  O   UNL     1     -42.586  56.636 -56.317  1.00  0.00    -0.266 OA
ENDBRANCH   8  24
TORSDOF 5
ENDMDL
MODEL 5
REMARK VINA RESULT:      -7.9      1.771      2.374
REMARK  5 active torsions:
REMARK  status: ('A' for Active; 'I' for Inactive)
REMARK    1  A    between atoms: C_2  and  C_3 
REMARK    2  A    between atoms: C_6  and  C_7 
REMARK    3  A    between atoms: C_7  and  C_8 
REMARK       I    between atoms: C_8  and  N_9 
REMARK    4  A    between atoms: N_9  and  C_10 
REMARK    5  A    between atoms: C_17  and  C_18 
REMARK       I    between atoms: C_18  and  N_19 
ROOT
HETATM    1  C   UNL     1     -43.805  57.819 -55.711  1.00  0.00     0.035 A 
HETATM    2  C   UNL     1     -43.596  57.194 -56.950  1.00  0.00     0.046 A 
HETATM    3  C   UNL     1     -44.493  57.436 -58.013  1.00  0.00     0.030 A 
HETATM    4  C   UNL     1     -45.548  58.317 -57.812  1.00  0.00     0.063 A 
HETATM    5  N   UNL     1     -46.231  58.340 -58.996  1.00  0.00    -0.277 N 
HETATM    6  H   UNL     1     -47.064  58.876 -59.215  1.00  0.00     0.189 HD
HETATM    7  N   UNL     1     -45.725  57.537 -59.947  1.00  0.00    -0.168 NA
HETATM    8  C   UNL     1     -44.650  56.970 -59.353  1.00  0.00     0.156 A 
HETATM    9  C   UNL     1     -45.772  58.976 -56.601  1.00  0.00     0.034 A 
HETATM   10  C   UNL     1     -44.883  58.699 -55.553  1.00  0.00     0.032 A 
ENDROOT
BRANCH   1  11
HETATM   11  N   UNL     1     -43.028  57.535 -54.567  1.00  0.00    -0.327 N 
HETATM   12  C   UNL     1     -41.793  58.075 -54.249  1.00  0.00     0.226 C 
HETATM   13  O   UNL     1     -41.330  59.122 -54.692  1.00  0.00    -0.273 OA
HETATM   14  H   UNL     1     -43.413  56.868 -53.911  1.00  0.00     0.169 HD
BRANCH  12  15
HETATM   15  C   UNL     1     -40.995  57.199 -53.298  1.00  0.00     0.141 C 
BRANCH  15  16
HETATM   16  C   UNL     1     -40.991  55.726 -53.616  1.00  0.00    -0.049 A 
HETATM   17  C   UNL     1     -40.366  55.261 -54.782  1.00  0.00     0.008 A 
HETATM   18  C   UNL     1     -40.239  53.891 -55.026  1.00  0.00     0.007 A 
HETATM   19  C   UNL     1     -40.720  52.955 -54.103  1.00  0.00    -0.059 A 
HETATM   20  C   UNL     1     -41.368  53.417 -52.952  1.00  0.00     0.007 A 
HETATM   21  C   UNL     1     -41.501  54.788 -52.710  1.00  0.00     0.008 A 
BRANCH  19  22
HETATM   22  C   UNL     1     -40.530  51.476 -54.337  1.00  0.00     0.034 C 
HETATM   23  C   UNL     1     -39.334  50.912 -53.578  1.00  0.00     0.010 C 
ENDBRANCH  19  22
ENDBRANCH  15  16
ENDBRANCH  12  15
ENDBRANCH   1  11
BRANCH   8  24
HETATM   24  C   UNL     1     -43.817  55.989 -60.063  1.00  0.00     0.270 C 
HETATM   25  N   UNL     1     -44.468  54.826 -60.376  1.00  0.00    -0.365 N 
HETATM   26  H   UNL     1     -45.435  54.720 -60.094  1.00  0.00     0.159 HD
HETATM   27  H   UNL     1     -43.970  54.087 -60.845  1.00  0.00     0.159 HD
HETATM   28  O   UNL     1     -42.638  56.152 -60.355  1.00  0.00    -0.266 OA
ENDBRANCH   8  24
TORSDOF 5
ENDMDL
MODEL 6
REMARK VINA RESULT:      -7.9      3.093      8.941
REMARK  5 active torsions:
REMARK  status: ('A' for Active; 'I' for Inactive)
REMARK    1  A    between atoms: C_2  and  C_3 
REMARK    2  A    between atoms: C_6  and  C_7 
REMARK    3  A    between atoms: C_7  and  C_8 
REMARK       I    between atoms: C_8  and  N_9 
REMARK    4  A    between atoms: N_9  and  C_10 
REMARK    5  A    between atoms: C_17  and  C_18 
REMARK       I    between atoms: C_18  and  N_19 
ROOT
HETATM    1  C   UNL     1     -40.903  55.100 -54.121  1.00  0.00     0.035 A 
HETATM    2  C   UNL     1     -40.955  54.988 -52.723  1.00  0.00     0.046 A 
HETATM    3  C   UNL     1     -40.600  53.769 -52.108  1.00  0.00     0.030 A 
HETATM    4  C   UNL     1     -40.176  52.714 -52.906  1.00  0.00     0.063 A 
HETATM    5  N   UNL     1     -39.914  51.689 -52.040  1.00  0.00    -0.277 N 
HETATM    6  H   UNL     1     -39.584  50.758 -52.272  1.00  0.00     0.189 HD
HETATM    7  N   UNL     1     -40.147  51.975 -50.749  1.00  0.00    -0.168 NA
HETATM    8  C   UNL     1     -40.573  53.259 -50.774  1.00  0.00     0.156 A 
HETATM    9  C   UNL     1     -40.088  52.797 -54.296  1.00  0.00     0.034 A 
HETATM   10  C   UNL     1     -40.471  54.010 -54.886  1.00  0.00     0.032 A 
ENDROOT
BRANCH   1  11
HETATM   11  N   UNL     1     -41.358  56.240 -54.818  1.00  0.00    -0.327 N 
HETATM   12  C   UNL     1     -42.632  56.452 -55.318  1.00  0.00     0.226 C 
HETATM   13  O   UNL     1     -43.653  55.879 -54.950  1.00  0.00    -0.273 OA
HETATM   14  H   UNL     1     -40.683  56.980 -54.969  1.00  0.00     0.169 HD
BRANCH  12  15
HETATM   15  C   UNL     1     -42.658  57.465 -56.450  1.00  0.00     0.141 C 
BRANCH  15  16
HETATM   16  C   UNL     1     -43.467  57.072 -57.659  1.00  0.00    -0.049 A 
HETATM   17  C   UNL     1     -43.122  55.929 -58.393  1.00  0.00     0.008 A 
HETATM   18  C   UNL     1     -43.935  55.477 -59.436  1.00  0.00     0.007 A 
HETATM   19  C   UNL     1     -45.121  56.149 -59.757  1.00  0.00    -0.059 A 
HETATM   20  C   UNL     1     -45.452  57.306 -59.044  1.00  0.00     0.007 A 
HETATM   21  C   UNL     1     -44.636  57.762 -58.004  1.00  0.00     0.008 A 
BRANCH  19  22
HETATM   22  C   UNL     1     -46.030  55.628 -60.843  1.00  0.00     0.034 C 
HETATM   23  C   UNL     1     -47.287  56.475 -61.010  1.00  0.00     0.010 C 
ENDBRANCH  19  22
ENDBRANCH  15  16
ENDBRANCH  12  15
ENDBRANCH   1  11
BRANCH   8  24
HETATM   24  C   UNL     1     -40.964  53.957 -49.541  1.00  0.00     0.270 C 
HETATM   25  N   UNL     1     -39.955  54.074 -48.622  1.00  0.00    -0.365 N 
HETATM   26  H   UNL     1     -39.050  53.674 -48.841  1.00  0.00     0.159 HD
HETATM   27  H   UNL     1     -40.136  54.521 -47.738  1.00  0.00     0.159 HD
HETATM   28  O   UNL     1     -42.084  54.397 -49.310  1.00  0.00    -0.266 OA
ENDBRANCH   8  24
TORSDOF 5
ENDMDL
MODEL 7
REMARK VINA RESULT:      -7.9      2.201      2.873
REMARK  5 active torsions:
REMARK  status: ('A' for Active; 'I' for Inactive)
REMARK    1  A    between atoms: C_2  and  C_3 
REMARK    2  A    between atoms: C_6  and  C_7 
REMARK    3  A    between atoms: C_7  and  C_8 
REMARK       I    between atoms: C_8  and  N_9 
REMARK    4  A    between atoms: N_9  and  C_10 
REMARK    5  A    between atoms: C_17  and  C_18 
REMARK       I    between atoms: C_18  and  N_19 
ROOT
HETATM    1  C   UNL     1     -42.448  58.335 -55.618  1.00  0.00     0.035 A 
HETATM    2  C   UNL     1     -42.544  57.767 -56.898  1.00  0.00     0.046 A 
HETATM    3  C   UNL     1     -42.394  58.587 -58.037  1.00  0.00     0.030 A 
HETATM    4  C   UNL     1     -42.124  59.938 -57.859  1.00  0.00     0.063 A 
HETATM    5  N   UNL     1     -42.041  60.459 -59.120  1.00  0.00    -0.277 N 
HETATM    6  H   UNL     1     -41.856  61.423 -59.376  1.00  0.00     0.189 HD
HETATM    7  N   UNL     1     -42.253  59.571 -60.106  1.00  0.00    -0.168 NA
HETATM    8  C   UNL     1     -42.474  58.408 -59.451  1.00  0.00     0.156 A 
HETATM    9  C   UNL     1     -41.996  60.532 -56.602  1.00  0.00     0.034 A 
HETATM   10  C   UNL     1     -42.175  59.702 -55.486  1.00  0.00     0.032 A 
ENDROOT
BRANCH   1  11
HETATM   11  N   UNL     1     -42.706  57.610 -54.435  1.00  0.00    -0.327 N 
HETATM   12  C   UNL     1     -41.770  57.013 -53.607  1.00  0.00     0.226 C 
HETATM   13  O   UNL     1     -40.577  57.297 -53.549  1.00  0.00    -0.273 OA
HETATM   14  H   UNL     1     -43.677  57.516 -54.163  1.00  0.00     0.169 HD
BRANCH  12  15
HETATM   15  C   UNL     1     -42.356  55.887 -52.772  1.00  0.00     0.141 C 
BRANCH  15  16
HETATM   16  C   UNL     1     -41.682  54.547 -52.918  1.00  0.00    -0.049 A 
HETATM   17  C   UNL     1     -41.734  53.865 -54.141  1.00  0.00     0.008 A 
HETATM   18  C   UNL     1     -41.007  52.687 -54.333  1.00  0.00     0.007 A 
HETATM   19  C   UNL     1     -40.199  52.173 -53.312  1.00  0.00    -0.059 A 
HETATM   20  C   UNL     1     -40.168  52.838 -52.081  1.00  0.00     0.007 A 
HETATM   21  C   UNL     1     -40.900  54.014 -51.886  1.00  0.00     0.008 A 
BRANCH  19  22
HETATM   22  C   UNL     1     -39.367  50.935 -53.538  1.00  0.00     0.034 C 
HETATM   23  C   UNL     1     -40.025  49.955 -54.503  1.00  0.00     0.010 C 
ENDBRANCH  19  22
ENDBRANCH  15  16
ENDBRANCH  12  15
ENDBRANCH   1  11
BRANCH   8  24
HETATM   24  C   UNL     1     -42.776  57.168 -60.181  1.00  0.00     0.270 C 
HETATM   25  N   UNL     1     -44.053  57.104 -60.668  1.00  0.00    -0.365 N 
HETATM   26  H   UNL     1     -44.682  57.877 -60.486  1.00  0.00     0.159 HD
HETATM   27  H   UNL     1     -44.356  56.282 -61.165  1.00  0.00     0.159 HD
HETATM   28  O   UNL     1     -41.987  56.245 -60.348  1.00  0.00    -0.266 OA
ENDBRANCH   8  24
TORSDOF 5
ENDMDL
MODEL 8
REMARK VINA RESULT:      -7.8      2.727      3.802
REMARK  5 active torsions:
REMARK  status: ('A' for Active; 'I' for Inactive)
REMARK    1  A    between atoms: C_2  and  C_3 
REMARK    2  A    between atoms: C_6  and  C_7 
REMARK    3  A    between atoms: C_7  and  C_8 
REMARK       I    between atoms: C_8  and  N_9 
REMARK    4  A    between atoms: N_9  and  C_10 
REMARK    5  A    between atoms: C_17  and  C_18 
REMARK       I    between atoms: C_18  and  N_19 
ROOT
HETATM    1  C   UNL     1     -43.265  56.750 -57.000  1.00  0.00     0.035 A 
HETATM    2  C   UNL     1     -42.906  58.073 -57.296  1.00  0.00     0.046 A 
HETATM    3  C   UNL     1     -42.490  58.407 -58.603  1.00  0.00     0.030 A 
HETATM    4  C   UNL     1     -42.476  57.415 -59.576  1.00  0.00     0.063 A 
HETATM    5  N   UNL     1     -42.031  58.029 -60.712  1.00  0.00    -0.277 N 
HETATM    6  H   UNL     1     -41.893  57.608 -61.625  1.00  0.00     0.189 HD
HETATM    7  N   UNL     1     -41.735  59.331 -60.564  1.00  0.00    -0.168 NA
HETATM    8  C   UNL     1     -42.013  59.579 -59.263  1.00  0.00     0.156 A 
HETATM    9  C   UNL     1     -42.851  56.094 -59.323  1.00  0.00     0.034 A 
HETATM   10  C   UNL     1     -43.235  55.782 -58.011  1.00  0.00     0.032 A 
ENDROOT
BRANCH   1  11
HETATM   11  N   UNL     1     -43.572  56.311 -55.694  1.00  0.00    -0.327 N 
HETATM   12  C   UNL     1     -42.764  56.412 -54.574  1.00  0.00     0.226 C 
HETATM   13  O   UNL     1     -41.825  57.191 -54.433  1.00  0.00    -0.273 OA
HETATM   14  H   UNL     1     -44.478  55.878 -55.561  1.00  0.00     0.169 HD
BRANCH  12  15
HETATM   15  C   UNL     1     -43.117  55.397 -53.500  1.00  0.00     0.141 C 
BRANCH  15  16
HETATM   16  C   UNL     1     -42.187  54.217 -53.387  1.00  0.00    -0.049 A 
HETATM   17  C   UNL     1     -41.951  53.400 -54.501  1.00  0.00     0.008 A 
HETATM   18  C   UNL     1     -40.994  52.382 -54.451  1.00  0.00     0.007 A 
HETATM   19  C   UNL     1     -40.241  52.169 -53.290  1.00  0.00    -0.059 A 
HETATM   20  C   UNL     1     -40.495  52.966 -52.168  1.00  0.00     0.007 A 
HETATM   21  C   UNL     1     -41.456  53.980 -52.216  1.00  0.00     0.008 A 
BRANCH  19  22
HETATM   22  C   UNL     1     -39.166  51.110 -53.254  1.00  0.00     0.034 C 
HETATM   23  C   UNL     1     -39.485  49.921 -54.153  1.00  0.00     0.010 C 
ENDBRANCH  19  22
ENDBRANCH  15  16
ENDBRANCH  12  15
ENDBRANCH   1  11
BRANCH   8  24
HETATM   24  C   UNL     1     -41.797  60.911 -58.679  1.00  0.00     0.270 C 
HETATM   25  N   UNL     1     -42.843  61.776 -58.860  1.00  0.00    -0.365 N 
HETATM   26  H   UNL     1     -43.653  61.457 -59.377  1.00  0.00     0.159 HD
HETATM   27  H   UNL     1     -42.776  62.718 -58.511  1.00  0.00     0.159 HD
HETATM   28  O   UNL     1     -40.782  61.260 -58.087  1.00  0.00    -0.266 OA
ENDBRANCH   8  24
TORSDOF 5
ENDMDL
MODEL 9
REMARK VINA RESULT:      -7.6      5.008      6.548
REMARK  5 active torsions:
REMARK  status: ('A' for Active; 'I' for Inactive)
REMARK    1  A    between atoms: C_2  and  C_3 
REMARK    2  A    between atoms: C_6  and  C_7 
REMARK    3  A    between atoms: C_7  and  C_8 
REMARK       I    between atoms: C_8  and  N_9 
REMARK    4  A    between atoms: N_9  and  C_10 
REMARK    5  A    between atoms: C_17  and  C_18 
REMARK       I    between atoms: C_18  and  N_19 
ROOT
HETATM    1  C   UNL     1     -43.590  57.324 -51.450  1.00  0.00     0.035 A 
HETATM    2  C   UNL     1     -44.133  58.528 -50.978  1.00  0.00     0.046 A 
HETATM    3  C   UNL     1     -44.874  59.350 -51.854  1.00  0.00     0.030 A 
HETATM    4  C   UNL     1     -45.072  58.928 -53.162  1.00  0.00     0.063 A 
HETATM    5  N   UNL     1     -45.805  59.918 -53.755  1.00  0.00    -0.277 N 
HETATM    6  H   UNL     1     -46.133  59.949 -54.714  1.00  0.00     0.189 HD
HETATM    7  N   UNL     1     -46.087  60.959 -52.954  1.00  0.00    -0.168 NA
HETATM    8  C   UNL     1     -45.516  60.623 -51.774  1.00  0.00     0.156 A 
HETATM    9  C   UNL     1     -44.568  57.725 -53.660  1.00  0.00     0.034 A 
HETATM   10  C   UNL     1     -43.814  56.939 -52.778  1.00  0.00     0.032 A 
ENDROOT
BRANCH   1  11
HETATM   11  N   UNL     1     -42.737  56.509 -50.675  1.00  0.00    -0.327 N 
HETATM   12  C   UNL     1     -41.359  56.606 -50.581  1.00  0.00     0.226 C 
HETATM   13  O   UNL     1     -40.687  57.596 -50.854  1.00  0.00    -0.273 OA
HETATM   14  H   UNL     1     -43.179  55.779 -50.131  1.00  0.00     0.169 HD
BRANCH  12  15
HETATM   15  C   UNL     1     -40.707  55.305 -50.142  1.00  0.00     0.141 C 
BRANCH  15  16
HETATM   16  C   UNL     1     -40.646  54.220 -51.185  1.00  0.00    -0.049 A 
HETATM   17  C   UNL     1     -40.977  54.508 -52.517  1.00  0.00     0.008 A 
HETATM   18  C   UNL     1     -40.801  53.549 -53.519  1.00  0.00     0.007 A 
HETATM   19  C   UNL     1     -40.276  52.288 -53.215  1.00  0.00    -0.059 A 
HETATM   20  C   UNL     1     -39.972  51.990 -51.882  1.00  0.00     0.007 A 
HETATM   21  C   UNL     1     -40.153  52.946 -50.878  1.00  0.00     0.008 A 
BRANCH  19  22
HETATM   22  C   UNL     1     -40.030  51.273 -54.305  1.00  0.00     0.034 C 
HETATM   23  C   UNL     1     -39.560  49.930 -53.759  1.00  0.00     0.010 C 
ENDBRANCH  19  22
ENDBRANCH  15  16
ENDBRANCH  12  15
ENDBRANCH   1  11
BRANCH   8  24
HETATM   24  C   UNL     1     -45.577  61.525 -50.614  1.00  0.00     0.270 C 
HETATM   25  N   UNL     1     -44.419  62.219 -50.385  1.00  0.00    -0.365 N 
HETATM   26  H   UNL     1     -43.627  62.058 -50.997  1.00  0.00     0.159 HD
HETATM   27  H   UNL     1     -44.362  62.845 -49.599  1.00  0.00     0.159 HD
HETATM   28  O   UNL     1     -46.551  61.661 -49.884  1.00  0.00    -0.266 OA
ENDBRANCH   8  24
TORSDOF 5
ENDMDL
MODEL 10
REMARK VINA RESULT:      -7.6     15.055     17.341
REMARK  5 active torsions:
REMARK  status: ('A' for Active; 'I' for Inactive)
REMARK    1  A    between atoms: C_2  and  C_3 
REMARK    2  A    between atoms: C_6  and  C_7 
REMARK    3  A    between atoms: C_7  and  C_8 
REMARK       I    between atoms: C_8  and  N_9 
REMARK    4  A    between atoms: N_9  and  C_10 
REMARK    5  A    between atoms: C_17  and  C_18 
REMARK       I    between atoms: C_18  and  N_19 
ROOT
HETATM    1  C   UNL     1     -36.834  41.495 -56.999  1.00  0.00     0.035 A 
HETATM    2  C   UNL     1     -37.466  41.230 -55.775  1.00  0.00     0.046 A 
HETATM    3  C   UNL     1     -36.849  41.632 -54.570  1.00  0.00     0.030 A 
HETATM    4  C   UNL     1     -35.638  42.310 -54.631  1.00  0.00     0.063 A 
HETATM    5  N   UNL     1     -35.295  42.556 -53.331  1.00  0.00    -0.277 N 
HETATM    6  H   UNL     1     -34.467  43.034 -52.994  1.00  0.00     0.189 HD
HETATM    7  N   UNL     1     -36.166  42.081 -52.425  1.00  0.00    -0.168 NA
HETATM    8  C   UNL     1     -37.132  41.505 -53.177  1.00  0.00     0.156 A 
HETATM    9  C   UNL     1     -34.994  42.613 -55.832  1.00  0.00     0.034 A 
HETATM   10  C   UNL     1     -35.613  42.181 -57.013  1.00  0.00     0.032 A 
ENDROOT
BRANCH   1  11
HETATM   11  N   UNL     1     -37.323  41.019 -58.234  1.00  0.00    -0.327 N 
HETATM   12  C   UNL     1     -36.891  39.896 -58.919  1.00  0.00     0.226 C 
HETATM   13  O   UNL     1     -36.285  38.945 -58.433  1.00  0.00    -0.273 OA
HETATM   14  H   UNL     1     -38.067  41.554 -58.665  1.00  0.00     0.169 HD
BRANCH  12  15
HETATM   15  C   UNL     1     -37.196  39.960 -60.407  1.00  0.00     0.141 C 
BRANCH  15  16
HETATM   16  C   UNL     1     -38.253  39.006 -60.898  1.00  0.00    -0.049 A 
HETATM   17  C   UNL     1     -39.324  38.656 -60.065  1.00  0.00     0.008 A 
HETATM   18  C   UNL     1     -40.380  37.878 -60.548  1.00  0.00     0.007 A 
HETATM   19  C   UNL     1     -40.397  37.446 -61.879  1.00  0.00    -0.059 A 
HETATM   20  C   UNL     1     -39.315  37.773 -62.705  1.00  0.00     0.007 A 
HETATM   21  C   UNL     1     -38.255  38.546 -62.221  1.00  0.00     0.008 A 
BRANCH  19  22
HETATM   22  C   UNL     1     -41.565  36.658 -62.418  1.00  0.00     0.034 C 
HETATM   23  C   UNL     1     -42.883  37.032 -61.750  1.00  0.00     0.010 C 
ENDBRANCH  19  22
ENDBRANCH  15  16
ENDBRANCH  12  15
ENDBRANCH   1  11
BRANCH   8  24
HETATM   24  C   UNL     1     -38.283  40.833 -52.554  1.00  0.00     0.270 C 
HETATM   25  N   UNL     1     -39.411  41.605 -52.488  1.00  0.00    -0.365 N 
HETATM   26  H   UNL     1     -39.373  42.552 -52.844  1.00  0.00     0.159 HD
HETATM   27  H   UNL     1     -40.243  41.234 -52.059  1.00  0.00     0.159 HD
HETATM   28  O   UNL     1     -38.270  39.691 -52.109  1.00  0.00    -0.266 OA
ENDBRANCH   8  24
TORSDOF 5
ENDMDL
