MODEL 1
REMARK VINA RESULT:      -9.0      0.000      0.000
REMARK  9 active torsions:
REMARK  status: ('A' for Active; 'I' for Inactive)
REMARK    1  A    between atoms: C_4  and  C_5 
REMARK    2  A    between atoms: C_13  and  C_14 
REMARK    3  A    between atoms: C_14  and  N_15 
REMARK    4  A    between atoms: C_19  and  C_20 
REMARK       I    between atoms: C_20  and  N_21 
REMARK    5  A    between atoms: N_21  and  C_22 
REMARK    6  A    between atoms: C_22  and  C_23 
REMARK    7  A    between atoms: C_23  and  C_24 
REMARK    8  A    between atoms: C_24  and  N_25 
REMARK    9  A    between atoms: N_29  and  C_30 
ROOT
HETATM    1  N   UNL     1     -42.193  56.864 -57.753  1.00  0.00    -0.066 N 
HETATM    2  H   UNL     1     -41.365  56.267 -57.903  1.00  0.00     0.280 HD
HETATM    3  C   UNL     1     -43.401  55.993 -57.982  1.00  0.00     0.236 C 
HETATM    4  C   UNL     1     -43.525  55.626 -59.459  1.00  0.00     0.042 C 
HETATM    5  C   UNL     1     -43.583  56.864 -60.356  1.00  0.00     0.081 C 
HETATM    6  C   UNL     1     -42.353  57.736 -60.104  1.00  0.00     0.042 C 
HETATM    7  C   UNL     1     -42.120  58.077 -58.639  1.00  0.00     0.236 C 
ENDROOT
BRANCH   5   8
HETATM    8  C   UNL     1     -44.896  57.601 -60.097  1.00  0.00     0.221 C 
HETATM    9  N   UNL     1     -45.661  57.078 -59.082  1.00  0.00    -0.361 N 
HETATM   10  H   UNL     1     -45.340  56.238 -58.606  1.00  0.00     0.162 HD
HETATM   11  O   UNL     1     -45.179  58.648 -60.673  1.00  0.00    -0.273 OA
BRANCH   9  12
HETATM   12  C   UNL     1     -46.746  57.824 -58.468  1.00  0.00     0.124 C 
BRANCH  12  13
HETATM   13  C   UNL     1     -46.380  58.486 -57.135  1.00  0.00     0.047 C 
BRANCH  13  14
HETATM   14  C   UNL     1     -45.448  59.671 -57.385  1.00  0.00     0.236 C 
BRANCH  14  15
HETATM   15  N   UNL     1     -45.040  60.363 -56.102  1.00  0.00    -0.068 N 
HETATM   16  H   UNL     1     -45.531  61.265 -56.036  1.00  0.00     0.280 HD
HETATM   17  C   UNL     1     -45.492  59.530 -54.882  1.00  0.00     0.254 C 
HETATM   18  C   UNL     1     -45.053  60.185 -53.556  1.00  0.00     0.150 C 
HETATM   19  N   UNL     1     -43.608  60.468 -53.548  1.00  0.00    -0.378 N 
HETATM   20  C   UNL     1     -43.167  61.317 -54.673  1.00  0.00     0.150 C 
HETATM   21  C   UNL     1     -43.531  60.653 -56.019  1.00  0.00     0.254 C 
BRANCH  19  22
HETATM   22  C   UNL     1     -42.693  59.531 -53.061  1.00  0.00     0.031 A 
HETATM   23  C   UNL     1     -43.023  58.546 -52.118  1.00  0.00     0.053 A 
HETATM   24  C   UNL     1     -42.075  57.617 -51.667  1.00  0.00     0.036 A 
HETATM   25 CL   UNL     1     -42.554  56.403 -50.544  1.00  0.00    -0.084 Cl
HETATM   26  C   UNL     1     -40.765  57.658 -52.122  1.00  0.00     0.024 A 
HETATM   27  C   UNL     1     -40.399  58.645 -53.028  1.00  0.00     0.004 A 
HETATM   28  C   UNL     1     -41.351  59.567 -53.484  1.00  0.00     0.029 A 
ENDBRANCH  19  22
ENDBRANCH  14  15
ENDBRANCH  13  14
ENDBRANCH  12  13
ENDBRANCH   9  12
ENDBRANCH   5   8
BRANCH   1  29
HETATM   29  C   UNL     1     -42.077  57.306 -56.295  1.00  0.00     0.296 C 
BRANCH  29  30
HETATM   30  C   UNL     1     -42.121  56.214 -55.292  1.00  0.00     0.092 A 
HETATM   31  C   UNL     1     -43.183  55.810 -54.511  1.00  0.00     0.078 A 
HETATM   32  C   UNL     1     -44.585  56.236 -54.348  1.00  0.00     0.079 C 
HETATM   33  O   UNL     1     -42.760  54.767 -53.744  1.00  0.00    -0.294 OA
HETATM   34  C   UNL     1     -41.445  54.588 -54.085  1.00  0.00     0.180 A 
HETATM   35  N   UNL     1     -41.015  55.433 -55.013  1.00  0.00    -0.224 NA
BRANCH  34  36
HETATM   36  C   UNL     1     -40.744  53.500 -53.409  1.00  0.00     0.019 A 
HETATM   37  C   UNL     1     -40.396  52.345 -54.124  1.00  0.00     0.039 A 
HETATM   38  C   UNL     1     -39.737  51.293 -53.486  1.00  0.00     0.035 A 
HETATM   39 CL   UNL     1     -39.331  49.883 -54.383  1.00  0.00    -0.084 Cl
HETATM   40  C   UNL     1     -39.412  51.373 -52.134  1.00  0.00     0.024 A 
HETATM   41  C   UNL     1     -39.750  52.515 -51.412  1.00  0.00     0.003 A 
HETATM   42  C   UNL     1     -40.412  53.571 -52.046  1.00  0.00     0.016 A 
ENDBRANCH  34  36
ENDBRANCH  29  30
ENDBRANCH   1  29
TORSDOF 9
ENDMDL
MODEL 2
REMARK VINA RESULT:      -8.7      1.580      2.429
REMARK  9 active torsions:
REMARK  status: ('A' for Active; 'I' for Inactive)
REMARK    1  A    between atoms: C_4  and  C_5 
REMARK    2  A    between atoms: C_13  and  C_14 
REMARK    3  A    between atoms: C_14  and  N_15 
REMARK    4  A    between atoms: C_19  and  C_20 
REMARK       I    between atoms: C_20  and  N_21 
REMARK    5  A    between atoms: N_21  and  C_22 
REMARK    6  A    between atoms: C_22  and  C_23 
REMARK    7  A    between atoms: C_23  and  C_24 
REMARK    8  A    between atoms: C_24  and  N_25 
REMARK    9  A    between atoms: N_29  and  C_30 
ROOT
HETATM    1  N   UNL     1     -44.300  56.638 -56.517  1.00  0.00    -0.066 N 
HETATM    2  H   UNL     1     -45.019  55.939 -56.758  1.00  0.00     0.280 HD
HETATM    3  C   UNL     1     -44.829  57.976 -56.965  1.00  0.00     0.236 C 
HETATM    4  C   UNL     1     -44.865  58.054 -58.490  1.00  0.00     0.042 C 
HETATM    5  C   UNL     1     -43.492  57.789 -59.111  1.00  0.00     0.081 C 
HETATM    6  C   UNL     1     -42.970  56.432 -58.640  1.00  0.00     0.042 C 
HETATM    7  C   UNL     1     -42.981  56.251 -57.128  1.00  0.00     0.236 C 
ENDROOT
BRANCH   5   8
HETATM    8  C   UNL     1     -42.556  58.942 -58.752  1.00  0.00     0.221 C 
HETATM    9  N   UNL     1     -43.188  60.125 -58.447  1.00  0.00    -0.361 N 
HETATM   10  H   UNL     1     -44.202  60.173 -58.514  1.00  0.00     0.162 HD
HETATM   11  O   UNL     1     -41.345  58.784 -58.629  1.00  0.00    -0.273 OA
BRANCH   9  12
HETATM   12  C   UNL     1     -42.508  61.209 -57.760  1.00  0.00     0.124 C 
BRANCH  12  13
HETATM   13  C   UNL     1     -42.570  61.122 -56.231  1.00  0.00     0.047 C 
BRANCH  13  14
HETATM   14  C   UNL     1     -44.027  61.142 -55.770  1.00  0.00     0.236 C 
BRANCH  14  15
HETATM   15  N   UNL     1     -44.153  61.201 -54.263  1.00  0.00    -0.068 N 
HETATM   16  H   UNL     1     -44.660  62.058 -54.001  1.00  0.00     0.280 HD
HETATM   17  C   UNL     1     -45.005  60.017 -53.755  1.00  0.00     0.254 C 
HETATM   18  C   UNL     1     -45.118  60.021 -52.216  1.00  0.00     0.150 C 
HETATM   19  N   UNL     1     -43.791  60.082 -51.579  1.00  0.00    -0.378 N 
HETATM   20  C   UNL     1     -42.985  61.243 -52.005  1.00  0.00     0.150 C 
HETATM   21  C   UNL     1     -42.796  61.230 -53.538  1.00  0.00     0.254 C 
BRANCH  19  22
HETATM   22  C   UNL     1     -43.099  58.915 -51.244  1.00  0.00     0.031 A 
HETATM   23  C   UNL     1     -43.701  57.650 -51.183  1.00  0.00     0.053 A 
HETATM   24  C   UNL     1     -42.964  56.504 -50.854  1.00  0.00     0.036 A 
HETATM   25 CL   UNL     1     -43.750  54.972 -50.842  1.00  0.00    -0.084 Cl
HETATM   26  C   UNL     1     -41.612  56.588 -50.553  1.00  0.00     0.024 A 
HETATM   27  C   UNL     1     -40.996  57.833 -50.569  1.00  0.00     0.004 A 
HETATM   28  C   UNL     1     -41.733  58.975 -50.906  1.00  0.00     0.029 A 
ENDBRANCH  19  22
ENDBRANCH  14  15
ENDBRANCH  13  14
ENDBRANCH  12  13
ENDBRANCH   9  12
ENDBRANCH   5   8
BRANCH   1  29
HETATM   29  C   UNL     1     -44.188  56.550 -54.996  1.00  0.00     0.296 C 
BRANCH  29  30
HETATM   30  C   UNL     1     -42.915  55.989 -54.481  1.00  0.00     0.092 A 
HETATM   31  C   UNL     1     -41.724  56.642 -54.244  1.00  0.00     0.078 A 
HETATM   32  C   UNL     1     -41.244  58.029 -54.381  1.00  0.00     0.079 C 
HETATM   33  O   UNL     1     -40.837  55.725 -53.768  1.00  0.00    -0.294 OA
HETATM   34  C   UNL     1     -41.528  54.541 -53.748  1.00  0.00     0.180 A 
HETATM   35  N   UNL     1     -42.782  54.650 -54.166  1.00  0.00    -0.224 NA
BRANCH  34  36
HETATM   36  C   UNL     1     -40.800  53.376 -53.254  1.00  0.00     0.019 A 
HETATM   37  C   UNL     1     -40.548  52.296 -54.112  1.00  0.00     0.039 A 
HETATM   38  C   UNL     1     -39.865  51.171 -53.648  1.00  0.00     0.035 A 
HETATM   39 CL   UNL     1     -39.579  49.855 -54.718  1.00  0.00    -0.084 Cl
HETATM   40  C   UNL     1     -39.419  51.104 -52.331  1.00  0.00     0.024 A 
HETATM   41  C   UNL     1     -39.659  52.170 -51.468  1.00  0.00     0.003 A 
HETATM   42  C   UNL     1     -40.346  53.298 -51.927  1.00  0.00     0.016 A 
ENDBRANCH  34  36
ENDBRANCH  29  30
ENDBRANCH   1  29
TORSDOF 9
ENDMDL
MODEL 3
REMARK VINA RESULT:      -8.4      1.518      1.957
REMARK  9 active torsions:
REMARK  status: ('A' for Active; 'I' for Inactive)
REMARK    1  A    between atoms: C_4  and  C_5 
REMARK    2  A    between atoms: C_13  and  C_14 
REMARK    3  A    between atoms: C_14  and  N_15 
REMARK    4  A    between atoms: C_19  and  C_20 
REMARK       I    between atoms: C_20  and  N_21 
REMARK    5  A    between atoms: N_21  and  C_22 
REMARK    6  A    between atoms: C_22  and  C_23 
REMARK    7  A    between atoms: C_23  and  C_24 
REMARK    8  A    between atoms: C_24  and  N_25 
REMARK    9  A    between atoms: N_29  and  C_30 
ROOT
HETATM    1  N   UNL     1     -42.391  57.158 -57.844  1.00  0.00    -0.066 N 
HETATM    2  H   UNL     1     -41.433  56.780 -57.789  1.00  0.00     0.280 HD
HETATM    3  C   UNL     1     -42.660  57.449 -59.298  1.00  0.00     0.236 C 
HETATM    4  C   UNL     1     -41.813  58.629 -59.773  1.00  0.00     0.042 C 
HETATM    5  C   UNL     1     -42.048  59.881 -58.927  1.00  0.00     0.081 C 
HETATM    6  C   UNL     1     -41.777  59.564 -57.456  1.00  0.00     0.042 C 
HETATM    7  C   UNL     1     -42.528  58.347 -56.933  1.00  0.00     0.236 C 
ENDROOT
BRANCH   5   8
HETATM    8  C   UNL     1     -43.469  60.386 -59.173  1.00  0.00     0.221 C 
HETATM    9  N   UNL     1     -44.105  60.884 -58.061  1.00  0.00    -0.361 N 
HETATM   10  H   UNL     1     -43.626  60.852 -57.164  1.00  0.00     0.162 HD
HETATM   11  O   UNL     1     -43.951  60.451 -60.301  1.00  0.00    -0.273 OA
BRANCH   9  12
HETATM   12  C   UNL     1     -45.297  61.710 -58.157  1.00  0.00     0.124 C 
BRANCH  12  13
HETATM   13  C   UNL     1     -45.571  62.566 -56.915  1.00  0.00     0.047 C 
BRANCH  13  14
HETATM   14  C   UNL     1     -46.134  61.689 -55.797  1.00  0.00     0.236 C 
BRANCH  14  15
HETATM   15  N   UNL     1     -45.390  61.873 -54.492  1.00  0.00    -0.068 N 
HETATM   16  H   UNL     1     -45.711  62.741 -54.041  1.00  0.00     0.280 HD
HETATM   17  C   UNL     1     -45.733  60.723 -53.519  1.00  0.00     0.254 C 
HETATM   18  C   UNL     1     -44.957  60.855 -52.192  1.00  0.00     0.150 C 
HETATM   19  N   UNL     1     -43.509  60.990 -52.427  1.00  0.00    -0.378 N 
HETATM   20  C   UNL     1     -43.156  62.122 -53.305  1.00  0.00     0.150 C 
HETATM   21  C   UNL     1     -43.866  61.983 -54.670  1.00  0.00     0.254 C 
BRANCH  19  22
HETATM   22  C   UNL     1     -42.680  59.866 -52.474  1.00  0.00     0.031 A 
HETATM   23  C   UNL     1     -42.744  58.818 -51.543  1.00  0.00     0.053 A 
HETATM   24  C   UNL     1     -41.900  57.703 -51.637  1.00  0.00     0.036 A 
HETATM   25 CL   UNL     1     -42.060  56.427 -50.492  1.00  0.00    -0.084 Cl
HETATM   26  C   UNL     1     -40.951  57.610 -52.645  1.00  0.00     0.024 A 
HETATM   27  C   UNL     1     -40.838  58.649 -53.560  1.00  0.00     0.004 A 
HETATM   28  C   UNL     1     -41.689  59.759 -53.469  1.00  0.00     0.029 A 
ENDBRANCH  19  22
ENDBRANCH  14  15
ENDBRANCH  13  14
ENDBRANCH  12  13
ENDBRANCH   9  12
ENDBRANCH   5   8
BRANCH   1  29
HETATM   29  C   UNL     1     -43.271  56.026 -57.318  1.00  0.00     0.296 C 
BRANCH  29  30
HETATM   30  C   UNL     1     -42.901  55.498 -55.982  1.00  0.00     0.092 A 
HETATM   31  C   UNL     1     -43.437  55.822 -54.754  1.00  0.00     0.078 A 
HETATM   32  C   UNL     1     -44.495  56.733 -54.280  1.00  0.00     0.079 C 
HETATM   33  O   UNL     1     -42.789  55.083 -53.811  1.00  0.00    -0.294 OA
HETATM   34  C   UNL     1     -41.871  54.344 -54.511  1.00  0.00     0.180 A 
HETATM   35  N   UNL     1     -41.901  54.558 -55.819  1.00  0.00    -0.224 NA
BRANCH  34  36
HETATM   36  C   UNL     1     -41.040  53.436 -53.726  1.00  0.00     0.019 A 
HETATM   37  C   UNL     1     -40.588  52.237 -54.297  1.00  0.00     0.039 A 
HETATM   38  C   UNL     1     -39.803  51.354 -53.553  1.00  0.00     0.035 A 
HETATM   39 CL   UNL     1     -39.270  49.886 -54.273  1.00  0.00    -0.084 Cl
HETATM   40  C   UNL     1     -39.455  51.648 -52.238  1.00  0.00     0.024 A 
HETATM   41  C   UNL     1     -39.895  52.835 -51.659  1.00  0.00     0.003 A 
HETATM   42  C   UNL     1     -40.683  53.723 -52.398  1.00  0.00     0.016 A 
ENDBRANCH  34  36
ENDBRANCH  29  30
ENDBRANCH   1  29
TORSDOF 9
ENDMDL
MODEL 4
REMARK VINA RESULT:      -8.2      2.451      5.579
REMARK  9 active torsions:
REMARK  status: ('A' for Active; 'I' for Inactive)
REMARK    1  A    between atoms: C_4  and  C_5 
REMARK    2  A    between atoms: C_13  and  C_14 
REMARK    3  A    between atoms: C_14  and  N_15 
REMARK    4  A    between atoms: C_19  and  C_20 
REMARK       I    between atoms: C_20  and  N_21 
REMARK    5  A    between atoms: N_21  and  C_22 
REMARK    6  A    between atoms: C_22  and  C_23 
REMARK    7  A    between atoms: C_23  and  C_24 
REMARK    8  A    between atoms: C_24  and  N_25 
REMARK    9  A    between atoms: N_29  and  C_30 
ROOT
HETATM    1  N   UNL     1     -42.819  58.497 -50.744  1.00  0.00    -0.066 N 
HETATM    2  H   UNL     1     -42.865  58.590 -49.718  1.00  0.00     0.280 HD
HETATM    3  C   UNL     1     -43.129  59.856 -51.316  1.00  0.00     0.236 C 
HETATM    4  C   UNL     1     -44.596  60.213 -51.085  1.00  0.00     0.042 C 
HETATM    5  C   UNL     1     -45.541  59.161 -51.668  1.00  0.00     0.081 C 
HETATM    6  C   UNL     1     -45.207  57.790 -51.081  1.00  0.00     0.042 C 
HETATM    7  C   UNL     1     -43.740  57.400 -51.203  1.00  0.00     0.236 C 
ENDROOT
BRANCH   5   8
HETATM    8  C   UNL     1     -45.439  59.195 -53.192  1.00  0.00     0.221 C 
HETATM    9  N   UNL     1     -45.794  60.392 -53.768  1.00  0.00    -0.361 N 
HETATM   10  H   UNL     1     -46.130  61.145 -53.172  1.00  0.00     0.162 HD
HETATM   11  O   UNL     1     -44.960  58.264 -53.834  1.00  0.00    -0.273 OA
BRANCH   9  12
HETATM   12  C   UNL     1     -45.440  60.726 -55.137  1.00  0.00     0.124 C 
BRANCH  12  13
HETATM   13  C   UNL     1     -44.112  61.479 -55.277  1.00  0.00     0.047 C 
BRANCH  13  14
HETATM   14  C   UNL     1     -44.134  62.333 -56.545  1.00  0.00     0.236 C 
BRANCH  14  15
HETATM   15  N   UNL     1     -43.312  61.726 -57.661  1.00  0.00    -0.068 N 
HETATM   16  H   UNL     1     -42.741  62.463 -58.098  1.00  0.00     0.280 HD
HETATM   17  C   UNL     1     -42.321  60.689 -57.088  1.00  0.00     0.254 C 
HETATM   18  C   UNL     1     -41.495  60.018 -58.206  1.00  0.00     0.150 C 
HETATM   19  N   UNL     1     -42.366  59.456 -59.254  1.00  0.00    -0.378 N 
HETATM   20  C   UNL     1     -43.277  60.447 -59.858  1.00  0.00     0.150 C 
HETATM   21  C   UNL     1     -44.167  61.089 -58.771  1.00  0.00     0.254 C 
BRANCH  19  22
HETATM   22  C   UNL     1     -42.818  58.136 -59.182  1.00  0.00     0.031 A 
HETATM   23  C   UNL     1     -42.621  57.310 -58.066  1.00  0.00     0.053 A 
HETATM   24  C   UNL     1     -43.104  55.995 -58.034  1.00  0.00     0.036 A 
HETATM   25 CL   UNL     1     -42.872  55.047 -56.615  1.00  0.00    -0.084 Cl
HETATM   26  C   UNL     1     -43.774  55.455 -59.122  1.00  0.00     0.024 A 
HETATM   27  C   UNL     1     -43.952  56.235 -60.257  1.00  0.00     0.004 A 
HETATM   28  C   UNL     1     -43.475  57.553 -60.283  1.00  0.00     0.029 A 
ENDBRANCH  19  22
ENDBRANCH  14  15
ENDBRANCH  13  14
ENDBRANCH  12  13
ENDBRANCH   9  12
ENDBRANCH   5   8
BRANCH   1  29
HETATM   29  C   UNL     1     -41.375  58.079 -51.017  1.00  0.00     0.296 C 
BRANCH  29  30
HETATM   30  C   UNL     1     -41.202  56.986 -52.005  1.00  0.00     0.092 A 
HETATM   31  C   UNL     1     -41.307  57.047 -53.378  1.00  0.00     0.078 A 
HETATM   32  C   UNL     1     -41.603  58.106 -54.360  1.00  0.00     0.079 C 
HETATM   33  O   UNL     1     -41.061  55.800 -53.867  1.00  0.00    -0.294 OA
HETATM   34  C   UNL     1     -40.827  55.026 -52.761  1.00  0.00     0.180 A 
HETATM   35  N   UNL     1     -40.899  55.694 -51.618  1.00  0.00    -0.224 NA
BRANCH  34  36
HETATM   36  C   UNL     1     -40.514  53.622 -53.010  1.00  0.00     0.019 A 
HETATM   37  C   UNL     1     -40.250  52.765 -51.932  1.00  0.00     0.039 A 
HETATM   38  C   UNL     1     -39.936  51.423 -52.157  1.00  0.00     0.035 A 
HETATM   39 CL   UNL     1     -39.605  50.397 -50.818  1.00  0.00    -0.084 Cl
HETATM   40  C   UNL     1     -39.884  50.913 -53.452  1.00  0.00     0.024 A 
HETATM   41  C   UNL     1     -40.146  51.752 -54.532  1.00  0.00     0.003 A 
HETATM   42  C   UNL     1     -40.458  53.097 -54.312  1.00  0.00     0.016 A 
ENDBRANCH  34  36
ENDBRANCH  29  30
ENDBRANCH   1  29
TORSDOF 9
ENDMDL
MODEL 5
REMARK VINA RESULT:      -8.1      2.697      7.320
REMARK  9 active torsions:
REMARK  status: ('A' for Active; 'I' for Inactive)
REMARK    1  A    between atoms: C_4  and  C_5 
REMARK    2  A    between atoms: C_13  and  C_14 
REMARK    3  A    between atoms: C_14  and  N_15 
REMARK    4  A    between atoms: C_19  and  C_20 
REMARK       I    between atoms: C_20  and  N_21 
REMARK    5  A    between atoms: N_21  and  C_22 
REMARK    6  A    between atoms: C_22  and  C_23 
REMARK    7  A    between atoms: C_23  and  C_24 
REMARK    8  A    between atoms: C_24  and  N_25 
REMARK    9  A    between atoms: N_29  and  C_30 
ROOT
HETATM    1  N   UNL     1     -44.985  61.863 -54.073  1.00  0.00    -0.066 N 
HETATM    2  H   UNL     1     -45.819  62.456 -54.199  1.00  0.00     0.280 HD
HETATM    3  C   UNL     1     -45.479  60.502 -53.657  1.00  0.00     0.236 C 
HETATM    4  C   UNL     1     -46.060  60.552 -52.245  1.00  0.00     0.042 C 
HETATM    5  C   UNL     1     -45.051  61.087 -51.227  1.00  0.00     0.081 C 
HETATM    6  C   UNL     1     -44.557  62.464 -51.671  1.00  0.00     0.042 C 
HETATM    7  C   UNL     1     -44.036  62.508 -53.101  1.00  0.00     0.236 C 
ENDROOT
BRANCH   5   8
HETATM    8  C   UNL     1     -43.919  60.072 -51.073  1.00  0.00     0.221 C 
HETATM    9  N   UNL     1     -44.330  58.781 -50.838  1.00  0.00    -0.361 N 
HETATM   10  H   UNL     1     -45.324  58.590 -50.744  1.00  0.00     0.162 HD
HETATM   11  O   UNL     1     -42.744  60.372 -51.267  1.00  0.00    -0.273 OA
BRANCH   9  12
HETATM   12  C   UNL     1     -43.441  57.644 -51.007  1.00  0.00     0.124 C 
BRANCH  12  13
HETATM   13  C   UNL     1     -43.999  56.537 -51.907  1.00  0.00     0.047 C 
BRANCH  13  14
HETATM   14  C   UNL     1     -44.073  57.032 -53.351  1.00  0.00     0.236 C 
BRANCH  14  15
HETATM   15  N   UNL     1     -43.222  56.202 -54.288  1.00  0.00    -0.068 N 
HETATM   16  H   UNL     1     -43.344  56.550 -55.249  1.00  0.00     0.280 HD
HETATM   17  C   UNL     1     -41.727  56.379 -53.946  1.00  0.00     0.254 C 
HETATM   18  C   UNL     1     -40.832  55.511 -54.856  1.00  0.00     0.150 C 
HETATM   19  N   UNL     1     -41.257  54.101 -54.840  1.00  0.00    -0.378 N 
HETATM   20  C   UNL     1     -42.668  53.905 -55.226  1.00  0.00     0.150 C 
HETATM   21  C   UNL     1     -43.596  54.709 -54.289  1.00  0.00     0.254 C 
BRANCH  19  22
HETATM   22  C   UNL     1     -40.717  53.196 -53.923  1.00  0.00     0.031 A 
HETATM   23  C   UNL     1     -40.685  53.424 -52.539  1.00  0.00     0.053 A 
HETATM   24  C   UNL     1     -40.144  52.482 -51.654  1.00  0.00     0.036 A 
HETATM   25 CL   UNL     1     -40.177  52.799 -49.962  1.00  0.00    -0.084 Cl
HETATM   26  C   UNL     1     -39.596  51.297 -52.123  1.00  0.00     0.024 A 
HETATM   27  C   UNL     1     -39.579  51.059 -53.491  1.00  0.00     0.004 A 
HETATM   28  C   UNL     1     -40.128  51.999 -54.373  1.00  0.00     0.029 A 
ENDBRANCH  19  22
ENDBRANCH  14  15
ENDBRANCH  13  14
ENDBRANCH  12  13
ENDBRANCH   9  12
ENDBRANCH   5   8
BRANCH   1  29
HETATM   29  C   UNL     1     -44.336  61.835 -55.456  1.00  0.00     0.296 C 
BRANCH  29  30
HETATM   30  C   UNL     1     -43.890  60.500 -55.925  1.00  0.00     0.092 A 
HETATM   31  C   UNL     1     -42.829  59.743 -55.474  1.00  0.00     0.078 A 
HETATM   32  C   UNL     1     -41.788  59.908 -54.443  1.00  0.00     0.079 C 
HETATM   33  O   UNL     1     -42.809  58.588 -56.195  1.00  0.00    -0.294 OA
HETATM   34  C   UNL     1     -43.859  58.698 -57.068  1.00  0.00     0.180 A 
HETATM   35  N   UNL     1     -44.540  59.829 -56.943  1.00  0.00    -0.224 NA
BRANCH  34  36
HETATM   36  C   UNL     1     -44.078  57.564 -57.962  1.00  0.00     0.019 A 
HETATM   37  C   UNL     1     -45.232  57.515 -58.757  1.00  0.00     0.039 A 
HETATM   38  C   UNL     1     -45.459  56.431 -59.606  1.00  0.00     0.035 A 
HETATM   39 CL   UNL     1     -46.888  56.391 -60.562  1.00  0.00    -0.084 Cl
HETATM   40  C   UNL     1     -44.544  55.384 -59.682  1.00  0.00     0.024 A 
HETATM   41  C   UNL     1     -43.392  55.420 -58.900  1.00  0.00     0.003 A 
HETATM   42  C   UNL     1     -43.161  56.503 -58.046  1.00  0.00     0.016 A 
ENDBRANCH  34  36
ENDBRANCH  29  30
ENDBRANCH   1  29
TORSDOF 9
ENDMDL
MODEL 6
REMARK VINA RESULT:      -8.0      2.435      5.790
REMARK  9 active torsions:
REMARK  status: ('A' for Active; 'I' for Inactive)
REMARK    1  A    between atoms: C_4  and  C_5 
REMARK    2  A    between atoms: C_13  and  C_14 
REMARK    3  A    between atoms: C_14  and  N_15 
REMARK    4  A    between atoms: C_19  and  C_20 
REMARK       I    between atoms: C_20  and  N_21 
REMARK    5  A    between atoms: N_21  and  C_22 
REMARK    6  A    between atoms: C_22  and  C_23 
REMARK    7  A    between atoms: C_23  and  C_24 
REMARK    8  A    between atoms: C_24  and  N_25 
REMARK    9  A    between atoms: N_29  and  C_30 
ROOT
HETATM    1  N   UNL     1     -42.336  58.516 -52.517  1.00  0.00    -0.066 N 
HETATM    2  H   UNL     1     -42.038  57.780 -51.859  1.00  0.00     0.280 HD
HETATM    3  C   UNL     1     -41.725  59.805 -52.030  1.00  0.00     0.236 C 
HETATM    4  C   UNL     1     -42.381  60.248 -50.724  1.00  0.00     0.042 C 
HETATM    5  C   UNL     1     -43.897  60.397 -50.865  1.00  0.00     0.081 C 
HETATM    6  C   UNL     1     -44.496  59.082 -51.365  1.00  0.00     0.042 C 
HETATM    7  C   UNL     1     -43.836  58.536 -52.624  1.00  0.00     0.236 C 
ENDROOT
BRANCH   5   8
HETATM    8  C   UNL     1     -44.195  61.576 -51.790  1.00  0.00     0.221 C 
HETATM    9  N   UNL     1     -45.218  61.362 -52.685  1.00  0.00    -0.361 N 
HETATM   10  H   UNL     1     -45.673  60.452 -52.705  1.00  0.00     0.162 HD
HETATM   11  O   UNL     1     -43.644  62.665 -51.656  1.00  0.00    -0.273 OA
BRANCH   9  12
HETATM   12  C   UNL     1     -45.867  62.453 -53.391  1.00  0.00     0.124 C 
BRANCH  12  13
HETATM   13  C   UNL     1     -45.718  62.393 -54.915  1.00  0.00     0.047 C 
BRANCH  13  14
HETATM   14  C   UNL     1     -45.597  60.938 -55.366  1.00  0.00     0.236 C 
BRANCH  14  15
HETATM   15  N   UNL     1     -45.725  60.788 -56.867  1.00  0.00    -0.068 N 
HETATM   16  H   UNL     1     -46.371  61.505 -57.223  1.00  0.00     0.280 HD
HETATM   17  C   UNL     1     -44.362  61.052 -57.545  1.00  0.00     0.254 C 
HETATM   18  C   UNL     1     -44.446  60.864 -59.074  1.00  0.00     0.150 C 
HETATM   19  N   UNL     1     -45.011  59.549 -59.424  1.00  0.00    -0.378 N 
HETATM   20  C   UNL     1     -46.343  59.304 -58.836  1.00  0.00     0.150 C 
HETATM   21  C   UNL     1     -46.278  59.418 -57.297  1.00  0.00     0.254 C 
BRANCH  19  22
HETATM   22  C   UNL     1     -44.185  58.439 -59.616  1.00  0.00     0.031 A 
HETATM   23  C   UNL     1     -44.650  57.116 -59.594  1.00  0.00     0.053 A 
HETATM   24  C   UNL     1     -43.786  56.032 -59.804  1.00  0.00     0.036 A 
HETATM   25 CL   UNL     1     -44.426  54.434 -59.812  1.00  0.00    -0.084 Cl
HETATM   26  C   UNL     1     -42.430  56.234 -60.018  1.00  0.00     0.024 A 
HETATM   27  C   UNL     1     -41.933  57.531 -60.009  1.00  0.00     0.004 A 
HETATM   28  C   UNL     1     -42.801  58.612 -59.807  1.00  0.00     0.029 A 
ENDBRANCH  19  22
ENDBRANCH  14  15
ENDBRANCH  13  14
ENDBRANCH  12  13
ENDBRANCH   9  12
ENDBRANCH   5   8
BRANCH   1  29
HETATM   29  C   UNL     1     -41.748  58.078 -53.858  1.00  0.00     0.296 C 
BRANCH  29  30
HETATM   30  C   UNL     1     -41.623  56.613 -54.052  1.00  0.00     0.092 A 
HETATM   31  C   UNL     1     -42.102  55.841 -55.088  1.00  0.00     0.078 A 
HETATM   32  C   UNL     1     -42.864  56.102 -56.323  1.00  0.00     0.079 C 
HETATM   33  O   UNL     1     -41.742  54.551 -54.845  1.00  0.00    -0.294 OA
HETATM   34  C   UNL     1     -41.064  54.591 -53.655  1.00  0.00     0.180 A 
HETATM   35  N   UNL     1     -40.965  55.809 -53.140  1.00  0.00    -0.224 NA
BRANCH  34  36
HETATM   36  C   UNL     1     -40.544  53.319 -53.164  1.00  0.00     0.019 A 
HETATM   37  C   UNL     1     -40.311  52.268 -54.063  1.00  0.00     0.039 A 
HETATM   38  C   UNL     1     -39.825  51.042 -53.605  1.00  0.00     0.035 A 
HETATM   39 CL   UNL     1     -39.559  49.766 -54.727  1.00  0.00    -0.084 Cl
HETATM   40  C   UNL     1     -39.561  50.843 -52.252  1.00  0.00     0.024 A 
HETATM   41  C   UNL     1     -39.785  51.878 -51.348  1.00  0.00     0.003 A 
HETATM   42  C   UNL     1     -40.274  53.107 -51.802  1.00  0.00     0.016 A 
ENDBRANCH  34  36
ENDBRANCH  29  30
ENDBRANCH   1  29
TORSDOF 9
ENDMDL
MODEL 7
REMARK VINA RESULT:      -8.0      2.692      6.082
REMARK  9 active torsions:
REMARK  status: ('A' for Active; 'I' for Inactive)
REMARK    1  A    between atoms: C_4  and  C_5 
REMARK    2  A    between atoms: C_13  and  C_14 
REMARK    3  A    between atoms: C_14  and  N_15 
REMARK    4  A    between atoms: C_19  and  C_20 
REMARK       I    between atoms: C_20  and  N_21 
REMARK    5  A    between atoms: N_21  and  C_22 
REMARK    6  A    between atoms: C_22  and  C_23 
REMARK    7  A    between atoms: C_23  and  C_24 
REMARK    8  A    between atoms: C_24  and  N_25 
REMARK    9  A    between atoms: N_29  and  C_30 
ROOT
HETATM    1  N   UNL     1     -43.007  57.970 -51.968  1.00  0.00    -0.066 N 
HETATM    2  H   UNL     1     -42.627  57.586 -51.090  1.00  0.00     0.280 HD
HETATM    3  C   UNL     1     -42.516  59.391 -52.068  1.00  0.00     0.236 C 
HETATM    4  C   UNL     1     -43.187  60.265 -51.010  1.00  0.00     0.042 C 
HETATM    5  C   UNL     1     -44.713  60.221 -51.113  1.00  0.00     0.081 C 
HETATM    6  C   UNL     1     -45.191  58.772 -51.017  1.00  0.00     0.042 C 
HETATM    7  C   UNL     1     -44.504  57.823 -51.990  1.00  0.00     0.236 C 
ENDROOT
BRANCH   5   8
HETATM    8  C   UNL     1     -45.141  60.902 -52.412  1.00  0.00     0.221 C 
HETATM    9  N   UNL     1     -44.406  62.013 -52.751  1.00  0.00    -0.361 N 
HETATM   10  H   UNL     1     -43.673  62.329 -52.121  1.00  0.00     0.162 HD
HETATM   11  O   UNL     1     -45.994  60.417 -53.151  1.00  0.00    -0.273 OA
BRANCH   9  12
HETATM   12  C   UNL     1     -44.430  62.577 -54.089  1.00  0.00     0.124 C 
BRANCH  12  13
HETATM   13  C   UNL     1     -43.396  61.974 -55.046  1.00  0.00     0.047 C 
BRANCH  13  14
HETATM   14  C   UNL     1     -44.102  61.121 -56.099  1.00  0.00     0.236 C 
BRANCH  14  15
HETATM   15  N   UNL     1     -43.181  60.091 -56.716  1.00  0.00    -0.068 N 
HETATM   16  H   UNL     1     -42.208  60.315 -56.466  1.00  0.00     0.280 HD
HETATM   17  C   UNL     1     -43.473  58.695 -56.124  1.00  0.00     0.254 C 
HETATM   18  C   UNL     1     -42.580  57.611 -56.764  1.00  0.00     0.150 C 
HETATM   19  N   UNL     1     -42.674  57.636 -58.234  1.00  0.00    -0.378 N 
HETATM   20  C   UNL     1     -42.337  58.947 -58.824  1.00  0.00     0.150 C 
HETATM   21  C   UNL     1     -43.261  60.045 -58.253  1.00  0.00     0.254 C 
BRANCH  19  22
HETATM   22  C   UNL     1     -43.618  56.858 -58.909  1.00  0.00     0.031 A 
HETATM   23  C   UNL     1     -44.849  57.355 -59.360  1.00  0.00     0.053 A 
HETATM   24  C   UNL     1     -45.761  56.539 -60.045  1.00  0.00     0.036 A 
HETATM   25 CL   UNL     1     -47.236  57.219 -60.616  1.00  0.00    -0.084 Cl
HETATM   26  C   UNL     1     -45.484  55.200 -60.277  1.00  0.00     0.024 A 
HETATM   27  C   UNL     1     -44.288  54.669 -59.810  1.00  0.00     0.004 A 
HETATM   28  C   UNL     1     -43.375  55.489 -59.133  1.00  0.00     0.029 A 
ENDBRANCH  19  22
ENDBRANCH  14  15
ENDBRANCH  13  14
ENDBRANCH  12  13
ENDBRANCH   9  12
ENDBRANCH   5   8
BRANCH   1  29
HETATM   29  C   UNL     1     -42.405  57.082 -53.056  1.00  0.00     0.296 C 
BRANCH  29  30
HETATM   30  C   UNL     1     -41.709  55.864 -52.573  1.00  0.00     0.092 A 
HETATM   31  C   UNL     1     -41.135  55.637 -51.341  1.00  0.00     0.078 A 
HETATM   32  C   UNL     1     -40.976  56.416 -50.099  1.00  0.00     0.079 C 
HETATM   33  O   UNL     1     -40.621  54.376 -51.350  1.00  0.00    -0.294 OA
HETATM   34  C   UNL     1     -40.896  53.891 -52.601  1.00  0.00     0.180 A 
HETATM   35  N   UNL     1     -41.551  54.748 -53.373  1.00  0.00    -0.224 NA
BRANCH  34  36
HETATM   36  C   UNL     1     -40.460  52.524 -52.875  1.00  0.00     0.019 A 
HETATM   37  C   UNL     1     -40.011  51.713 -51.824  1.00  0.00     0.039 A 
HETATM   38  C   UNL     1     -39.579  50.409 -52.074  1.00  0.00     0.035 A 
HETATM   39 CL   UNL     1     -39.022  49.438 -50.769  1.00  0.00    -0.084 Cl
HETATM   40  C   UNL     1     -39.592  49.892 -53.367  1.00  0.00     0.024 A 
HETATM   41  C   UNL     1     -40.038  50.686 -54.420  1.00  0.00     0.003 A 
HETATM   42  C   UNL     1     -40.469  51.993 -54.176  1.00  0.00     0.016 A 
ENDBRANCH  34  36
ENDBRANCH  29  30
ENDBRANCH   1  29
TORSDOF 9
ENDMDL
MODEL 8
REMARK VINA RESULT:      -8.0      3.355      4.491
REMARK  9 active torsions:
REMARK  status: ('A' for Active; 'I' for Inactive)
REMARK    1  A    between atoms: C_4  and  C_5 
REMARK    2  A    between atoms: C_13  and  C_14 
REMARK    3  A    between atoms: C_14  and  N_15 
REMARK    4  A    between atoms: C_19  and  C_20 
REMARK       I    between atoms: C_20  and  N_21 
REMARK    5  A    between atoms: N_21  and  C_22 
REMARK    6  A    between atoms: C_22  and  C_23 
REMARK    7  A    between atoms: C_23  and  C_24 
REMARK    8  A    between atoms: C_24  and  N_25 
REMARK    9  A    between atoms: N_29  and  C_30 
ROOT
HETATM    1  N   UNL     1     -42.142  56.869 -57.656  1.00  0.00    -0.066 N 
HETATM    2  H   UNL     1     -41.292  56.292 -57.751  1.00  0.00     0.280 HD
HETATM    3  C   UNL     1     -43.316  55.943 -57.841  1.00  0.00     0.236 C 
HETATM    4  C   UNL     1     -43.401  55.469 -59.291  1.00  0.00     0.042 C 
HETATM    5  C   UNL     1     -43.486  56.639 -60.273  1.00  0.00     0.081 C 
HETATM    6  C   UNL     1     -42.291  57.570 -60.065  1.00  0.00     0.042 C 
HETATM    7  C   UNL     1     -42.094  58.020 -58.624  1.00  0.00     0.236 C 
ENDROOT
BRANCH   5   8
HETATM    8  C   UNL     1     -44.828  57.346 -60.086  1.00  0.00     0.221 C 
HETATM    9  N   UNL     1     -44.867  58.640 -60.550  1.00  0.00    -0.361 N 
HETATM   10  H   UNL     1     -44.021  59.050 -60.939  1.00  0.00     0.162 HD
HETATM   11  O   UNL     1     -45.821  56.758 -59.667  1.00  0.00    -0.273 OA
BRANCH   9  12
HETATM   12  C   UNL     1     -46.119  59.342 -60.776  1.00  0.00     0.124 C 
BRANCH  12  13
HETATM   13  C   UNL     1     -46.136  60.783 -60.254  1.00  0.00     0.047 C 
BRANCH  13  14
HETATM   14  C   UNL     1     -46.296  60.779 -58.734  1.00  0.00     0.236 C 
BRANCH  14  15
HETATM   15  N   UNL     1     -45.263  61.645 -58.045  1.00  0.00    -0.068 N 
HETATM   16  H   UNL     1     -45.623  61.928 -57.123  1.00  0.00     0.280 HD
HETATM   17  C   UNL     1     -43.978  60.830 -57.780  1.00  0.00     0.254 C 
HETATM   18  C   UNL     1     -42.886  61.695 -57.117  1.00  0.00     0.150 C 
HETATM   19  N   UNL     1     -42.632  62.925 -57.888  1.00  0.00    -0.378 N 
HETATM   20  C   UNL     1     -43.838  63.749 -58.097  1.00  0.00     0.150 C 
HETATM   21  C   UNL     1     -44.929  62.930 -58.823  1.00  0.00     0.254 C 
BRANCH  19  22
HETATM   22  C   UNL     1     -41.656  62.959 -58.887  1.00  0.00     0.031 A 
HETATM   23  C   UNL     1     -41.918  62.672 -60.235  1.00  0.00     0.053 A 
HETATM   24  C   UNL     1     -40.909  62.732 -61.206  1.00  0.00     0.036 A 
HETATM   25 CL   UNL     1     -41.303  62.415 -62.852  1.00  0.00    -0.084 Cl
HETATM   26  C   UNL     1     -39.605  63.053 -60.859  1.00  0.00     0.024 A 
HETATM   27  C   UNL     1     -39.306  63.306 -59.526  1.00  0.00     0.004 A 
HETATM   28  C   UNL     1     -40.319  63.255 -58.559  1.00  0.00     0.029 A 
ENDBRANCH  19  22
ENDBRANCH  14  15
ENDBRANCH  13  14
ENDBRANCH  12  13
ENDBRANCH   9  12
ENDBRANCH   5   8
BRANCH   1  29
HETATM   29  C   UNL     1     -42.065  57.415 -56.231  1.00  0.00     0.296 C 
BRANCH  29  30
HETATM   30  C   UNL     1     -42.063  56.393 -55.155  1.00  0.00     0.092 A 
HETATM   31  C   UNL     1     -42.977  56.217 -54.139  1.00  0.00     0.078 A 
HETATM   32  C   UNL     1     -44.221  56.889 -53.720  1.00  0.00     0.079 C 
HETATM   33  O   UNL     1     -42.570  55.151 -53.396  1.00  0.00    -0.294 OA
HETATM   34  C   UNL     1     -41.409  54.729 -53.990  1.00  0.00     0.180 A 
HETATM   35  N   UNL     1     -41.064  55.443 -55.053  1.00  0.00    -0.224 NA
BRANCH  34  36
HETATM   36  C   UNL     1     -40.762  53.566 -53.390  1.00  0.00     0.019 A 
HETATM   37  C   UNL     1     -40.527  52.422 -54.166  1.00  0.00     0.039 A 
HETATM   38  C   UNL     1     -39.921  51.298 -53.601  1.00  0.00     0.035 A 
HETATM   39 CL   UNL     1     -39.653  49.904 -54.571  1.00  0.00    -0.084 Cl
HETATM   40  C   UNL     1     -39.537  51.296 -52.262  1.00  0.00     0.024 A 
HETATM   41  C   UNL     1     -39.762  52.426 -51.480  1.00  0.00     0.003 A 
HETATM   42  C   UNL     1     -40.372  53.553 -52.040  1.00  0.00     0.016 A 
ENDBRANCH  34  36
ENDBRANCH  29  30
ENDBRANCH   1  29
TORSDOF 9
ENDMDL
MODEL 9
REMARK VINA RESULT:      -8.0      2.610      5.198
REMARK  9 active torsions:
REMARK  status: ('A' for Active; 'I' for Inactive)
REMARK    1  A    between atoms: C_4  and  C_5 
REMARK    2  A    between atoms: C_13  and  C_14 
REMARK    3  A    between atoms: C_14  and  N_15 
REMARK    4  A    between atoms: C_19  and  C_20 
REMARK       I    between atoms: C_20  and  N_21 
REMARK    5  A    between atoms: N_21  and  C_22 
REMARK    6  A    between atoms: C_22  and  C_23 
REMARK    7  A    between atoms: C_23  and  C_24 
REMARK    8  A    between atoms: C_24  and  N_25 
REMARK    9  A    between atoms: N_29  and  C_30 
ROOT
HETATM    1  N   UNL     1     -43.047  57.262 -54.051  1.00  0.00    -0.066 N 
HETATM    2  H   UNL     1     -43.548  56.408 -53.764  1.00  0.00     0.280 HD
HETATM    3  C   UNL     1     -43.987  58.416 -53.817  1.00  0.00     0.236 C 
HETATM    4  C   UNL     1     -45.148  58.370 -54.808  1.00  0.00     0.042 C 
HETATM    5  C   UNL     1     -44.665  58.362 -56.259  1.00  0.00     0.081 C 
HETATM    6  C   UNL     1     -43.709  57.189 -56.474  1.00  0.00     0.042 C 
HETATM    7  C   UNL     1     -42.566  57.124 -55.470  1.00  0.00     0.236 C 
ENDROOT
BRANCH   5   8
HETATM    8  C   UNL     1     -44.027  59.714 -56.576  1.00  0.00     0.221 C 
HETATM    9  N   UNL     1     -44.747  60.806 -56.151  1.00  0.00    -0.361 N 
HETATM   10  H   UNL     1     -45.648  60.657 -55.703  1.00  0.00     0.162 HD
HETATM   11  O   UNL     1     -42.903  59.806 -57.061  1.00  0.00    -0.273 OA
BRANCH   9  12
HETATM   12  C   UNL     1     -44.157  62.129 -56.049  1.00  0.00     0.124 C 
BRANCH  12  13
HETATM   13  C   UNL     1     -44.370  63.011 -57.284  1.00  0.00     0.047 C 
BRANCH  13  14
HETATM   14  C   UNL     1     -45.711  62.674 -57.934  1.00  0.00     0.236 C 
BRANCH  14  15
HETATM   15  N   UNL     1     -45.545  62.007 -59.283  1.00  0.00    -0.068 N 
HETATM   16  H   UNL     1     -45.974  62.601 -60.007  1.00  0.00     0.280 HD
HETATM   17  C   UNL     1     -44.047  61.897 -59.640  1.00  0.00     0.254 C 
HETATM   18  C   UNL     1     -43.839  61.181 -60.991  1.00  0.00     0.150 C 
HETATM   19  N   UNL     1     -44.529  59.880 -61.023  1.00  0.00    -0.378 N 
HETATM   20  C   UNL     1     -45.976  59.973 -60.746  1.00  0.00     0.150 C 
HETATM   21  C   UNL     1     -46.217  60.625 -59.366  1.00  0.00     0.254 C 
BRANCH  19  22
HETATM   22  C   UNL     1     -43.878  58.710 -60.623  1.00  0.00     0.031 A 
HETATM   23  C   UNL     1     -44.541  57.495 -60.396  1.00  0.00     0.053 A 
HETATM   24  C   UNL     1     -43.844  56.342 -60.008  1.00  0.00     0.036 A 
HETATM   25 CL   UNL     1     -44.709  54.869 -59.791  1.00  0.00    -0.084 Cl
HETATM   26  C   UNL     1     -42.472  56.372 -59.811  1.00  0.00     0.024 A 
HETATM   27  C   UNL     1     -41.792  57.570 -59.992  1.00  0.00     0.004 A 
HETATM   28  C   UNL     1     -42.490  58.718 -60.388  1.00  0.00     0.029 A 
ENDBRANCH  19  22
ENDBRANCH  14  15
ENDBRANCH  13  14
ENDBRANCH  12  13
ENDBRANCH   9  12
ENDBRANCH   5   8
BRANCH   1  29
HETATM   29  C   UNL     1     -41.836  57.315 -53.120  1.00  0.00     0.296 C 
BRANCH  29  30
HETATM   30  C   UNL     1     -41.388  56.009 -52.581  1.00  0.00     0.092 A 
HETATM   31  C   UNL     1     -41.161  55.656 -51.268  1.00  0.00     0.078 A 
HETATM   32  C   UNL     1     -41.254  56.343 -49.967  1.00  0.00     0.079 C 
HETATM   33  O   UNL     1     -40.768  54.352 -51.251  1.00  0.00    -0.294 OA
HETATM   34  C   UNL     1     -40.761  53.968 -52.567  1.00  0.00     0.180 A 
HETATM   35  N   UNL     1     -41.128  54.929 -53.404  1.00  0.00    -0.224 NA
BRANCH  34  36
HETATM   36  C   UNL     1     -40.386  52.583 -52.834  1.00  0.00     0.019 A 
HETATM   37  C   UNL     1     -39.949  51.764 -51.782  1.00  0.00     0.039 A 
HETATM   38  C   UNL     1     -39.575  50.442 -52.026  1.00  0.00     0.035 A 
HETATM   39 CL   UNL     1     -39.032  49.463 -50.721  1.00  0.00    -0.084 Cl
HETATM   40  C   UNL     1     -39.633  49.913 -53.313  1.00  0.00     0.024 A 
HETATM   41  C   UNL     1     -40.068  50.713 -54.366  1.00  0.00     0.003 A 
HETATM   42  C   UNL     1     -40.441  52.039 -54.128  1.00  0.00     0.016 A 
ENDBRANCH  34  36
ENDBRANCH  29  30
ENDBRANCH   1  29
TORSDOF 9
ENDMDL
MODEL 10
REMARK VINA RESULT:      -7.7      2.273      4.156
REMARK  9 active torsions:
REMARK  status: ('A' for Active; 'I' for Inactive)
REMARK    1  A    between atoms: C_4  and  C_5 
REMARK    2  A    between atoms: C_13  and  C_14 
REMARK    3  A    between atoms: C_14  and  N_15 
REMARK    4  A    between atoms: C_19  and  C_20 
REMARK       I    between atoms: C_20  and  N_21 
REMARK    5  A    between atoms: N_21  and  C_22 
REMARK    6  A    between atoms: C_22  and  C_23 
REMARK    7  A    between atoms: C_23  and  C_24 
REMARK    8  A    between atoms: C_24  and  N_25 
REMARK    9  A    between atoms: N_29  and  C_30 
ROOT
HETATM    1  N   UNL     1     -43.747  59.633 -58.455  1.00  0.00    -0.066 N 
HETATM    2  H   UNL     1     -43.298  59.209 -59.281  1.00  0.00     0.280 HD
HETATM    3  C   UNL     1     -44.589  60.776 -58.960  1.00  0.00     0.236 C 
HETATM    4  C   UNL     1     -43.702  61.910 -59.471  1.00  0.00     0.042 C 
HETATM    5  C   UNL     1     -42.726  62.401 -58.401  1.00  0.00     0.081 C 
HETATM    6  C   UNL     1     -41.886  61.227 -57.897  1.00  0.00     0.042 C 
HETATM    7  C   UNL     1     -42.703  60.024 -57.445  1.00  0.00     0.236 C 
ENDROOT
BRANCH   5   8
HETATM    8  C   UNL     1     -43.515  63.087 -57.287  1.00  0.00     0.221 C 
HETATM    9  N   UNL     1     -42.877  63.127 -56.069  1.00  0.00    -0.361 N 
HETATM   10  H   UNL     1     -41.969  62.679 -55.973  1.00  0.00     0.162 HD
HETATM   11  O   UNL     1     -44.578  63.662 -57.501  1.00  0.00    -0.273 OA
BRANCH   9  12
HETATM   12  C   UNL     1     -43.301  64.020 -55.004  1.00  0.00     0.124 C 
BRANCH  12  13
HETATM   13  C   UNL     1     -43.451  63.343 -53.637  1.00  0.00     0.047 C 
BRANCH  13  14
HETATM   14  C   UNL     1     -44.933  63.194 -53.294  1.00  0.00     0.236 C 
BRANCH  14  15
HETATM   15  N   UNL     1     -45.321  61.756 -53.027  1.00  0.00    -0.068 N 
HETATM   16  H   UNL     1     -46.347  61.682 -53.011  1.00  0.00     0.280 HD
HETATM   17  C   UNL     1     -44.836  60.852 -54.181  1.00  0.00     0.254 C 
HETATM   18  C   UNL     1     -45.176  59.369 -53.920  1.00  0.00     0.150 C 
HETATM   19  N   UNL     1     -44.682  58.928 -52.604  1.00  0.00    -0.378 N 
HETATM   20  C   UNL     1     -45.186  59.742 -51.481  1.00  0.00     0.150 C 
HETATM   21  C   UNL     1     -44.801  61.225 -51.679  1.00  0.00     0.254 C 
BRANCH  19  22
HETATM   22  C   UNL     1     -43.409  58.368 -52.464  1.00  0.00     0.031 A 
HETATM   23  C   UNL     1     -43.007  57.635 -51.338  1.00  0.00     0.053 A 
HETATM   24  C   UNL     1     -41.722  57.080 -51.247  1.00  0.00     0.036 A 
HETATM   25 CL   UNL     1     -41.304  56.149 -49.860  1.00  0.00    -0.084 Cl
HETATM   26  C   UNL     1     -40.794  57.261 -52.262  1.00  0.00     0.024 A 
HETATM   27  C   UNL     1     -41.151  58.015 -53.373  1.00  0.00     0.004 A 
HETATM   28  C   UNL     1     -42.439  58.561 -53.465  1.00  0.00     0.029 A 
ENDBRANCH  19  22
ENDBRANCH  14  15
ENDBRANCH  13  14
ENDBRANCH  12  13
ENDBRANCH   9  12
ENDBRANCH   5   8
BRANCH   1  29
HETATM   29  C   UNL     1     -44.602  58.508 -57.875  1.00  0.00     0.296 C 
BRANCH  29  30
HETATM   30  C   UNL     1     -43.863  57.286 -57.474  1.00  0.00     0.092 A 
HETATM   31  C   UNL     1     -43.310  56.316 -58.281  1.00  0.00     0.078 A 
HETATM   32  C   UNL     1     -43.218  56.089 -59.735  1.00  0.00     0.079 C 
HETATM   33  O   UNL     1     -42.726  55.388 -57.473  1.00  0.00    -0.294 OA
HETATM   34  C   UNL     1     -42.962  55.832 -56.198  1.00  0.00     0.180 A 
HETATM   35  N   UNL     1     -43.640  56.970 -56.147  1.00  0.00    -0.224 NA
BRANCH  34  36
HETATM   36  C   UNL     1     -42.416  55.015 -55.118  1.00  0.00     0.019 A 
HETATM   37  C   UNL     1     -43.154  54.835 -53.939  1.00  0.00     0.039 A 
HETATM   38  C   UNL     1     -42.639  54.067 -52.894  1.00  0.00     0.035 A 
HETATM   39 CL   UNL     1     -43.559  53.872 -51.454  1.00  0.00    -0.084 Cl
HETATM   40  C   UNL     1     -41.389  53.464 -53.005  1.00  0.00     0.024 A 
HETATM   41  C   UNL     1     -40.646  53.631 -54.171  1.00  0.00     0.003 A 
HETATM   42  C   UNL     1     -41.156  54.402 -55.220  1.00  0.00     0.016 A 
ENDBRANCH  34  36
ENDBRANCH  29  30
ENDBRANCH   1  29
TORSDOF 9
ENDMDL
