MODEL 1
REMARK VINA RESULT:      -8.0      0.000      0.000
REMARK  2 active torsions:
REMARK  status: ('A' for Active; 'I' for Inactive)
REMARK    1  A    between atoms: N_2  and  C_3 
REMARK       I    between atoms: N_4  and  C_5 
REMARK       I    between atoms: C_5  and  N_6 
REMARK    2  A    between atoms: C_9  and  C_10 
ROOT
HETATM    1  C   UNL     1     -40.895  54.177 -49.588  1.00  0.00     0.703 A 
HETATM    2  N   UNL     1     -40.826  54.924 -50.762  1.00  0.00    -0.141 N 
HETATM    3  C   UNL     1     -40.943  56.311 -50.844  1.00  0.00     0.188 C 
HETATM    4  N   UNL     1     -41.635  56.914 -49.844  1.00  0.00    -0.272 NA
HETATM    5  N   UNL     1     -40.454  57.045 -51.793  1.00  0.00    -0.273 NA
HETATM    6  H   UNL     1     -40.747  58.011 -51.627  1.00  0.00     0.189 HD
HETATM    7  C   UNL     1     -40.513  54.262 -52.061  1.00  0.00     0.179 A 
HETATM    8  C   UNL     1     -40.185  52.777 -51.975  1.00  0.00    -0.001 A 
HETATM    9  C   UNL     1     -40.254  52.128 -50.747  1.00  0.00     0.058 A 
HETATM   10  N   UNL     1     -40.638  52.842 -49.618  1.00  0.00    -0.190 N 
HETATM   11  C   UNL     1     -39.826  52.042 -53.124  1.00  0.00     0.035 A 
HETATM   12  C   UNL     1     -39.562  50.677 -53.036  1.00  0.00     0.034 A 
HETATM   13 CL   UNL     1     -39.162  49.786 -54.450  1.00  0.00    -0.084 Cl
HETATM   14  C   UNL     1     -39.631  50.031 -51.807  1.00  0.00     0.026 A 
HETATM   15  C   UNL     1     -39.975  50.757 -50.666  1.00  0.00     0.032 A 
HETATM   16  H   UNL     1     -41.641  56.329 -48.999  1.00  0.00     0.127 HD
HETATM   17  H   UNL     1     -41.366  57.862 -49.628  1.00  0.00     0.127 HD
HETATM   18  H   UNL     1     -40.614  52.336 -48.746  1.00  0.00     0.184 HD
ENDROOT
BRANCH   1  19
HETATM   19  N   UNL     1     -41.166  54.725 -48.432  1.00  0.00    -0.117 NA
HETATM   20  H   UNL     1     -40.446  55.412 -48.201  1.00  0.00     0.206 HD
ENDBRANCH   1  19
BRANCH   7  21
HETATM   21  C   UNL     1     -41.637  54.494 -53.085  1.00  0.00    -0.030 A 
HETATM   22  C   UNL     1     -41.316  54.893 -54.395  1.00  0.00     0.009 A 
HETATM   23  C   UNL     1     -42.315  55.079 -55.352  1.00  0.00     0.001 A 
HETATM   24  C   UNL     1     -43.649  54.871 -55.010  1.00  0.00     0.000 A 
HETATM   25  C   UNL     1     -43.986  54.485 -53.713  1.00  0.00     0.001 A 
HETATM   26  C   UNL     1     -42.987  54.297 -52.753  1.00  0.00     0.009 A 
ENDBRANCH   7  21
TORSDOF 2
ENDMDL
MODEL 2
REMARK VINA RESULT:      -7.7      3.052      4.757
REMARK  2 active torsions:
REMARK  status: ('A' for Active; 'I' for Inactive)
REMARK    1  A    between atoms: N_2  and  C_3 
REMARK       I    between atoms: N_4  and  C_5 
REMARK       I    between atoms: C_5  and  N_6 
REMARK    2  A    between atoms: C_9  and  C_10 
ROOT
HETATM    1  C   UNL     1     -43.048  55.502 -55.629  1.00  0.00     0.703 A 
HETATM    2  N   UNL     1     -43.295  56.121 -54.405  1.00  0.00    -0.141 N 
HETATM    3  C   UNL     1     -44.227  57.135 -54.188  1.00  0.00     0.188 C 
HETATM    4  N   UNL     1     -44.552  57.893 -55.267  1.00  0.00    -0.272 NA
HETATM    5  N   UNL     1     -44.785  57.403 -53.050  1.00  0.00    -0.273 NA
HETATM    6  H   UNL     1     -45.372  58.231 -53.173  1.00  0.00     0.189 HD
HETATM    7  C   UNL     1     -42.610  55.649 -53.169  1.00  0.00     0.179 A 
HETATM    8  C   UNL     1     -41.734  54.414 -53.338  1.00  0.00    -0.001 A 
HETATM    9  C   UNL     1     -41.575  53.852 -54.600  1.00  0.00     0.058 A 
HETATM   10  N   UNL     1     -42.207  54.436 -55.692  1.00  0.00    -0.190 N 
HETATM   11  C   UNL     1     -41.067  53.837 -52.238  1.00  0.00     0.035 A 
HETATM   12  C   UNL     1     -40.242  52.728 -52.413  1.00  0.00     0.034 A 
HETATM   13 CL   UNL     1     -39.405  52.058 -51.070  1.00  0.00    -0.084 Cl
HETATM   14  C   UNL     1     -40.086  52.168 -53.675  1.00  0.00     0.026 A 
HETATM   15  C   UNL     1     -40.753  52.729 -54.765  1.00  0.00     0.032 A 
HETATM   16  H   UNL     1     -44.366  57.384 -56.140  1.00  0.00     0.127 HD
HETATM   17  H   UNL     1     -45.480  58.287 -55.268  1.00  0.00     0.127 HD
HETATM   18  H   UNL     1     -42.104  53.954 -56.572  1.00  0.00     0.184 HD
ENDROOT
BRANCH   1  19
HETATM   19  N   UNL     1     -43.632  55.890 -56.733  1.00  0.00    -0.117 NA
HETATM   20  H   UNL     1     -44.623  55.643 -56.702  1.00  0.00     0.206 HD
ENDBRANCH   1  19
BRANCH   7  21
HETATM   21  C   UNL     1     -41.800  56.783 -52.518  1.00  0.00    -0.030 A 
HETATM   22  C   UNL     1     -40.920  57.551 -53.302  1.00  0.00     0.009 A 
HETATM   23  C   UNL     1     -40.197  58.605 -52.742  1.00  0.00     0.001 A 
HETATM   24  C   UNL     1     -40.343  58.904 -51.390  1.00  0.00     0.000 A 
HETATM   25  C   UNL     1     -41.203  58.146 -50.596  1.00  0.00     0.001 A 
HETATM   26  C   UNL     1     -41.928  57.090 -51.153  1.00  0.00     0.009 A 
ENDBRANCH   7  21
TORSDOF 2
ENDMDL
MODEL 3
REMARK VINA RESULT:      -7.3      2.112      3.228
REMARK  2 active torsions:
REMARK  status: ('A' for Active; 'I' for Inactive)
REMARK    1  A    between atoms: N_2  and  C_3 
REMARK       I    between atoms: N_4  and  C_5 
REMARK       I    between atoms: C_5  and  N_6 
REMARK    2  A    between atoms: C_9  and  C_10 
ROOT
HETATM    1  C   UNL     1     -41.251  57.502 -50.766  1.00  0.00     0.703 A 
HETATM    2  N   UNL     1     -41.262  57.894 -52.103  1.00  0.00    -0.141 N 
HETATM    3  C   UNL     1     -41.256  59.211 -52.558  1.00  0.00     0.188 C 
HETATM    4  N   UNL     1     -41.755  60.142 -51.705  1.00  0.00    -0.272 NA
HETATM    5  N   UNL     1     -40.824  59.598 -53.717  1.00  0.00    -0.273 NA
HETATM    6  H   UNL     1     -41.001  60.602 -53.801  1.00  0.00     0.189 HD
HETATM    7  C   UNL     1     -41.180  56.875 -53.188  1.00  0.00     0.179 A 
HETATM    8  C   UNL     1     -40.986  55.437 -52.722  1.00  0.00    -0.001 A 
HETATM    9  C   UNL     1     -40.960  55.154 -51.361  1.00  0.00     0.058 A 
HETATM   10  N   UNL     1     -41.128  56.187 -50.446  1.00  0.00    -0.190 N 
HETATM   11  C   UNL     1     -40.846  54.383 -53.648  1.00  0.00     0.035 A 
HETATM   12  C   UNL     1     -40.704  53.069 -53.207  1.00  0.00     0.034 A 
HETATM   13 CL   UNL     1     -40.572  51.789 -54.347  1.00  0.00    -0.084 Cl
HETATM   14  C   UNL     1     -40.677  52.789 -51.846  1.00  0.00     0.026 A 
HETATM   15  C   UNL     1     -40.804  53.831 -50.926  1.00  0.00     0.032 A 
HETATM   16  H   UNL     1     -41.710  59.810 -50.734  1.00  0.00     0.127 HD
HETATM   17  H   UNL     1     -41.372  61.071 -51.790  1.00  0.00     0.127 HD
HETATM   18  H   UNL     1     -41.042  55.933 -49.473  1.00  0.00     0.184 HD
ENDROOT
BRANCH   1  19
HETATM   19  N   UNL     1     -41.321  58.369 -49.789  1.00  0.00    -0.117 NA
HETATM   20  H   UNL     1     -42.221  58.849 -49.820  1.00  0.00     0.206 HD
ENDBRANCH   1  19
BRANCH   7  21
HETATM   21  C   UNL     1     -42.398  56.964 -54.124  1.00  0.00    -0.030 A 
HETATM   22  C   UNL     1     -43.696  56.941 -53.583  1.00  0.00     0.009 A 
HETATM   23  C   UNL     1     -44.817  57.052 -54.408  1.00  0.00     0.001 A 
HETATM   24  C   UNL     1     -44.653  57.185 -55.784  1.00  0.00     0.000 A 
HETATM   25  C   UNL     1     -43.374  57.199 -56.338  1.00  0.00     0.001 A 
HETATM   26  C   UNL     1     -42.250  57.088 -55.515  1.00  0.00     0.009 A 
ENDBRANCH   7  21
TORSDOF 2
ENDMDL
MODEL 4
REMARK VINA RESULT:      -7.2      3.633      6.494
REMARK  2 active torsions:
REMARK  status: ('A' for Active; 'I' for Inactive)
REMARK    1  A    between atoms: N_2  and  C_3 
REMARK       I    between atoms: N_4  and  C_5 
REMARK       I    between atoms: C_5  and  N_6 
REMARK    2  A    between atoms: C_9  and  C_10 
ROOT
HETATM    1  C   UNL     1     -41.936  58.764 -55.044  1.00  0.00     0.703 A 
HETATM    2  N   UNL     1     -42.376  57.584 -54.446  1.00  0.00    -0.141 N 
HETATM    3  C   UNL     1     -42.503  57.374 -53.074  1.00  0.00     0.188 C 
HETATM    4  N   UNL     1     -41.716  58.140 -52.275  1.00  0.00    -0.272 NA
HETATM    5  N   UNL     1     -43.296  56.512 -52.522  1.00  0.00    -0.273 NA
HETATM    6  H   UNL     1     -43.132  56.532 -51.513  1.00  0.00     0.189 HD
HETATM    7  C   UNL     1     -42.853  56.447 -55.282  1.00  0.00     0.179 A 
HETATM    8  C   UNL     1     -42.913  56.716 -56.781  1.00  0.00    -0.001 A 
HETATM    9  C   UNL     1     -42.477  57.941 -57.276  1.00  0.00     0.058 A 
HETATM   10  N   UNL     1     -41.977  58.894 -56.397  1.00  0.00    -0.190 N 
HETATM   11  C   UNL     1     -43.390  55.740 -57.679  1.00  0.00     0.035 A 
HETATM   12  C   UNL     1     -43.407  55.989 -59.050  1.00  0.00     0.034 A 
HETATM   13 CL   UNL     1     -43.956  54.775 -60.137  1.00  0.00    -0.084 Cl
HETATM   14  C   UNL     1     -42.972  57.213 -59.542  1.00  0.00     0.026 A 
HETATM   15  C   UNL     1     -42.509  58.187 -58.655  1.00  0.00     0.032 A 
HETATM   16  H   UNL     1     -41.434  59.003 -52.758  1.00  0.00     0.127 HD
HETATM   17  H   UNL     1     -42.080  58.341 -51.356  1.00  0.00     0.127 HD
HETATM   18  H   UNL     1     -41.730  59.784 -56.803  1.00  0.00     0.184 HD
ENDROOT
BRANCH   1  19
HETATM   19  N   UNL     1     -41.512  59.782 -54.341  1.00  0.00    -0.117 NA
HETATM   20  H   UNL     1     -41.237  59.465 -53.410  1.00  0.00     0.206 HD
ENDBRANCH   1  19
BRANCH   7  21
HETATM   21  C   UNL     1     -42.029  55.177 -55.010  1.00  0.00    -0.030 A 
HETATM   22  C   UNL     1     -40.628  55.214 -55.135  1.00  0.00     0.009 A 
HETATM   23  C   UNL     1     -39.855  54.083 -54.863  1.00  0.00     0.001 A 
HETATM   24  C   UNL     1     -40.473  52.901 -54.465  1.00  0.00     0.000 A 
HETATM   25  C   UNL     1     -41.862  52.844 -54.346  1.00  0.00     0.001 A 
HETATM   26  C   UNL     1     -42.638  53.974 -54.618  1.00  0.00     0.009 A 
ENDBRANCH   7  21
TORSDOF 2
ENDMDL
MODEL 5
REMARK VINA RESULT:      -7.1      2.004      2.945
REMARK  2 active torsions:
REMARK  status: ('A' for Active; 'I' for Inactive)
REMARK    1  A    between atoms: N_2  and  C_3 
REMARK       I    between atoms: N_4  and  C_5 
REMARK       I    between atoms: C_5  and  N_6 
REMARK    2  A    between atoms: C_9  and  C_10 
ROOT
HETATM    1  C   UNL     1     -41.494  57.678 -50.517  1.00  0.00     0.703 A 
HETATM    2  N   UNL     1     -41.121  57.414 -51.833  1.00  0.00    -0.141 N 
HETATM    3  C   UNL     1     -40.970  58.370 -52.837  1.00  0.00     0.188 C 
HETATM    4  N   UNL     1     -41.679  59.517 -52.683  1.00  0.00    -0.272 NA
HETATM    5  N   UNL     1     -40.224  58.237 -53.887  1.00  0.00    -0.273 NA
HETATM    6  H   UNL     1     -40.357  59.062 -54.476  1.00  0.00     0.189 HD
HETATM    7  C   UNL     1     -40.748  56.032 -52.249  1.00  0.00     0.179 A 
HETATM    8  C   UNL     1     -40.712  54.999 -51.128  1.00  0.00    -0.001 A 
HETATM    9  C   UNL     1     -41.075  55.373 -49.839  1.00  0.00     0.058 A 
HETATM   10  N   UNL     1     -41.482  56.679 -49.595  1.00  0.00    -0.190 N 
HETATM   11  C   UNL     1     -40.329  53.666 -51.378  1.00  0.00     0.035 A 
HETATM   12  C   UNL     1     -40.334  52.725 -50.350  1.00  0.00     0.034 A 
HETATM   13 CL   UNL     1     -39.901  51.093 -50.676  1.00  0.00    -0.084 Cl
HETATM   14  C   UNL     1     -40.696  53.100 -49.062  1.00  0.00     0.026 A 
HETATM   15  C   UNL     1     -41.065  54.422 -48.809  1.00  0.00     0.032 A 
HETATM   16  H   UNL     1     -41.914  59.672 -51.694  1.00  0.00     0.127 HD
HETATM   17  H   UNL     1     -41.276  60.346 -53.094  1.00  0.00     0.127 HD
HETATM   18  H   UNL     1     -41.678  56.909 -48.633  1.00  0.00     0.184 HD
ENDROOT
BRANCH   1  19
HETATM   19  N   UNL     1     -41.826  58.879 -50.118  1.00  0.00    -0.117 NA
HETATM   20  H   UNL     1     -42.275  58.824 -49.202  1.00  0.00     0.206 HD
ENDBRANCH   1  19
BRANCH   7  21
HETATM   21  C   UNL     1     -41.650  55.535 -53.391  1.00  0.00    -0.030 A 
HETATM   22  C   UNL     1     -41.074  55.125 -54.608  1.00  0.00     0.009 A 
HETATM   23  C   UNL     1     -41.869  54.641 -55.648  1.00  0.00     0.001 A 
HETATM   24  C   UNL     1     -43.250  54.563 -55.487  1.00  0.00     0.000 A 
HETATM   25  C   UNL     1     -43.838  54.974 -54.291  1.00  0.00     0.001 A 
HETATM   26  C   UNL     1     -43.046  55.460 -53.247  1.00  0.00     0.009 A 
ENDBRANCH   7  21
TORSDOF 2
ENDMDL
MODEL 6
REMARK VINA RESULT:      -7.1      3.883      5.667
REMARK  2 active torsions:
REMARK  status: ('A' for Active; 'I' for Inactive)
REMARK    1  A    between atoms: N_2  and  C_3 
REMARK       I    between atoms: N_4  and  C_5 
REMARK       I    between atoms: C_5  and  N_6 
REMARK    2  A    between atoms: C_9  and  C_10 
ROOT
HETATM    1  C   UNL     1     -42.604  56.341 -56.706  1.00  0.00     0.703 A 
HETATM    2  N   UNL     1     -43.563  56.778 -55.794  1.00  0.00    -0.141 N 
HETATM    3  C   UNL     1     -44.649  57.599 -56.096  1.00  0.00     0.188 C 
HETATM    4  N   UNL     1     -44.507  58.405 -57.179  1.00  0.00    -0.272 NA
HETATM    5  N   UNL     1     -45.755  57.650 -55.424  1.00  0.00    -0.273 NA
HETATM    6  H   UNL     1     -46.340  58.381 -55.834  1.00  0.00     0.189 HD
HETATM    7  C   UNL     1     -43.542  56.292 -54.385  1.00  0.00     0.179 A 
HETATM    8  C   UNL     1     -42.485  55.239 -54.073  1.00  0.00    -0.001 A 
HETATM    9  C   UNL     1     -41.591  54.848 -55.064  1.00  0.00     0.058 A 
HETATM   10  N   UNL     1     -41.665  55.437 -56.321  1.00  0.00    -0.190 N 
HETATM   11  C   UNL     1     -42.387  54.662 -52.790  1.00  0.00     0.035 A 
HETATM   12  C   UNL     1     -41.394  53.726 -52.510  1.00  0.00     0.034 A 
HETATM   13 CL   UNL     1     -41.263  53.059 -50.931  1.00  0.00    -0.084 Cl
HETATM   14  C   UNL     1     -40.503  53.337 -53.502  1.00  0.00     0.026 A 
HETATM   15  C   UNL     1     -40.603  53.897 -54.776  1.00  0.00     0.032 A 
HETATM   16  H   UNL     1     -43.801  58.030 -57.825  1.00  0.00     0.127 HD
HETATM   17  H   UNL     1     -45.356  58.644 -57.668  1.00  0.00     0.127 HD
HETATM   18  H   UNL     1     -41.030  55.074 -57.017  1.00  0.00     0.184 HD
ENDROOT
BRANCH   1  19
HETATM   19  N   UNL     1     -42.594  56.745 -57.950  1.00  0.00    -0.117 NA
HETATM   20  H   UNL     1     -43.395  56.350 -58.446  1.00  0.00     0.206 HD
ENDBRANCH   1  19
BRANCH   7  21
HETATM   21  C   UNL     1     -43.422  57.465 -53.398  1.00  0.00    -0.030 A 
HETATM   22  C   UNL     1     -42.373  58.392 -53.539  1.00  0.00     0.009 A 
HETATM   23  C   UNL     1     -42.262  59.482 -52.675  1.00  0.00     0.001 A 
HETATM   24  C   UNL     1     -43.195  59.658 -51.657  1.00  0.00     0.000 A 
HETATM   25  C   UNL     1     -44.235  58.744 -51.497  1.00  0.00     0.001 A 
HETATM   26  C   UNL     1     -44.351  57.651 -52.360  1.00  0.00     0.009 A 
ENDBRANCH   7  21
TORSDOF 2
ENDMDL
MODEL 7
REMARK VINA RESULT:      -7.0     13.116     15.699
REMARK  2 active torsions:
REMARK  status: ('A' for Active; 'I' for Inactive)
REMARK    1  A    between atoms: N_2  and  C_3 
REMARK       I    between atoms: N_4  and  C_5 
REMARK       I    between atoms: C_5  and  N_6 
REMARK    2  A    between atoms: C_9  and  C_10 
ROOT
HETATM    1  C   UNL     1     -35.532  42.001 -53.518  1.00  0.00     0.703 A 
HETATM    2  N   UNL     1     -34.828  40.799 -53.504  1.00  0.00    -0.141 N 
HETATM    3  C   UNL     1     -33.884  40.428 -52.548  1.00  0.00     0.188 C 
HETATM    4  N   UNL     1     -33.259  41.442 -51.897  1.00  0.00    -0.272 NA
HETATM    5  N   UNL     1     -33.563  39.208 -52.251  1.00  0.00    -0.273 NA
HETATM    6  H   UNL     1     -32.804  39.239 -51.567  1.00  0.00     0.189 HD
HETATM    7  C   UNL     1     -35.125  39.739 -54.509  1.00  0.00     0.179 A 
HETATM    8  C   UNL     1     -36.289  40.034 -55.447  1.00  0.00    -0.001 A 
HETATM    9  C   UNL     1     -36.947  41.256 -55.360  1.00  0.00     0.058 A 
HETATM   10  N   UNL     1     -36.522  42.197 -54.429  1.00  0.00    -0.190 N 
HETATM   11  C   UNL     1     -36.703  39.096 -56.414  1.00  0.00     0.035 A 
HETATM   12  C   UNL     1     -37.747  39.393 -57.287  1.00  0.00     0.034 A 
HETATM   13 CL   UNL     1     -38.217  38.254 -58.486  1.00  0.00    -0.084 Cl
HETATM   14  C   UNL     1     -38.404  40.615 -57.198  1.00  0.00     0.026 A 
HETATM   15  C   UNL     1     -38.004  41.543 -56.235  1.00  0.00     0.032 A 
HETATM   16  H   UNL     1     -33.827  42.299 -51.924  1.00  0.00     0.127 HD
HETATM   17  H   UNL     1     -32.948  41.242 -50.959  1.00  0.00     0.127 HD
HETATM   18  H   UNL     1     -37.072  43.040 -54.370  1.00  0.00     0.184 HD
ENDROOT
BRANCH   1  19
HETATM   19  N   UNL     1     -35.299  42.951 -52.651  1.00  0.00    -0.117 NA
HETATM   20  H   UNL     1     -34.528  43.535 -52.980  1.00  0.00     0.206 HD
ENDBRANCH   1  19
BRANCH   7  21
HETATM   21  C   UNL     1     -33.870  39.384 -55.326  1.00  0.00    -0.030 A 
HETATM   22  C   UNL     1     -33.125  40.407 -55.940  1.00  0.00     0.009 A 
HETATM   23  C   UNL     1     -31.965  40.115 -56.660  1.00  0.00     0.001 A 
HETATM   24  C   UNL     1     -31.537  38.795 -56.777  1.00  0.00     0.000 A 
HETATM   25  C   UNL     1     -32.269  37.768 -56.182  1.00  0.00     0.001 A 
HETATM   26  C   UNL     1     -33.430  38.057 -55.461  1.00  0.00     0.009 A 
ENDBRANCH   7  21
TORSDOF 2
ENDMDL
MODEL 8
REMARK VINA RESULT:      -6.9      4.145      6.692
REMARK  2 active torsions:
REMARK  status: ('A' for Active; 'I' for Inactive)
REMARK    1  A    between atoms: N_2  and  C_3 
REMARK       I    between atoms: N_4  and  C_5 
REMARK       I    between atoms: C_5  and  N_6 
REMARK    2  A    between atoms: C_9  and  C_10 
ROOT
HETATM    1  C   UNL     1     -43.735  57.395 -55.374  1.00  0.00     0.703 A 
HETATM    2  N   UNL     1     -42.720  56.468 -55.146  1.00  0.00    -0.141 N 
HETATM    3  C   UNL     1     -42.439  55.366 -55.952  1.00  0.00     0.188 C 
HETATM    4  N   UNL     1     -43.470  54.885 -56.692  1.00  0.00    -0.272 NA
HETATM    5  N   UNL     1     -41.288  54.776 -56.033  1.00  0.00    -0.273 NA
HETATM    6  H   UNL     1     -41.391  53.965 -56.647  1.00  0.00     0.189 HD
HETATM    7  C   UNL     1     -41.761  56.660 -54.021  1.00  0.00     0.179 A 
HETATM    8  C   UNL     1     -41.920  57.959 -53.241  1.00  0.00    -0.001 A 
HETATM    9  C   UNL     1     -42.950  58.834 -53.567  1.00  0.00     0.058 A 
HETATM   10  N   UNL     1     -43.831  58.502 -54.590  1.00  0.00    -0.190 N 
HETATM   11  C   UNL     1     -41.048  58.285 -52.183  1.00  0.00     0.035 A 
HETATM   12  C   UNL     1     -41.226  59.461 -51.456  1.00  0.00     0.034 A 
HETATM   13 CL   UNL     1     -40.178  59.828 -50.144  1.00  0.00    -0.084 Cl
HETATM   14  C   UNL     1     -42.256  60.334 -51.785  1.00  0.00     0.026 A 
HETATM   15  C   UNL     1     -43.115  60.021 -52.839  1.00  0.00     0.032 A 
HETATM   16  H   UNL     1     -44.181  55.612 -56.844  1.00  0.00     0.127 HD
HETATM   17  H   UNL     1     -43.221  54.435 -57.560  1.00  0.00     0.127 HD
HETATM   18  H   UNL     1     -44.522  59.199 -54.822  1.00  0.00     0.184 HD
ENDROOT
BRANCH   1  19
HETATM   19  N   UNL     1     -44.592  57.259 -56.352  1.00  0.00    -0.117 NA
HETATM   20  H   UNL     1     -44.119  57.403 -57.246  1.00  0.00     0.206 HD
ENDBRANCH   1  19
BRANCH   7  21
HETATM   21  C   UNL     1     -41.792  55.462 -53.057  1.00  0.00    -0.030 A 
HETATM   22  C   UNL     1     -40.620  54.718 -52.830  1.00  0.00     0.009 A 
HETATM   23  C   UNL     1     -40.614  53.647 -51.936  1.00  0.00     0.001 A 
HETATM   24  C   UNL     1     -41.782  53.302 -51.260  1.00  0.00     0.000 A 
HETATM   25  C   UNL     1     -42.956  54.022 -51.481  1.00  0.00     0.001 A 
HETATM   26  C   UNL     1     -42.964  55.096 -52.375  1.00  0.00     0.009 A 
ENDBRANCH   7  21
TORSDOF 2
ENDMDL
MODEL 9
REMARK VINA RESULT:      -6.9      4.698      6.935
REMARK  2 active torsions:
REMARK  status: ('A' for Active; 'I' for Inactive)
REMARK    1  A    between atoms: N_2  and  C_3 
REMARK       I    between atoms: N_4  and  C_5 
REMARK       I    between atoms: C_5  and  N_6 
REMARK    2  A    between atoms: C_9  and  C_10 
ROOT
HETATM    1  C   UNL     1     -44.926  57.961 -55.429  1.00  0.00     0.703 A 
HETATM    2  N   UNL     1     -43.696  57.453 -55.843  1.00  0.00    -0.141 N 
HETATM    3  C   UNL     1     -43.402  57.001 -57.128  1.00  0.00     0.188 C 
HETATM    4  N   UNL     1     -44.456  56.571 -57.868  1.00  0.00    -0.272 NA
HETATM    5  N   UNL     1     -42.217  56.955 -57.650  1.00  0.00    -0.273 NA
HETATM    6  H   UNL     1     -42.294  56.523 -58.573  1.00  0.00     0.189 HD
HETATM    7  C   UNL     1     -42.530  57.450 -54.915  1.00  0.00     0.179 A 
HETATM    8  C   UNL     1     -42.765  58.119 -53.566  1.00  0.00    -0.001 A 
HETATM    9  C   UNL     1     -44.025  58.622 -53.260  1.00  0.00     0.058 A 
HETATM   10  N   UNL     1     -45.055  58.492 -54.184  1.00  0.00    -0.190 N 
HETATM   11  C   UNL     1     -41.730  58.225 -52.615  1.00  0.00     0.035 A 
HETATM   12  C   UNL     1     -41.970  58.809 -51.373  1.00  0.00     0.034 A 
HETATM   13 CL   UNL     1     -40.709  58.898 -50.207  1.00  0.00    -0.084 Cl
HETATM   14  C   UNL     1     -43.229  59.312 -51.069  1.00  0.00     0.026 A 
HETATM   15  C   UNL     1     -44.253  59.219 -52.013  1.00  0.00     0.032 A 
HETATM   16  H   UNL     1     -45.333  56.987 -57.532  1.00  0.00     0.127 HD
HETATM   17  H   UNL     1     -44.366  56.672 -58.868  1.00  0.00     0.127 HD
HETATM   18  H   UNL     1     -45.931  58.926 -53.933  1.00  0.00     0.184 HD
ENDROOT
BRANCH   1  19
HETATM   19  N   UNL     1     -45.969  57.981 -56.217  1.00  0.00    -0.117 NA
HETATM   20  H   UNL     1     -45.679  58.229 -57.164  1.00  0.00     0.206 HD
ENDBRANCH   1  19
BRANCH   7  21
HETATM   21  C   UNL     1     -41.993  56.023 -54.707  1.00  0.00    -0.030 A 
HETATM   22  C   UNL     1     -42.862  55.008 -54.268  1.00  0.00     0.009 A 
HETATM   23  C   UNL     1     -42.407  53.699 -54.102  1.00  0.00     0.001 A 
HETATM   24  C   UNL     1     -41.076  53.389 -54.369  1.00  0.00     0.000 A 
HETATM   25  C   UNL     1     -40.199  54.385 -54.796  1.00  0.00     0.001 A 
HETATM   26  C   UNL     1     -40.651  55.697 -54.963  1.00  0.00     0.009 A 
ENDBRANCH   7  21
TORSDOF 2
ENDMDL
MODEL 10
REMARK VINA RESULT:      -6.8     13.273     15.440
REMARK  2 active torsions:
REMARK  status: ('A' for Active; 'I' for Inactive)
REMARK    1  A    between atoms: N_2  and  C_3 
REMARK       I    between atoms: N_4  and  C_5 
REMARK       I    between atoms: C_5  and  N_6 
REMARK    2  A    between atoms: C_9  and  C_10 
ROOT
HETATM    1  C   UNL     1     -37.731  41.122 -52.950  1.00  0.00     0.703 A 
HETATM    2  N   UNL     1     -37.077  39.993 -52.459  1.00  0.00    -0.141 N 
HETATM    3  C   UNL     1     -37.578  39.131 -51.485  1.00  0.00     0.188 C 
HETATM    4  N   UNL     1     -38.489  39.659 -50.628  1.00  0.00    -0.272 NA
HETATM    5  N   UNL     1     -37.234  37.890 -51.339  1.00  0.00    -0.273 NA
HETATM    6  H   UNL     1     -37.710  37.526 -50.511  1.00  0.00     0.189 HD
HETATM    7  C   UNL     1     -35.776  39.561 -53.044  1.00  0.00     0.179 A 
HETATM    8  C   UNL     1     -35.297  40.368 -54.244  1.00  0.00    -0.001 A 
HETATM    9  C   UNL     1     -36.040  41.463 -54.675  1.00  0.00     0.058 A 
HETATM   10  N   UNL     1     -37.199  41.813 -53.994  1.00  0.00    -0.190 N 
HETATM   11  C   UNL     1     -34.105  40.035 -54.919  1.00  0.00     0.035 A 
HETATM   12  C   UNL     1     -33.663  40.803 -55.993  1.00  0.00     0.034 A 
HETATM   13 CL   UNL     1     -32.188  40.408 -56.783  1.00  0.00    -0.084 Cl
HETATM   14  C   UNL     1     -34.406  41.895 -56.423  1.00  0.00     0.026 A 
HETATM   15  C   UNL     1     -35.593  42.222 -55.765  1.00  0.00     0.032 A 
HETATM   16  H   UNL     1     -38.952  40.477 -51.045  1.00  0.00     0.127 HD
HETATM   17  H   UNL     1     -39.165  39.015 -50.247  1.00  0.00     0.127 HD
HETATM   18  H   UNL     1     -37.728  42.578 -54.384  1.00  0.00     0.184 HD
ENDROOT
BRANCH   1  19
HETATM   19  N   UNL     1     -38.874  41.528 -52.462  1.00  0.00    -0.117 NA
HETATM   20  H   UNL     1     -39.026  41.105 -51.545  1.00  0.00     0.206 HD
ENDBRANCH   1  19
BRANCH   7  21
HETATM   21  C   UNL     1     -34.676  39.514 -51.970  1.00  0.00    -0.030 A 
HETATM   22  C   UNL     1     -33.916  38.343 -51.799  1.00  0.00     0.009 A 
HETATM   23  C   UNL     1     -32.891  38.286 -50.853  1.00  0.00     0.001 A 
HETATM   24  C   UNL     1     -32.615  39.399 -50.064  1.00  0.00     0.000 A 
HETATM   25  C   UNL     1     -33.365  40.565 -50.213  1.00  0.00     0.001 A 
HETATM   26  C   UNL     1     -34.391  40.625 -51.159  1.00  0.00     0.009 A 
ENDBRANCH   7  21
TORSDOF 2
ENDMDL
