MODEL 1
REMARK VINA RESULT:      -8.6      0.000      0.000
REMARK  7 active torsions:
REMARK  status: ('A' for Active; 'I' for Inactive)
REMARK    1  A    between atoms: C_5  and  O_6 
REMARK    2  A    between atoms: O_6  and  C_7 
REMARK    3  A    between atoms: C_7  and  C_8 
REMARK    4  A    between atoms: C_9  and  C_10 
REMARK    5  A    between atoms: C_10  and  N_11 
REMARK       I    between atoms: N_11  and  C_12 
REMARK    6  A    between atoms: C_12  and  C_13 
REMARK    7  A    between atoms: C_17  and  C_18 
ROOT
HETATM    1  N   UNL     1     -41.896  58.361 -52.276  1.00  0.00    -0.345 N 
HETATM    2  C   UNL     1     -41.127  58.812 -53.319  1.00  0.00     0.270 C 
HETATM    3  O   UNL     1     -39.986  59.239 -53.171  1.00  0.00    -0.266 OA
HETATM    4  H   UNL     1     -42.871  58.156 -52.426  1.00  0.00     0.163 HD
ENDROOT
BRANCH   1   5
HETATM    5  C   UNL     1     -41.409  58.356 -50.919  1.00  0.00     0.217 C 
BRANCH   5   6
HETATM    6  C   UNL     1     -41.048  56.998 -50.504  1.00  0.00    -0.085 C 
HETATM    7  C   UNL     1     -40.804  55.875 -50.153  1.00  0.00    -0.078 C 
BRANCH   7   8
HETATM    8  C   UNL     1     -40.556  54.491 -49.722  1.00  0.00     0.269 C 
BRANCH   8   9
HETATM    9  O   UNL     1     -41.428  53.626 -50.444  1.00  0.00    -0.339 OA
BRANCH   9  10
HETATM   10  C   UNL     1     -41.016  53.169 -51.673  1.00  0.00     0.081 A 
HETATM   11  C   UNL     1     -41.797  53.584 -52.784  1.00  0.00     0.007 A 
HETATM   12  C   UNL     1     -41.434  53.153 -54.084  1.00  0.00    -0.023 A 
HETATM   13  C   UNL     1     -42.930  54.419 -52.658  1.00  0.00     0.015 A 
HETATM   14  C   UNL     1     -42.196  53.554 -55.193  1.00  0.00     0.012 A 
HETATM   15  C   UNL     1     -40.315  52.325 -54.251  1.00  0.00     0.012 A 
HETATM   16  C   UNL     1     -43.311  54.378 -55.038  1.00  0.00     0.001 A 
HETATM   17  C   UNL     1     -43.679  54.811 -53.770  1.00  0.00     0.001 A 
HETATM   18  C   UNL     1     -39.558  51.922 -53.153  1.00  0.00     0.004 A 
HETATM   19  C   UNL     1     -39.906  52.341 -51.870  1.00  0.00     0.038 A 
ENDBRANCH   9  10
ENDBRANCH   8   9
ENDBRANCH   7   8
ENDBRANCH   5   6
ENDBRANCH   1   5
BRANCH   2  20
HETATM   20  C   UNL     1     -41.747  58.745 -54.615  1.00  0.00     0.120 A 
HETATM   21  N   UNL     1     -41.953  59.870 -55.362  1.00  0.00    -0.272 N 
HETATM   22  H   UNL     1     -41.717  60.823 -55.102  1.00  0.00     0.189 HD
HETATM   23  N   UNL     1     -42.527  59.644 -56.553  1.00  0.00    -0.174 NA
HETATM   24  C   UNL     1     -42.674  58.312 -56.612  1.00  0.00     0.089 A 
HETATM   25  C   UNL     1     -42.216  57.712 -55.403  1.00  0.00     0.071 A 
BRANCH  24  26
HETATM   26  C   UNL     1     -43.231  57.655 -57.802  1.00  0.00    -0.005 A 
HETATM   27  C   UNL     1     -44.204  58.286 -58.594  1.00  0.00     0.017 A 
HETATM   28  C   UNL     1     -44.735  57.643 -59.717  1.00  0.00     0.043 A 
HETATM   29  C   UNL     1     -44.295  56.369 -60.050  1.00  0.00     0.116 A 
HETATM   30  F   UNL     1     -44.808  55.754 -61.124  1.00  0.00    -0.206 F 
HETATM   31  C   UNL     1     -43.336  55.721 -59.284  1.00  0.00     0.043 A 
HETATM   32  C   UNL     1     -42.807  56.363 -58.161  1.00  0.00     0.017 A 
ENDBRANCH  24  26
ENDBRANCH   2  20
TORSDOF 7
ENDMDL
MODEL 2
REMARK VINA RESULT:      -8.4      3.745      7.049
REMARK  7 active torsions:
REMARK  status: ('A' for Active; 'I' for Inactive)
REMARK    1  A    between atoms: C_5  and  O_6 
REMARK    2  A    between atoms: O_6  and  C_7 
REMARK    3  A    between atoms: C_7  and  C_8 
REMARK    4  A    between atoms: C_9  and  C_10 
REMARK    5  A    between atoms: C_10  and  N_11 
REMARK       I    between atoms: N_11  and  C_12 
REMARK    6  A    between atoms: C_12  and  C_13 
REMARK    7  A    between atoms: C_17  and  C_18 
ROOT
HETATM    1  N   UNL     1     -43.908  56.159 -55.233  1.00  0.00    -0.345 N 
HETATM    2  C   UNL     1     -42.594  56.172 -55.630  1.00  0.00     0.270 C 
HETATM    3  O   UNL     1     -42.119  57.053 -56.339  1.00  0.00    -0.266 OA
HETATM    4  H   UNL     1     -44.283  55.345 -54.774  1.00  0.00     0.163 HD
ENDROOT
BRANCH   1   5
HETATM    5  C   UNL     1     -44.830  57.195 -55.626  1.00  0.00     0.217 C 
BRANCH   5   6
HETATM    6  C   UNL     1     -44.915  58.231 -54.594  1.00  0.00    -0.085 C 
HETATM    7  C   UNL     1     -44.931  59.078 -53.741  1.00  0.00    -0.078 C 
BRANCH   7   8
HETATM    8  C   UNL     1     -44.898  60.117 -52.701  1.00  0.00     0.269 C 
BRANCH   8   9
HETATM    9  O   UNL     1     -44.543  59.508 -51.462  1.00  0.00    -0.339 OA
BRANCH   9  10
HETATM   10  C   UNL     1     -43.243  59.095 -51.292  1.00  0.00     0.081 A 
HETATM   11  C   UNL     1     -43.059  57.711 -51.037  1.00  0.00     0.007 A 
HETATM   12  C   UNL     1     -41.746  57.211 -50.851  1.00  0.00    -0.023 A 
HETATM   13  C   UNL     1     -44.131  56.794 -50.962  1.00  0.00     0.015 A 
HETATM   14  C   UNL     1     -41.547  55.843 -50.597  1.00  0.00     0.012 A 
HETATM   15  C   UNL     1     -40.656  58.088 -50.919  1.00  0.00     0.012 A 
HETATM   16  C   UNL     1     -42.626  54.962 -50.527  1.00  0.00     0.001 A 
HETATM   17  C   UNL     1     -43.919  55.437 -50.710  1.00  0.00     0.001 A 
HETATM   18  C   UNL     1     -40.848  59.445 -51.168  1.00  0.00     0.004 A 
HETATM   19  C   UNL     1     -42.136  59.948 -51.352  1.00  0.00     0.038 A 
ENDBRANCH   9  10
ENDBRANCH   8   9
ENDBRANCH   7   8
ENDBRANCH   5   6
ENDBRANCH   1   5
BRANCH   2  20
HETATM   20  C   UNL     1     -41.795  55.077 -55.149  1.00  0.00     0.120 A 
HETATM   21  N   UNL     1     -40.660  54.686 -55.801  1.00  0.00    -0.272 N 
HETATM   22  H   UNL     1     -40.278  55.092 -56.651  1.00  0.00     0.189 HD
HETATM   23  N   UNL     1     -40.016  53.662 -55.223  1.00  0.00    -0.174 NA
HETATM   24  C   UNL     1     -40.734  53.385 -54.124  1.00  0.00     0.089 A 
HETATM   25  C   UNL     1     -41.873  54.239 -54.053  1.00  0.00     0.071 A 
BRANCH  24  26
HETATM   26  C   UNL     1     -40.320  52.338 -53.182  1.00  0.00    -0.005 A 
HETATM   27  C   UNL     1     -39.943  51.062 -53.631  1.00  0.00     0.017 A 
HETATM   28  C   UNL     1     -39.564  50.070 -52.720  1.00  0.00     0.043 A 
HETATM   29  C   UNL     1     -39.558  50.352 -51.361  1.00  0.00     0.116 A 
HETATM   30  F   UNL     1     -39.197  49.399 -50.491  1.00  0.00    -0.206 F 
HETATM   31  C   UNL     1     -39.927  51.605 -50.890  1.00  0.00     0.043 A 
HETATM   32  C   UNL     1     -40.309  52.595 -51.799  1.00  0.00     0.017 A 
ENDBRANCH  24  26
ENDBRANCH   2  20
TORSDOF 7
ENDMDL
MODEL 3
REMARK VINA RESULT:      -8.2      1.065      2.344
REMARK  7 active torsions:
REMARK  status: ('A' for Active; 'I' for Inactive)
REMARK    1  A    between atoms: C_5  and  O_6 
REMARK    2  A    between atoms: O_6  and  C_7 
REMARK    3  A    between atoms: C_7  and  C_8 
REMARK    4  A    between atoms: C_9  and  C_10 
REMARK    5  A    between atoms: C_10  and  N_11 
REMARK       I    between atoms: N_11  and  C_12 
REMARK    6  A    between atoms: C_12  and  C_13 
REMARK    7  A    between atoms: C_17  and  C_18 
ROOT
HETATM    1  N   UNL     1     -42.111  58.305 -52.478  1.00  0.00    -0.345 N 
HETATM    2  C   UNL     1     -41.342  58.842 -53.480  1.00  0.00     0.270 C 
HETATM    3  O   UNL     1     -40.267  59.397 -53.272  1.00  0.00    -0.266 OA
HETATM    4  H   UNL     1     -43.046  57.990 -52.681  1.00  0.00     0.163 HD
ENDROOT
BRANCH   1   5
HETATM    5  C   UNL     1     -41.703  58.355 -51.096  1.00  0.00     0.217 C 
BRANCH   5   6
HETATM    6  C   UNL     1     -41.209  57.048 -50.655  1.00  0.00    -0.085 C 
HETATM    7  C   UNL     1     -40.754  55.998 -50.287  1.00  0.00    -0.078 C 
BRANCH   7   8
HETATM    8  C   UNL     1     -40.155  54.738 -49.824  1.00  0.00     0.269 C 
BRANCH   8   9
HETATM    9  O   UNL     1     -40.889  53.652 -50.384  1.00  0.00    -0.339 OA
BRANCH   9  10
HETATM   10  C   UNL     1     -40.650  53.317 -51.696  1.00  0.00     0.081 A 
HETATM   11  C   UNL     1     -40.230  51.981 -51.929  1.00  0.00     0.007 A 
HETATM   12  C   UNL     1     -39.964  51.562 -53.256  1.00  0.00    -0.023 A 
HETATM   13  C   UNL     1     -40.066  51.035 -50.893  1.00  0.00     0.015 A 
HETATM   14  C   UNL     1     -39.548  50.243 -53.504  1.00  0.00     0.012 A 
HETATM   15  C   UNL     1     -40.117  52.470 -54.312  1.00  0.00     0.012 A 
HETATM   16  C   UNL     1     -39.393  49.331 -52.460  1.00  0.00     0.001 A 
HETATM   17  C   UNL     1     -39.652  49.727 -51.153  1.00  0.00     0.001 A 
HETATM   18  C   UNL     1     -40.527  53.779 -54.072  1.00  0.00     0.004 A 
HETATM   19  C   UNL     1     -40.791  54.202 -52.770  1.00  0.00     0.038 A 
ENDBRANCH   9  10
ENDBRANCH   8   9
ENDBRANCH   7   8
ENDBRANCH   5   6
ENDBRANCH   1   5
BRANCH   2  20
HETATM   20  C   UNL     1     -41.877  58.705 -54.808  1.00  0.00     0.120 A 
HETATM   21  N   UNL     1     -41.959  59.774 -55.654  1.00  0.00    -0.272 N 
HETATM   22  H   UNL     1     -41.678  60.730 -55.453  1.00  0.00     0.189 HD
HETATM   23  N   UNL     1     -42.466  59.485 -56.861  1.00  0.00    -0.174 NA
HETATM   24  C   UNL     1     -42.696  58.164 -56.826  1.00  0.00     0.089 A 
HETATM   25  C   UNL     1     -42.359  57.640 -55.544  1.00  0.00     0.071 A 
BRANCH  24  26
HETATM   26  C   UNL     1     -43.215  57.445 -57.997  1.00  0.00    -0.005 A 
HETATM   27  C   UNL     1     -43.790  58.134 -59.077  1.00  0.00     0.017 A 
HETATM   28  C   UNL     1     -44.292  57.435 -60.180  1.00  0.00     0.043 A 
HETATM   29  C   UNL     1     -44.219  56.048 -60.206  1.00  0.00     0.116 A 
HETATM   30  F   UNL     1     -44.702  55.382 -61.263  1.00  0.00    -0.206 F 
HETATM   31  C   UNL     1     -43.656  55.344 -59.151  1.00  0.00     0.043 A 
HETATM   32  C   UNL     1     -43.157  56.042 -58.048  1.00  0.00     0.017 A 
ENDBRANCH  24  26
ENDBRANCH   2  20
TORSDOF 7
ENDMDL
MODEL 4
REMARK VINA RESULT:      -8.1      1.761      2.046
REMARK  7 active torsions:
REMARK  status: ('A' for Active; 'I' for Inactive)
REMARK    1  A    between atoms: C_5  and  O_6 
REMARK    2  A    between atoms: O_6  and  C_7 
REMARK    3  A    between atoms: C_7  and  C_8 
REMARK    4  A    between atoms: C_9  and  C_10 
REMARK    5  A    between atoms: C_10  and  N_11 
REMARK       I    between atoms: N_11  and  C_12 
REMARK    6  A    between atoms: C_12  and  C_13 
REMARK    7  A    between atoms: C_17  and  C_18 
ROOT
HETATM    1  N   UNL     1     -44.279  56.913 -52.524  1.00  0.00    -0.345 N 
HETATM    2  C   UNL     1     -43.461  57.797 -53.182  1.00  0.00     0.270 C 
HETATM    3  O   UNL     1     -42.717  58.579 -52.599  1.00  0.00    -0.266 OA
HETATM    4  H   UNL     1     -44.973  56.396 -53.040  1.00  0.00     0.163 HD
ENDROOT
BRANCH   1   5
HETATM    5  C   UNL     1     -44.317  56.839 -51.085  1.00  0.00     0.217 C 
BRANCH   5   6
HETATM    6  C   UNL     1     -43.284  55.928 -50.587  1.00  0.00    -0.085 C 
HETATM    7  C   UNL     1     -42.470  55.166 -50.138  1.00  0.00    -0.078 C 
BRANCH   7   8
HETATM    8  C   UNL     1     -41.512  54.214 -49.557  1.00  0.00     0.269 C 
BRANCH   8   9
HETATM    9  O   UNL     1     -40.320  54.235 -50.339  1.00  0.00    -0.339 OA
BRANCH   9  10
HETATM   10  C   UNL     1     -40.144  53.247 -51.278  1.00  0.00     0.081 A 
HETATM   11  C   UNL     1     -40.349  53.630 -52.630  1.00  0.00     0.007 A 
HETATM   12  C   UNL     1     -40.187  52.665 -53.654  1.00  0.00    -0.023 A 
HETATM   13  C   UNL     1     -40.710  54.942 -53.010  1.00  0.00     0.015 A 
HETATM   14  C   UNL     1     -40.387  53.028 -54.997  1.00  0.00     0.012 A 
HETATM   15  C   UNL     1     -39.829  51.353 -53.318  1.00  0.00     0.012 A 
HETATM   16  C   UNL     1     -40.743  54.332 -55.342  1.00  0.00     0.001 A 
HETATM   17  C   UNL     1     -40.905  55.290 -54.348  1.00  0.00     0.001 A 
HETATM   18  C   UNL     1     -39.632  50.987 -51.988  1.00  0.00     0.004 A 
HETATM   19  C   UNL     1     -39.790  51.929 -50.972  1.00  0.00     0.038 A 
ENDBRANCH   9  10
ENDBRANCH   8   9
ENDBRANCH   7   8
ENDBRANCH   5   6
ENDBRANCH   1   5
BRANCH   2  20
HETATM   20  C   UNL     1     -43.527  57.745 -54.618  1.00  0.00     0.120 A 
HETATM   21  N   UNL     1     -42.860  58.652 -55.392  1.00  0.00    -0.272 N 
HETATM   22  H   UNL     1     -42.285  59.423 -55.065  1.00  0.00     0.189 HD
HETATM   23  N   UNL     1     -43.007  58.464 -56.712  1.00  0.00    -0.174 NA
HETATM   24  C   UNL     1     -43.773  57.368 -56.817  1.00  0.00     0.089 A 
HETATM   25  C   UNL     1     -44.139  56.899 -55.522  1.00  0.00     0.071 A 
BRANCH  24  26
HETATM   26  C   UNL     1     -44.124  56.801 -58.125  1.00  0.00    -0.005 A 
HETATM   27  C   UNL     1     -43.381  55.749 -58.686  1.00  0.00     0.017 A 
HETATM   28  C   UNL     1     -43.719  55.228 -59.939  1.00  0.00     0.043 A 
HETATM   29  C   UNL     1     -44.800  55.756 -60.633  1.00  0.00     0.116 A 
HETATM   30  F   UNL     1     -45.119  55.256 -61.835  1.00  0.00    -0.206 F 
HETATM   31  C   UNL     1     -45.550  56.796 -60.103  1.00  0.00     0.043 A 
HETATM   32  C   UNL     1     -45.210  57.319 -58.852  1.00  0.00     0.017 A 
ENDBRANCH  24  26
ENDBRANCH   2  20
TORSDOF 7
ENDMDL
MODEL 5
REMARK VINA RESULT:      -7.9      3.023      7.719
REMARK  7 active torsions:
REMARK  status: ('A' for Active; 'I' for Inactive)
REMARK    1  A    between atoms: C_5  and  O_6 
REMARK    2  A    between atoms: O_6  and  C_7 
REMARK    3  A    between atoms: C_7  and  C_8 
REMARK    4  A    between atoms: C_9  and  C_10 
REMARK    5  A    between atoms: C_10  and  N_11 
REMARK       I    between atoms: N_11  and  C_12 
REMARK    6  A    between atoms: C_12  and  C_13 
REMARK    7  A    between atoms: C_17  and  C_18 
ROOT
HETATM    1  N   UNL     1     -42.453  58.848 -54.917  1.00  0.00    -0.345 N 
HETATM    2  C   UNL     1     -41.431  58.536 -54.055  1.00  0.00     0.270 C 
HETATM    3  O   UNL     1     -40.607  59.360 -53.672  1.00  0.00    -0.266 OA
HETATM    4  H   UNL     1     -43.015  58.111 -55.313  1.00  0.00     0.163 HD
ENDROOT
BRANCH   1   5
HETATM    5  C   UNL     1     -42.632  60.182 -55.434  1.00  0.00     0.217 C 
BRANCH   5   6
HETATM    6  C   UNL     1     -42.340  60.223 -56.869  1.00  0.00    -0.085 C 
HETATM    7  C   UNL     1     -42.146  60.287 -58.054  1.00  0.00    -0.078 C 
BRANCH   7   8
HETATM    8  C   UNL     1     -41.946  60.399 -59.506  1.00  0.00     0.269 C 
BRANCH   8   9
HETATM    9  O   UNL     1     -43.045  59.775 -60.166  1.00  0.00    -0.339 OA
BRANCH   9  10
HETATM   10  C   UNL     1     -43.154  58.407 -60.090  1.00  0.00     0.081 A 
HETATM   11  C   UNL     1     -44.475  57.886 -60.127  1.00  0.00     0.007 A 
HETATM   12  C   UNL     1     -44.667  56.485 -60.052  1.00  0.00    -0.023 A 
HETATM   13  C   UNL     1     -45.621  58.705 -60.239  1.00  0.00     0.015 A 
HETATM   14  C   UNL     1     -45.967  55.954 -60.088  1.00  0.00     0.012 A 
HETATM   15  C   UNL     1     -43.556  55.639 -59.942  1.00  0.00     0.012 A 
HETATM   16  C   UNL     1     -47.080  56.787 -60.198  1.00  0.00     0.001 A 
HETATM   17  C   UNL     1     -46.907  58.164 -60.274  1.00  0.00     0.001 A 
HETATM   18  C   UNL     1     -42.264  56.161 -59.904  1.00  0.00     0.004 A 
HETATM   19  C   UNL     1     -42.064  57.538 -59.976  1.00  0.00     0.038 A 
ENDBRANCH   9  10
ENDBRANCH   8   9
ENDBRANCH   7   8
ENDBRANCH   5   6
ENDBRANCH   1   5
BRANCH   2  20
HETATM   20  C   UNL     1     -41.390  57.167 -53.618  1.00  0.00     0.120 A 
HETATM   21  N   UNL     1     -42.305  56.678 -52.728  1.00  0.00    -0.272 N 
HETATM   22  H   UNL     1     -43.065  57.194 -52.294  1.00  0.00     0.189 HD
HETATM   23  N   UNL     1     -42.146  55.381 -52.430  1.00  0.00    -0.174 NA
HETATM   24  C   UNL     1     -41.105  54.984 -53.179  1.00  0.00     0.089 A 
HETATM   25  C   UNL     1     -40.589  56.085 -53.924  1.00  0.00     0.071 A 
BRANCH  24  26
HETATM   26  C   UNL     1     -40.643  53.591 -53.171  1.00  0.00    -0.005 A 
HETATM   27  C   UNL     1     -40.741  52.785 -54.317  1.00  0.00     0.017 A 
HETATM   28  C   UNL     1     -40.309  51.455 -54.291  1.00  0.00     0.043 A 
HETATM   29  C   UNL     1     -39.778  50.928 -53.121  1.00  0.00     0.116 A 
HETATM   30  F   UNL     1     -39.367  49.653 -53.099  1.00  0.00    -0.206 F 
HETATM   31  C   UNL     1     -39.670  51.702 -51.974  1.00  0.00     0.043 A 
HETATM   32  C   UNL     1     -40.104  53.031 -52.000  1.00  0.00     0.017 A 
ENDBRANCH  24  26
ENDBRANCH   2  20
TORSDOF 7
ENDMDL
MODEL 6
REMARK VINA RESULT:      -7.8      3.561      7.545
REMARK  7 active torsions:
REMARK  status: ('A' for Active; 'I' for Inactive)
REMARK    1  A    between atoms: C_5  and  O_6 
REMARK    2  A    between atoms: O_6  and  C_7 
REMARK    3  A    between atoms: C_7  and  C_8 
REMARK    4  A    between atoms: C_9  and  C_10 
REMARK    5  A    between atoms: C_10  and  N_11 
REMARK       I    between atoms: N_11  and  C_12 
REMARK    6  A    between atoms: C_12  and  C_13 
REMARK    7  A    between atoms: C_17  and  C_18 
ROOT
HETATM    1  N   UNL     1     -43.053  56.343 -57.131  1.00  0.00    -0.345 N 
HETATM    2  C   UNL     1     -43.225  55.965 -55.822  1.00  0.00     0.270 C 
HETATM    3  O   UNL     1     -44.134  56.392 -55.118  1.00  0.00    -0.266 OA
HETATM    4  H   UNL     1     -42.214  56.078 -57.622  1.00  0.00     0.163 HD
ENDROOT
BRANCH   1   5
HETATM    5  C   UNL     1     -43.943  57.277 -57.775  1.00  0.00     0.217 C 
BRANCH   5   6
HETATM    6  C   UNL     1     -43.773  58.621 -57.218  1.00  0.00    -0.085 C 
HETATM    7  C   UNL     1     -43.652  59.705 -56.713  1.00  0.00    -0.078 C 
BRANCH   7   8
HETATM    8  C   UNL     1     -43.515  61.011 -56.050  1.00  0.00     0.269 C 
BRANCH   8   9
HETATM    9  O   UNL     1     -42.811  60.826 -54.824  1.00  0.00    -0.339 OA
BRANCH   9  10
HETATM   10  C   UNL     1     -43.433  60.122 -53.820  1.00  0.00     0.081 A 
HETATM   11  C   UNL     1     -42.709  59.018 -53.297  1.00  0.00     0.007 A 
HETATM   12  C   UNL     1     -43.285  58.243 -52.260  1.00  0.00    -0.023 A 
HETATM   13  C   UNL     1     -41.427  58.649 -53.761  1.00  0.00     0.015 A 
HETATM   14  C   UNL     1     -42.583  57.148 -51.731  1.00  0.00     0.012 A 
HETATM   15  C   UNL     1     -44.556  58.577 -51.771  1.00  0.00     0.012 A 
HETATM   16  C   UNL     1     -41.319  56.807 -52.211  1.00  0.00     0.001 A 
HETATM   17  C   UNL     1     -40.739  57.558 -53.226  1.00  0.00     0.001 A 
HETATM   18  C   UNL     1     -45.257  59.661 -52.294  1.00  0.00     0.004 A 
HETATM   19  C   UNL     1     -44.700  60.430 -53.315  1.00  0.00     0.038 A 
ENDBRANCH   9  10
ENDBRANCH   8   9
ENDBRANCH   7   8
ENDBRANCH   5   6
ENDBRANCH   1   5
BRANCH   2  20
HETATM   20  C   UNL     1     -42.263  55.018 -55.324  1.00  0.00     0.120 A 
HETATM   21  N   UNL     1     -40.994  54.965 -55.828  1.00  0.00    -0.272 N 
HETATM   22  H   UNL     1     -40.610  55.543 -56.570  1.00  0.00     0.189 HD
HETATM   23  N   UNL     1     -40.210  54.042 -55.252  1.00  0.00    -0.174 NA
HETATM   24  C   UNL     1     -40.980  53.485 -54.304  1.00  0.00     0.089 A 
HETATM   25  C   UNL     1     -42.285  54.058 -54.332  1.00  0.00     0.071 A 
BRANCH  24  26
HETATM   26  C   UNL     1     -40.459  52.447 -53.406  1.00  0.00    -0.005 A 
HETATM   27  C   UNL     1     -40.275  52.694 -52.036  1.00  0.00     0.017 A 
HETATM   28  C   UNL     1     -39.766  51.699 -51.196  1.00  0.00     0.043 A 
HETATM   29  C   UNL     1     -39.440  50.456 -51.722  1.00  0.00     0.116 A 
HETATM   30  F   UNL     1     -38.949  49.506 -50.914  1.00  0.00    -0.206 F 
HETATM   31  C   UNL     1     -39.610  50.185 -53.073  1.00  0.00     0.043 A 
HETATM   32  C   UNL     1     -40.117  51.180 -53.913  1.00  0.00     0.017 A 
ENDBRANCH  24  26
ENDBRANCH   2  20
TORSDOF 7
ENDMDL
MODEL 7
REMARK VINA RESULT:      -7.7      7.314     10.466
REMARK  7 active torsions:
REMARK  status: ('A' for Active; 'I' for Inactive)
REMARK    1  A    between atoms: C_5  and  O_6 
REMARK    2  A    between atoms: O_6  and  C_7 
REMARK    3  A    between atoms: C_7  and  C_8 
REMARK    4  A    between atoms: C_9  and  C_10 
REMARK    5  A    between atoms: C_10  and  N_11 
REMARK       I    between atoms: N_11  and  C_12 
REMARK    6  A    between atoms: C_12  and  C_13 
REMARK    7  A    between atoms: C_17  and  C_18 
ROOT
HETATM    1  N   UNL     1     -44.484  61.006 -49.416  1.00  0.00    -0.345 N 
HETATM    2  C   UNL     1     -45.492  61.508 -48.630  1.00  0.00     0.270 C 
HETATM    3  O   UNL     1     -46.588  61.832 -49.076  1.00  0.00    -0.266 OA
HETATM    4  H   UNL     1     -43.561  60.891 -49.030  1.00  0.00     0.163 HD
ENDROOT
BRANCH   1   5
HETATM    5  C   UNL     1     -44.648  60.822 -50.836  1.00  0.00     0.217 C 
BRANCH   5   6
HETATM    6  C   UNL     1     -44.202  59.486 -51.239  1.00  0.00    -0.085 C 
HETATM    7  C   UNL     1     -43.886  58.371 -51.558  1.00  0.00    -0.078 C 
BRANCH   7   8
HETATM    8  C   UNL     1     -43.548  56.993 -51.943  1.00  0.00     0.269 C 
BRANCH   8   9
HETATM    9  O   UNL     1     -42.136  56.901 -52.115  1.00  0.00    -0.339 OA
BRANCH   9  10
HETATM   10  C   UNL     1     -41.488  55.813 -51.579  1.00  0.00     0.081 A 
HETATM   11  C   UNL     1     -41.177  54.767 -52.487  1.00  0.00     0.007 A 
HETATM   12  C   UNL     1     -40.509  53.613 -52.008  1.00  0.00    -0.023 A 
HETATM   13  C   UNL     1     -41.500  54.820 -53.861  1.00  0.00     0.015 A 
HETATM   14  C   UNL     1     -40.194  52.568 -52.893  1.00  0.00     0.012 A 
HETATM   15  C   UNL     1     -40.170  53.522 -50.651  1.00  0.00     0.012 A 
HETATM   16  C   UNL     1     -40.527  52.649 -54.245  1.00  0.00     0.001 A 
HETATM   17  C   UNL     1     -41.180  53.775 -54.730  1.00  0.00     0.001 A 
HETATM   18  C   UNL     1     -40.483  54.554 -49.769  1.00  0.00     0.004 A 
HETATM   19  C   UNL     1     -41.140  55.695 -50.229  1.00  0.00     0.038 A 
ENDBRANCH   9  10
ENDBRANCH   8   9
ENDBRANCH   7   8
ENDBRANCH   5   6
ENDBRANCH   1   5
BRANCH   2  20
HETATM   20  C   UNL     1     -45.181  61.624 -47.230  1.00  0.00     0.120 A 
HETATM   21  N   UNL     1     -44.640  60.580 -46.535  1.00  0.00    -0.272 N 
HETATM   22  H   UNL     1     -44.418  59.658 -46.899  1.00  0.00     0.189 HD
HETATM   23  N   UNL     1     -44.393  60.847 -45.244  1.00  0.00    -0.174 NA
HETATM   24  C   UNL     1     -44.752  62.130 -45.086  1.00  0.00     0.089 A 
HETATM   25  C   UNL     1     -45.273  62.648 -46.308  1.00  0.00     0.071 A 
BRANCH  24  26
HETATM   26  C   UNL     1     -44.584  62.820 -43.801  1.00  0.00    -0.005 A 
HETATM   27  C   UNL     1     -45.521  63.766 -43.355  1.00  0.00     0.017 A 
HETATM   28  C   UNL     1     -45.341  64.425 -42.135  1.00  0.00     0.043 A 
HETATM   29  C   UNL     1     -44.226  64.140 -41.358  1.00  0.00     0.116 A 
HETATM   30  F   UNL     1     -44.056  64.775 -40.190  1.00  0.00    -0.206 F 
HETATM   31  C   UNL     1     -43.284  63.210 -41.776  1.00  0.00     0.043 A 
HETATM   32  C   UNL     1     -43.463  62.553 -42.996  1.00  0.00     0.017 A 
ENDBRANCH  24  26
ENDBRANCH   2  20
TORSDOF 7
ENDMDL
MODEL 8
REMARK VINA RESULT:      -7.7      2.917      6.760
REMARK  7 active torsions:
REMARK  status: ('A' for Active; 'I' for Inactive)
REMARK    1  A    between atoms: C_5  and  O_6 
REMARK    2  A    between atoms: O_6  and  C_7 
REMARK    3  A    between atoms: C_7  and  C_8 
REMARK    4  A    between atoms: C_9  and  C_10 
REMARK    5  A    between atoms: C_10  and  N_11 
REMARK       I    between atoms: N_11  and  C_12 
REMARK    6  A    between atoms: C_12  and  C_13 
REMARK    7  A    between atoms: C_17  and  C_18 
ROOT
HETATM    1  N   UNL     1     -41.344  58.564 -52.599  1.00  0.00    -0.345 N 
HETATM    2  C   UNL     1     -42.052  57.814 -51.693  1.00  0.00     0.270 C 
HETATM    3  O   UNL     1     -42.901  58.294 -50.949  1.00  0.00    -0.266 OA
HETATM    4  H   UNL     1     -40.561  58.155 -53.083  1.00  0.00     0.163 HD
ENDROOT
BRANCH   1   5
HETATM    5  C   UNL     1     -41.556  59.983 -52.741  1.00  0.00     0.217 C 
BRANCH   5   6
HETATM    6  C   UNL     1     -42.570  60.255 -53.764  1.00  0.00    -0.085 C 
HETATM    7  C   UNL     1     -43.412  60.424 -54.605  1.00  0.00    -0.078 C 
BRANCH   7   8
HETATM    8  C   UNL     1     -44.455  60.581 -55.629  1.00  0.00     0.269 C 
BRANCH   8   9
HETATM    9  O   UNL     1     -44.975  59.293 -55.950  1.00  0.00    -0.339 OA
BRANCH   9  10
HETATM   10  C   UNL     1     -44.219  58.472 -56.753  1.00  0.00     0.081 A 
HETATM   11  C   UNL     1     -43.898  57.199 -56.212  1.00  0.00     0.007 A 
HETATM   12  C   UNL     1     -43.121  56.298 -56.981  1.00  0.00    -0.023 A 
HETATM   13  C   UNL     1     -44.320  56.779 -54.931  1.00  0.00     0.015 A 
HETATM   14  C   UNL     1     -42.794  55.034 -56.460  1.00  0.00     0.012 A 
HETATM   15  C   UNL     1     -42.683  56.676 -58.257  1.00  0.00     0.012 A 
HETATM   16  C   UNL     1     -43.225  54.648 -55.191  1.00  0.00     0.001 A 
HETATM   17  C   UNL     1     -43.989  55.521 -54.425  1.00  0.00     0.001 A 
HETATM   18  C   UNL     1     -43.003  57.928 -58.777  1.00  0.00     0.004 A 
HETATM   19  C   UNL     1     -43.766  58.823 -58.029  1.00  0.00     0.038 A 
ENDBRANCH   9  10
ENDBRANCH   8   9
ENDBRANCH   7   8
ENDBRANCH   5   6
ENDBRANCH   1   5
BRANCH   2  20
HETATM   20  C   UNL     1     -41.736  56.411 -51.675  1.00  0.00     0.120 A 
HETATM   21  N   UNL     1     -42.190  55.594 -50.679  1.00  0.00    -0.272 N 
HETATM   22  H   UNL     1     -42.758  55.867 -49.882  1.00  0.00     0.189 HD
HETATM   23  N   UNL     1     -41.825  54.311 -50.809  1.00  0.00    -0.174 NA
HETATM   24  C   UNL     1     -41.131  54.268 -51.956  1.00  0.00     0.089 A 
HETATM   25  C   UNL     1     -41.034  55.574 -52.520  1.00  0.00     0.071 A 
BRANCH  24  26
HETATM   26  C   UNL     1     -40.594  53.006 -52.481  1.00  0.00    -0.005 A 
HETATM   27  C   UNL     1     -40.737  52.661 -53.834  1.00  0.00     0.017 A 
HETATM   28  C   UNL     1     -40.232  51.449 -54.317  1.00  0.00     0.043 A 
HETATM   29  C   UNL     1     -39.583  50.581 -53.448  1.00  0.00     0.116 A 
HETATM   30  F   UNL     1     -39.103  49.420 -53.913  1.00  0.00    -0.206 F 
HETATM   31  C   UNL     1     -39.429  50.897 -52.106  1.00  0.00     0.043 A 
HETATM   32  C   UNL     1     -39.936  52.107 -51.623  1.00  0.00     0.017 A 
ENDBRANCH  24  26
ENDBRANCH   2  20
TORSDOF 7
ENDMDL
MODEL 9
REMARK VINA RESULT:      -7.5      3.175      7.953
REMARK  7 active torsions:
REMARK  status: ('A' for Active; 'I' for Inactive)
REMARK    1  A    between atoms: C_5  and  O_6 
REMARK    2  A    between atoms: O_6  and  C_7 
REMARK    3  A    between atoms: C_7  and  C_8 
REMARK    4  A    between atoms: C_9  and  C_10 
REMARK    5  A    between atoms: C_10  and  N_11 
REMARK       I    between atoms: N_11  and  C_12 
REMARK    6  A    between atoms: C_12  and  C_13 
REMARK    7  A    between atoms: C_17  and  C_18 
ROOT
HETATM    1  N   UNL     1     -43.227  58.719 -53.970  1.00  0.00    -0.345 N 
HETATM    2  C   UNL     1     -41.880  58.487 -53.844  1.00  0.00     0.270 C 
HETATM    3  O   UNL     1     -41.029  59.316 -54.148  1.00  0.00    -0.266 OA
HETATM    4  H   UNL     1     -43.878  57.960 -53.845  1.00  0.00     0.163 HD
ENDROOT
BRANCH   1   5
HETATM    5  C   UNL     1     -43.739  59.970 -54.470  1.00  0.00     0.217 C 
BRANCH   5   6
HETATM    6  C   UNL     1     -44.692  59.741 -55.560  1.00  0.00    -0.085 C 
HETATM    7  C   UNL     1     -45.489  59.604 -56.448  1.00  0.00    -0.078 C 
BRANCH   7   8
HETATM    8  C   UNL     1     -46.473  59.488 -57.534  1.00  0.00     0.269 C 
BRANCH   8   9
HETATM    9  O   UNL     1     -45.776  59.273 -58.759  1.00  0.00    -0.339 OA
BRANCH   9  10
HETATM   10  C   UNL     1     -46.247  58.302 -59.611  1.00  0.00     0.081 A 
HETATM   11  C   UNL     1     -45.529  57.078 -59.615  1.00  0.00     0.007 A 
HETATM   12  C   UNL     1     -45.955  56.030 -60.469  1.00  0.00    -0.023 A 
HETATM   13  C   UNL     1     -44.399  56.847 -58.800  1.00  0.00     0.015 A 
HETATM   14  C   UNL     1     -45.255  54.812 -60.485  1.00  0.00     0.012 A 
HETATM   15  C   UNL     1     -47.073  56.219 -61.292  1.00  0.00     0.012 A 
HETATM   16  C   UNL     1     -44.142  54.613 -59.669  1.00  0.00     0.001 A 
HETATM   17  C   UNL     1     -43.713  55.631 -58.826  1.00  0.00     0.001 A 
HETATM   18  C   UNL     1     -47.769  57.426 -61.281  1.00  0.00     0.004 A 
HETATM   19  C   UNL     1     -47.358  58.464 -60.446  1.00  0.00     0.038 A 
ENDBRANCH   9  10
ENDBRANCH   8   9
ENDBRANCH   7   8
ENDBRANCH   5   6
ENDBRANCH   1   5
BRANCH   2  20
HETATM   20  C   UNL     1     -41.524  57.195 -53.322  1.00  0.00     0.120 A 
HETATM   21  N   UNL     1     -41.645  56.910 -51.991  1.00  0.00    -0.272 N 
HETATM   22  H   UNL     1     -41.971  57.539 -51.263  1.00  0.00     0.189 HD
HETATM   23  N   UNL     1     -41.289  55.661 -51.660  1.00  0.00    -0.174 NA
HETATM   24  C   UNL     1     -40.951  55.083 -52.822  1.00  0.00     0.089 A 
HETATM   25  C   UNL     1     -41.065  56.022 -53.889  1.00  0.00     0.071 A 
BRANCH  24  26
HETATM   26  C   UNL     1     -40.544  53.674 -52.888  1.00  0.00    -0.005 A 
HETATM   27  C   UNL     1     -40.517  52.980 -54.108  1.00  0.00     0.017 A 
HETATM   28  C   UNL     1     -40.140  51.634 -54.153  1.00  0.00     0.043 A 
HETATM   29  C   UNL     1     -39.788  50.979 -52.980  1.00  0.00     0.116 A 
HETATM   30  F   UNL     1     -39.429  49.689 -53.027  1.00  0.00    -0.206 F 
HETATM   31  C   UNL     1     -39.807  51.642 -51.761  1.00  0.00     0.043 A 
HETATM   32  C   UNL     1     -40.186  52.986 -51.715  1.00  0.00     0.017 A 
ENDBRANCH  24  26
ENDBRANCH   2  20
TORSDOF 7
ENDMDL
MODEL 10
REMARK VINA RESULT:      -7.3     15.834     18.433
REMARK  7 active torsions:
REMARK  status: ('A' for Active; 'I' for Inactive)
REMARK    1  A    between atoms: C_5  and  O_6 
REMARK    2  A    between atoms: O_6  and  C_7 
REMARK    3  A    between atoms: C_7  and  C_8 
REMARK    4  A    between atoms: C_9  and  C_10 
REMARK    5  A    between atoms: C_10  and  N_11 
REMARK       I    between atoms: N_11  and  C_12 
REMARK    6  A    between atoms: C_12  and  C_13 
REMARK    7  A    between atoms: C_17  and  C_18 
ROOT
HETATM    1  N   UNL     1     -35.181  41.958 -52.712  1.00  0.00    -0.345 N 
HETATM    2  C   UNL     1     -36.449  41.541 -53.032  1.00  0.00     0.270 C 
HETATM    3  O   UNL     1     -37.289  41.249 -52.187  1.00  0.00    -0.266 OA
HETATM    4  H   UNL     1     -34.487  42.048 -53.436  1.00  0.00     0.163 HD
ENDROOT
BRANCH   1   5
HETATM    5  C   UNL     1     -34.746  42.087 -51.343  1.00  0.00     0.217 C 
BRANCH   5   6
HETATM    6  C   UNL     1     -33.696  41.111 -51.041  1.00  0.00    -0.085 C 
HETATM    7  C   UNL     1     -32.804  40.351 -50.773  1.00  0.00    -0.078 C 
BRANCH   7   8
HETATM    8  C   UNL     1     -31.689  39.460 -50.421  1.00  0.00     0.269 C 
BRANCH   8   9
HETATM    9  O   UNL     1     -31.224  39.807 -49.119  1.00  0.00    -0.339 OA
BRANCH   9  10
HETATM   10  C   UNL     1     -31.715  39.101 -48.046  1.00  0.00     0.081 A 
HETATM   11  C   UNL     1     -31.177  39.443 -46.778  1.00  0.00     0.007 A 
HETATM   12  C   UNL     1     -31.634  38.758 -45.625  1.00  0.00    -0.023 A 
HETATM   13  C   UNL     1     -30.197  40.446 -46.604  1.00  0.00     0.015 A 
HETATM   14  C   UNL     1     -31.111  39.085 -44.363  1.00  0.00     0.012 A 
HETATM   15  C   UNL     1     -32.606  37.757 -45.755  1.00  0.00     0.012 A 
HETATM   16  C   UNL     1     -30.144  40.079 -44.222  1.00  0.00     0.001 A 
HETATM   17  C   UNL     1     -29.686  40.761 -45.343  1.00  0.00     0.001 A 
HETATM   18  C   UNL     1     -33.126  37.428 -47.005  1.00  0.00     0.004 A 
HETATM   19  C   UNL     1     -32.683  38.095 -48.146  1.00  0.00     0.038 A 
ENDBRANCH   9  10
ENDBRANCH   8   9
ENDBRANCH   7   8
ENDBRANCH   5   6
ENDBRANCH   1   5
BRANCH   2  20
HETATM   20  C   UNL     1     -36.738  41.473 -54.440  1.00  0.00     0.120 A 
HETATM   21  N   UNL     1     -36.647  42.578 -55.237  1.00  0.00    -0.272 N 
HETATM   22  H   UNL     1     -36.392  43.518 -54.945  1.00  0.00     0.189 HD
HETATM   23  N   UNL     1     -36.932  42.353 -56.527  1.00  0.00    -0.174 NA
HETATM   24  C   UNL     1     -37.187  41.037 -56.595  1.00  0.00     0.089 A 
HETATM   25  C   UNL     1     -37.096  40.452 -55.298  1.00  0.00     0.071 A 
BRANCH  24  26
HETATM   26  C   UNL     1     -37.497  40.381 -57.872  1.00  0.00    -0.005 A 
HETATM   27  C   UNL     1     -37.271  41.029 -59.096  1.00  0.00     0.017 A 
HETATM   28  C   UNL     1     -37.584  40.397 -60.304  1.00  0.00     0.043 A 
HETATM   29  C   UNL     1     -38.121  39.117 -60.290  1.00  0.00     0.116 A 
HETATM   30  F   UNL     1     -38.422  38.515 -61.449  1.00  0.00    -0.206 F 
HETATM   31  C   UNL     1     -38.355  38.454 -59.093  1.00  0.00     0.043 A 
HETATM   32  C   UNL     1     -38.045  39.087 -57.887  1.00  0.00     0.017 A 
ENDBRANCH  24  26
ENDBRANCH   2  20
TORSDOF 7
ENDMDL
