MODEL 1
REMARK VINA RESULT:      -8.3      0.000      0.000
REMARK  10 active torsions:
REMARK  status: ('A' for Active; 'I' for Inactive)
REMARK    1  A    between atoms: C_6  and  N_7 
REMARK    2  A    between atoms: C_6  and  C_29 
REMARK       I    between atoms: N_7  and  C_8 
REMARK    3  A    between atoms: N_7  and  C_23 
REMARK    4  A    between atoms: C_8  and  C_9 
REMARK    5  A    between atoms: C_9  and  N_10 
REMARK    6  A    between atoms: C_14  and  C_15 
REMARK    7  A    between atoms: C_23  and  C_24 
REMARK       I    between atoms: C_29  and  N_30 
REMARK    8  A    between atoms: N_30  and  C_31 
REMARK    9  A    between atoms: C_32  and  O_33 
REMARK   10  A    between atoms: C_36  and  O_37 
ROOT
HETATM    1  N   UNL     1     -43.694  57.206 -55.787  1.00  0.00    -0.326 N 
HETATM    2  C   UNL     1     -44.319  58.344 -56.324  1.00  0.00     0.239 C 
HETATM    3  O   UNL     1     -43.902  59.477 -56.095  1.00  0.00    -0.271 OA
ENDROOT
BRANCH   1   4
HETATM    4  C   UNL     1     -42.998  57.267 -54.452  1.00  0.00     0.120 C 
HETATM    5  C   UNL     1     -41.761  58.187 -54.465  1.00  0.00     0.069 C 
HETATM    6  C   UNL     1     -41.066  58.253 -53.108  1.00  0.00     0.237 C 
HETATM    7  N   UNL     1     -42.027  58.694 -52.043  1.00  0.00    -0.075 N 
HETATM    8  C   UNL     1     -41.346  58.800 -50.701  1.00  0.00     0.269 C 
HETATM    9  H   UNL     1     -42.346  59.646 -52.279  1.00  0.00     0.279 HD
HETATM   10  C   UNL     1     -43.265  57.830 -51.959  1.00  0.00     0.237 C 
HETATM   11  C   UNL     1     -43.945  57.806 -53.324  1.00  0.00     0.069 C 
BRANCH   4  12
HETATM   12  C   UNL     1     -42.697  55.782 -54.031  1.00  0.00     0.251 C 
HETATM   13  N   UNL     1     -41.371  55.424 -53.923  1.00  0.00    -0.323 N 
HETATM   14  H   UNL     1     -40.627  56.098 -54.058  1.00  0.00     0.169 HD
HETATM   15  O   UNL     1     -43.636  55.012 -53.835  1.00  0.00    -0.270 OA
BRANCH  13  16
HETATM   16  C   UNL     1     -40.867  54.147 -53.567  1.00  0.00     0.068 A 
HETATM   17  C   UNL     1     -40.653  53.909 -52.193  1.00  0.00     0.097 A 
HETATM   18  C   UNL     1     -40.174  52.662 -51.763  1.00  0.00     0.075 A 
HETATM   19  C   UNL     1     -39.906  51.657 -52.695  1.00  0.00     0.070 A 
HETATM   20  C   UNL     1     -40.095  51.909 -54.052  1.00  0.00     0.039 A 
HETATM   21  C   UNL     1     -40.576  53.143 -54.490  1.00  0.00     0.035 A 
BRANCH  17  22
HETATM   22  O   UNL     1     -40.979  54.962 -51.364  1.00  0.00    -0.354 OA
HETATM   23  C   UNL     1     -41.985  54.717 -50.384  1.00  0.00     0.210 C 
ENDBRANCH  17  22
BRANCH  19  24
HETATM   24  O   UNL     1     -39.448  50.400 -52.415  1.00  0.00    -0.356 OA
HETATM   25  C   UNL     1     -39.485  49.977 -51.059  1.00  0.00     0.210 C 
ENDBRANCH  19  24
ENDBRANCH  13  16
ENDBRANCH   4  12
ENDBRANCH   1   4
BRANCH   1  26
HETATM   26  C   UNL     1     -43.234  56.239 -56.794  1.00  0.00     0.192 C 
BRANCH  26  27
HETATM   27  C   UNL     1     -42.670  56.867 -58.009  1.00  0.00     0.070 A 
HETATM   28  O   UNL     1     -42.834  56.130 -59.148  1.00  0.00    -0.325 OA
HETATM   29  C   UNL     1     -42.263  56.824 -60.162  1.00  0.00     0.142 A 
HETATM   30  C   UNL     1     -41.734  58.003 -59.696  1.00  0.00     0.027 A 
HETATM   31  C   UNL     1     -41.993  58.032 -58.304  1.00  0.00     0.036 A 
ENDBRANCH  26  27
ENDBRANCH   1  26
BRANCH   2  32
HETATM   32  C   UNL     1     -45.614  58.033 -57.109  1.00  0.00     0.228 C 
BRANCH  32  33
HETATM   33  N   UNL     1     -45.698  58.644 -58.423  1.00  0.00    -0.347 N 
HETATM   34  C   UNL     1     -45.886  58.009 -59.647  1.00  0.00     0.171 C 
HETATM   35  S   UNL     1     -46.086  56.399 -59.963  1.00  0.00    -0.041 SA
HETATM   36  N   UNL     1     -45.851  58.978 -60.639  1.00  0.00    -0.357 N 
HETATM   37  C   UNL     1     -45.517  60.282 -60.106  1.00  0.00     0.135 C 
HETATM   38  H   UNL     1     -45.840  58.741 -61.623  1.00  0.00     0.162 HD
HETATM   39  C   UNL     1     -45.691  60.088 -58.591  1.00  0.00     0.155 C 
BRANCH  37  40
HETATM   40  C   UNL     1     -44.115  60.727 -60.474  1.00  0.00    -0.034 A 
HETATM   41  C   UNL     1     -43.314  61.357 -59.508  1.00  0.00     0.009 A 
HETATM   42  C   UNL     1     -42.002  61.736 -59.801  1.00  0.00     0.001 A 
HETATM   43  C   UNL     1     -41.469  61.488 -61.064  1.00  0.00     0.000 A 
HETATM   44  C   UNL     1     -42.247  60.863 -62.034  1.00  0.00     0.001 A 
HETATM   45  C   UNL     1     -43.559  60.482 -61.741  1.00  0.00     0.009 A 
ENDBRANCH  37  40
ENDBRANCH  32  33
ENDBRANCH   2  32
TORSDOF 10
ENDMDL
MODEL 2
REMARK VINA RESULT:      -8.1      2.595      4.636
REMARK  10 active torsions:
REMARK  status: ('A' for Active; 'I' for Inactive)
REMARK    1  A    between atoms: C_6  and  N_7 
REMARK    2  A    between atoms: C_6  and  C_29 
REMARK       I    between atoms: N_7  and  C_8 
REMARK    3  A    between atoms: N_7  and  C_23 
REMARK    4  A    between atoms: C_8  and  C_9 
REMARK    5  A    between atoms: C_9  and  N_10 
REMARK    6  A    between atoms: C_14  and  C_15 
REMARK    7  A    between atoms: C_23  and  C_24 
REMARK       I    between atoms: C_29  and  N_30 
REMARK    8  A    between atoms: N_30  and  C_31 
REMARK    9  A    between atoms: C_32  and  O_33 
REMARK   10  A    between atoms: C_36  and  O_37 
ROOT
HETATM    1  N   UNL     1     -43.917  58.175 -52.646  1.00  0.00    -0.326 N 
HETATM    2  C   UNL     1     -44.275  57.235 -53.627  1.00  0.00     0.239 C 
HETATM    3  O   UNL     1     -43.779  56.112 -53.655  1.00  0.00    -0.271 OA
ENDROOT
BRANCH   1   4
HETATM    4  C   UNL     1     -42.531  58.181 -52.055  1.00  0.00     0.120 C 
HETATM    5  C   UNL     1     -41.458  58.660 -53.054  1.00  0.00     0.069 C 
HETATM    6  C   UNL     1     -40.059  58.674 -52.447  1.00  0.00     0.237 C 
HETATM    7  N   UNL     1     -40.028  59.520 -51.208  1.00  0.00    -0.075 N 
HETATM    8  C   UNL     1     -38.641  59.574 -50.616  1.00  0.00     0.269 C 
HETATM    9  H   UNL     1     -40.261  60.488 -51.480  1.00  0.00     0.279 HD
HETATM   10  C   UNL     1     -41.047  59.103 -50.172  1.00  0.00     0.237 C 
HETATM   11  C   UNL     1     -42.433  59.123 -50.806  1.00  0.00     0.069 C 
BRANCH   4  12
HETATM   12  C   UNL     1     -42.281  56.740 -51.477  1.00  0.00     0.251 C 
HETATM   13  N   UNL     1     -41.303  55.987 -52.088  1.00  0.00    -0.323 N 
HETATM   14  H   UNL     1     -40.736  56.362 -52.840  1.00  0.00     0.169 HD
HETATM   15  O   UNL     1     -42.964  56.345 -50.533  1.00  0.00    -0.270 OA
BRANCH  13  16
HETATM   16  C   UNL     1     -40.912  54.668 -51.743  1.00  0.00     0.068 A 
HETATM   17  C   UNL     1     -40.737  53.758 -52.807  1.00  0.00     0.097 A 
HETATM   18  C   UNL     1     -40.331  52.441 -52.545  1.00  0.00     0.075 A 
HETATM   19  C   UNL     1     -40.104  52.028 -51.230  1.00  0.00     0.070 A 
HETATM   20  C   UNL     1     -40.306  52.925 -50.183  1.00  0.00     0.039 A 
HETATM   21  C   UNL     1     -40.703  54.239 -50.433  1.00  0.00     0.035 A 
BRANCH  17  22
HETATM   22  O   UNL     1     -40.960  54.284 -54.062  1.00  0.00    -0.354 OA
HETATM   23  C   UNL     1     -40.116  53.817 -55.112  1.00  0.00     0.210 C 
ENDBRANCH  17  22
BRANCH  19  24
HETATM   24  O   UNL     1     -39.699  50.784 -50.834  1.00  0.00    -0.356 OA
HETATM   25  C   UNL     1     -39.568  49.788 -51.839  1.00  0.00     0.210 C 
ENDBRANCH  19  24
ENDBRANCH  13  16
ENDBRANCH   4  12
ENDBRANCH   1   4
BRANCH   1  26
HETATM   26  C   UNL     1     -45.045  58.667 -51.841  1.00  0.00     0.192 C 
BRANCH  26  27
HETATM   27  C   UNL     1     -45.526  60.006 -52.246  1.00  0.00     0.070 A 
HETATM   28  O   UNL     1     -46.833  60.250 -51.934  1.00  0.00    -0.325 OA
HETATM   29  C   UNL     1     -47.127  61.498 -52.373  1.00  0.00     0.142 A 
HETATM   30  C   UNL     1     -46.024  62.068 -52.962  1.00  0.00     0.027 A 
HETATM   31  C   UNL     1     -44.989  61.105 -52.886  1.00  0.00     0.036 A 
ENDBRANCH  26  27
ENDBRANCH   1  26
BRANCH   2  32
HETATM   32  C   UNL     1     -45.240  57.790 -54.701  1.00  0.00     0.228 C 
BRANCH  32  33
HETATM   33  N   UNL     1     -44.630  58.071 -55.988  1.00  0.00    -0.347 N 
HETATM   34  C   UNL     1     -44.872  59.154 -56.827  1.00  0.00     0.171 C 
HETATM   35  S   UNL     1     -45.895  60.434 -56.603  1.00  0.00    -0.041 SA
HETATM   36  N   UNL     1     -44.106  58.987 -57.970  1.00  0.00    -0.357 N 
HETATM   37  C   UNL     1     -43.416  57.714 -57.975  1.00  0.00     0.135 C 
HETATM   38  H   UNL     1     -44.209  59.585 -58.780  1.00  0.00     0.162 HD
HETATM   39  C   UNL     1     -43.561  57.241 -56.519  1.00  0.00     0.155 C 
BRANCH  37  40
HETATM   40  C   UNL     1     -44.005  56.728 -58.965  1.00  0.00    -0.034 A 
HETATM   41  C   UNL     1     -43.722  55.359 -58.828  1.00  0.00     0.009 A 
HETATM   42  C   UNL     1     -44.288  54.421 -59.695  1.00  0.00     0.001 A 
HETATM   43  C   UNL     1     -45.147  54.836 -60.709  1.00  0.00     0.000 A 
HETATM   44  C   UNL     1     -45.441  56.189 -60.858  1.00  0.00     0.001 A 
HETATM   45  C   UNL     1     -44.878  57.127 -59.991  1.00  0.00     0.009 A 
ENDBRANCH  37  40
ENDBRANCH  32  33
ENDBRANCH   2  32
TORSDOF 10
ENDMDL
MODEL 3
REMARK VINA RESULT:      -7.9      2.329      4.139
REMARK  10 active torsions:
REMARK  status: ('A' for Active; 'I' for Inactive)
REMARK    1  A    between atoms: C_6  and  N_7 
REMARK    2  A    between atoms: C_6  and  C_29 
REMARK       I    between atoms: N_7  and  C_8 
REMARK    3  A    between atoms: N_7  and  C_23 
REMARK    4  A    between atoms: C_8  and  C_9 
REMARK    5  A    between atoms: C_9  and  N_10 
REMARK    6  A    between atoms: C_14  and  C_15 
REMARK    7  A    between atoms: C_23  and  C_24 
REMARK       I    between atoms: C_29  and  N_30 
REMARK    8  A    between atoms: N_30  and  C_31 
REMARK    9  A    between atoms: C_32  and  O_33 
REMARK   10  A    between atoms: C_36  and  O_37 
ROOT
HETATM    1  N   UNL     1     -43.683  59.367 -55.223  1.00  0.00    -0.326 N 
HETATM    2  C   UNL     1     -42.485  59.800 -55.815  1.00  0.00     0.239 C 
HETATM    3  O   UNL     1     -41.405  59.693 -55.240  1.00  0.00    -0.271 OA
ENDROOT
BRANCH   1   4
HETATM    4  C   UNL     1     -43.861  59.409 -53.727  1.00  0.00     0.120 C 
HETATM    5  C   UNL     1     -43.038  60.528 -53.059  1.00  0.00     0.069 C 
HETATM    6  C   UNL     1     -43.230  60.571 -51.546  1.00  0.00     0.237 C 
HETATM    7  N   UNL     1     -44.683  60.721 -51.201  1.00  0.00    -0.075 N 
HETATM    8  C   UNL     1     -44.886  60.803 -49.708  1.00  0.00     0.269 C 
HETATM    9  H   UNL     1     -45.007  61.622 -51.584  1.00  0.00     0.279 HD
HETATM   10  C   UNL     1     -45.556  59.649 -51.812  1.00  0.00     0.237 C 
HETATM   11  C   UNL     1     -45.357  59.650 -53.324  1.00  0.00     0.069 C 
BRANCH   4  12
HETATM   12  C   UNL     1     -43.542  57.964 -53.194  1.00  0.00     0.251 C 
HETATM   13  N   UNL     1     -42.219  57.584 -53.184  1.00  0.00    -0.323 N 
HETATM   14  H   UNL     1     -41.481  58.222 -53.457  1.00  0.00     0.169 HD
HETATM   15  O   UNL     1     -44.469  57.240 -52.832  1.00  0.00    -0.270 OA
BRANCH  13  16
HETATM   16  C   UNL     1     -41.701  56.335 -52.755  1.00  0.00     0.068 A 
HETATM   17  C   UNL     1     -41.317  55.426 -53.764  1.00  0.00     0.097 A 
HETATM   18  C   UNL     1     -40.778  54.178 -53.417  1.00  0.00     0.075 A 
HETATM   19  C   UNL     1     -40.623  53.833 -52.072  1.00  0.00     0.070 A 
HETATM   20  C   UNL     1     -41.029  54.725 -51.083  1.00  0.00     0.039 A 
HETATM   21  C   UNL     1     -41.561  55.971 -51.417  1.00  0.00     0.035 A 
BRANCH  17  22
HETATM   22  O   UNL     1     -41.489  55.885 -55.053  1.00  0.00    -0.354 OA
HETATM   23  C   UNL     1     -42.387  55.149 -55.880  1.00  0.00     0.210 C 
ENDBRANCH  17  22
BRANCH  19  24
HETATM   24  O   UNL     1     -40.106  52.661 -51.595  1.00  0.00    -0.356 OA
HETATM   25  C   UNL     1     -39.585  51.741 -52.545  1.00  0.00     0.210 C 
ENDBRANCH  19  24
ENDBRANCH  13  16
ENDBRANCH   4  12
ENDBRANCH   1   4
BRANCH   1  26
HETATM   26  C   UNL     1     -44.416  58.363 -56.007  1.00  0.00     0.192 C 
BRANCH  26  27
HETATM   27  C   UNL     1     -45.600  58.904 -56.710  1.00  0.00     0.070 A 
HETATM   28  O   UNL     1     -45.778  60.249 -56.554  1.00  0.00    -0.325 OA
HETATM   29  C   UNL     1     -46.896  60.590 -57.240  1.00  0.00     0.142 A 
HETATM   30  C   UNL     1     -47.443  59.482 -57.841  1.00  0.00     0.027 A 
HETATM   31  C   UNL     1     -46.610  58.390 -57.498  1.00  0.00     0.036 A 
ENDBRANCH  26  27
ENDBRANCH   1  26
BRANCH   2  32
HETATM   32  C   UNL     1     -42.682  60.511 -57.175  1.00  0.00     0.228 C 
BRANCH  32  33
HETATM   33  N   UNL     1     -42.391  59.697 -58.341  1.00  0.00    -0.347 N 
HETATM   34  C   UNL     1     -42.365  60.096 -59.674  1.00  0.00     0.171 C 
HETATM   35  S   UNL     1     -42.633  61.597 -60.314  1.00  0.00    -0.041 SA
HETATM   36  N   UNL     1     -42.092  58.979 -60.448  1.00  0.00    -0.357 N 
HETATM   37  C   UNL     1     -42.046  57.770 -59.653  1.00  0.00     0.135 C 
HETATM   38  H   UNL     1     -42.146  58.998 -61.458  1.00  0.00     0.162 HD
HETATM   39  C   UNL     1     -41.975  58.310 -58.215  1.00  0.00     0.155 C 
BRANCH  37  40
HETATM   40  C   UNL     1     -43.249  56.874 -59.874  1.00  0.00    -0.034 A 
HETATM   41  C   UNL     1     -43.164  55.511 -59.546  1.00  0.00     0.009 A 
HETATM   42  C   UNL     1     -44.269  54.669 -59.693  1.00  0.00     0.001 A 
HETATM   43  C   UNL     1     -45.475  55.176 -60.168  1.00  0.00     0.000 A 
HETATM   44  C   UNL     1     -45.579  56.525 -60.496  1.00  0.00     0.001 A 
HETATM   45  C   UNL     1     -44.476  57.368 -60.348  1.00  0.00     0.009 A 
ENDBRANCH  37  40
ENDBRANCH  32  33
ENDBRANCH   2  32
TORSDOF 10
ENDMDL
MODEL 4
REMARK VINA RESULT:      -7.8      2.665      8.898
REMARK  10 active torsions:
REMARK  status: ('A' for Active; 'I' for Inactive)
REMARK    1  A    between atoms: C_6  and  N_7 
REMARK    2  A    between atoms: C_6  and  C_29 
REMARK       I    between atoms: N_7  and  C_8 
REMARK    3  A    between atoms: N_7  and  C_23 
REMARK    4  A    between atoms: C_8  and  C_9 
REMARK    5  A    between atoms: C_9  and  N_10 
REMARK    6  A    between atoms: C_14  and  C_15 
REMARK    7  A    between atoms: C_23  and  C_24 
REMARK       I    between atoms: C_29  and  N_30 
REMARK    8  A    between atoms: N_30  and  C_31 
REMARK    9  A    between atoms: C_32  and  O_33 
REMARK   10  A    between atoms: C_36  and  O_37 
ROOT
HETATM    1  N   UNL     1     -43.665  57.694 -54.409  1.00  0.00    -0.326 N 
HETATM    2  C   UNL     1     -42.643  57.331 -53.517  1.00  0.00     0.239 C 
HETATM    3  O   UNL     1     -41.757  58.119 -53.196  1.00  0.00    -0.271 OA
ENDROOT
BRANCH   1   4
HETATM    4  C   UNL     1     -43.411  58.697 -55.505  1.00  0.00     0.120 C 
HETATM    5  C   UNL     1     -43.292  60.140 -54.977  1.00  0.00     0.069 C 
HETATM    6  C   UNL     1     -43.024  61.150 -56.089  1.00  0.00     0.237 C 
HETATM    7  N   UNL     1     -41.790  60.776 -56.857  1.00  0.00    -0.075 N 
HETATM    8  C   UNL     1     -41.491  61.786 -57.938  1.00  0.00     0.269 C 
HETATM    9  H   UNL     1     -40.991  60.808 -56.206  1.00  0.00     0.279 HD
HETATM   10  C   UNL     1     -41.837  59.373 -57.419  1.00  0.00     0.237 C 
HETATM   11  C   UNL     1     -42.082  58.391 -56.279  1.00  0.00     0.069 C 
BRANCH   4  12
HETATM   12  C   UNL     1     -44.543  58.491 -56.577  1.00  0.00     0.251 C 
HETATM   13  N   UNL     1     -44.292  57.580 -57.578  1.00  0.00    -0.323 N 
HETATM   14  H   UNL     1     -43.441  57.030 -57.595  1.00  0.00     0.169 HD
HETATM   15  O   UNL     1     -45.578  59.150 -56.490  1.00  0.00    -0.270 OA
BRANCH  13  16
HETATM   16  C   UNL     1     -45.158  57.239 -58.648  1.00  0.00     0.068 A 
HETATM   17  C   UNL     1     -44.688  56.274 -59.564  1.00  0.00     0.097 A 
HETATM   18  C   UNL     1     -45.498  55.871 -60.637  1.00  0.00     0.075 A 
HETATM   19  C   UNL     1     -46.769  56.427 -60.801  1.00  0.00     0.070 A 
HETATM   20  C   UNL     1     -47.214  57.398 -59.907  1.00  0.00     0.039 A 
HETATM   21  C   UNL     1     -46.420  57.802 -58.834  1.00  0.00     0.035 A 
BRANCH  17  22
HETATM   22  O   UNL     1     -43.433  55.774 -59.286  1.00  0.00    -0.354 OA
HETATM   23  C   UNL     1     -42.336  56.393 -59.953  1.00  0.00     0.210 C 
ENDBRANCH  17  22
BRANCH  19  24
HETATM   24  O   UNL     1     -47.661  56.121 -61.790  1.00  0.00    -0.356 OA
HETATM   25  C   UNL     1     -48.413  57.191 -62.346  1.00  0.00     0.210 C 
ENDBRANCH  19  24
ENDBRANCH  13  16
ENDBRANCH   4  12
ENDBRANCH   1   4
BRANCH   1  26
HETATM   26  C   UNL     1     -45.022  57.556 -53.861  1.00  0.00     0.192 C 
BRANCH  26  27
HETATM   27  C   UNL     1     -45.237  58.312 -52.607  1.00  0.00     0.070 A 
HETATM   28  O   UNL     1     -45.642  59.603 -52.793  1.00  0.00    -0.325 OA
HETATM   29  C   UNL     1     -45.785  60.162 -51.567  1.00  0.00     0.142 A 
HETATM   30  C   UNL     1     -45.481  59.247 -50.588  1.00  0.00     0.027 A 
HETATM   31  C   UNL     1     -45.123  58.052 -51.256  1.00  0.00     0.036 A 
ENDBRANCH  26  27
ENDBRANCH   1  26
BRANCH   2  32
HETATM   32  C   UNL     1     -42.685  55.845 -53.090  1.00  0.00     0.228 C 
BRANCH  32  33
HETATM   33  N   UNL     1     -41.806  54.965 -53.839  1.00  0.00    -0.347 N 
HETATM   34  C   UNL     1     -42.070  54.323 -55.045  1.00  0.00     0.171 C 
HETATM   35  S   UNL     1     -43.433  54.385 -55.979  1.00  0.00    -0.041 SA
HETATM   36  N   UNL     1     -40.966  53.547 -55.364  1.00  0.00    -0.357 N 
HETATM   37  C   UNL     1     -39.976  53.559 -54.309  1.00  0.00     0.135 C 
HETATM   38  H   UNL     1     -40.974  52.890 -56.135  1.00  0.00     0.162 HD
HETATM   39  C   UNL     1     -40.433  54.730 -53.424  1.00  0.00     0.155 C 
BRANCH  37  40
HETATM   40  C   UNL     1     -39.911  52.249 -53.547  1.00  0.00    -0.034 A 
HETATM   41  C   UNL     1     -39.953  51.036 -54.253  1.00  0.00     0.009 A 
HETATM   42  C   UNL     1     -39.847  49.814 -53.584  1.00  0.00     0.001 A 
HETATM   43  C   UNL     1     -39.696  49.786 -52.200  1.00  0.00     0.000 A 
HETATM   44  C   UNL     1     -39.650  50.979 -51.483  1.00  0.00     0.001 A 
HETATM   45  C   UNL     1     -39.753  52.201 -52.151  1.00  0.00     0.009 A 
ENDBRANCH  37  40
ENDBRANCH  32  33
ENDBRANCH   2  32
TORSDOF 10
ENDMDL
MODEL 5
REMARK VINA RESULT:      -7.7      3.089      8.118
REMARK  10 active torsions:
REMARK  status: ('A' for Active; 'I' for Inactive)
REMARK    1  A    between atoms: C_6  and  N_7 
REMARK    2  A    between atoms: C_6  and  C_29 
REMARK       I    between atoms: N_7  and  C_8 
REMARK    3  A    between atoms: N_7  and  C_23 
REMARK    4  A    between atoms: C_8  and  C_9 
REMARK    5  A    between atoms: C_9  and  N_10 
REMARK    6  A    between atoms: C_14  and  C_15 
REMARK    7  A    between atoms: C_23  and  C_24 
REMARK       I    between atoms: C_29  and  N_30 
REMARK    8  A    between atoms: N_30  and  C_31 
REMARK    9  A    between atoms: C_32  and  O_33 
REMARK   10  A    between atoms: C_36  and  O_37 
ROOT
HETATM    1  N   UNL     1     -43.665  58.547 -57.064  1.00  0.00    -0.326 N 
HETATM    2  C   UNL     1     -43.848  57.436 -56.225  1.00  0.00     0.239 C 
HETATM    3  O   UNL     1     -44.914  57.230 -55.651  1.00  0.00    -0.271 OA
ENDROOT
BRANCH   1   4
HETATM    4  C   UNL     1     -44.397  59.839 -56.804  1.00  0.00     0.120 C 
HETATM    5  C   UNL     1     -43.897  60.997 -57.689  1.00  0.00     0.069 C 
HETATM    6  C   UNL     1     -44.648  62.299 -57.428  1.00  0.00     0.237 C 
HETATM    7  N   UNL     1     -46.124  62.105 -57.615  1.00  0.00    -0.075 N 
HETATM    8  C   UNL     1     -46.879  63.393 -57.396  1.00  0.00     0.269 C 
HETATM    9  H   UNL     1     -46.287  61.841 -58.599  1.00  0.00     0.279 HD
HETATM   10  C   UNL     1     -46.693  60.989 -56.767  1.00  0.00     0.237 C 
HETATM   11  C   UNL     1     -45.935  59.701 -57.071  1.00  0.00     0.069 C 
BRANCH   4  12
HETATM   12  C   UNL     1     -44.292  60.113 -55.259  1.00  0.00     0.251 C 
HETATM   13  N   UNL     1     -45.372  59.745 -54.488  1.00  0.00    -0.323 N 
HETATM   14  H   UNL     1     -46.175  59.273 -54.889  1.00  0.00     0.169 HD
HETATM   15  O   UNL     1     -43.278  60.648 -54.812  1.00  0.00    -0.270 OA
BRANCH  13  16
HETATM   16  C   UNL     1     -45.502  59.901 -53.085  1.00  0.00     0.068 A 
HETATM   17  C   UNL     1     -46.157  61.066 -52.632  1.00  0.00     0.097 A 
HETATM   18  C   UNL     1     -46.341  61.279 -51.258  1.00  0.00     0.075 A 
HETATM   19  C   UNL     1     -45.872  60.341 -50.336  1.00  0.00     0.070 A 
HETATM   20  C   UNL     1     -45.203  59.206 -50.790  1.00  0.00     0.039 A 
HETATM   21  C   UNL     1     -45.021  58.981 -52.154  1.00  0.00     0.035 A 
BRANCH  17  22
HETATM   22  O   UNL     1     -46.602  61.906 -53.631  1.00  0.00    -0.354 OA
HETATM   23  C   UNL     1     -46.200  63.271 -53.546  1.00  0.00     0.210 C 
ENDBRANCH  17  22
BRANCH  19  24
HETATM   24  O   UNL     1     -45.991  60.417 -48.976  1.00  0.00    -0.356 OA
HETATM   25  C   UNL     1     -45.466  61.573 -48.338  1.00  0.00     0.210 C 
ENDBRANCH  19  24
ENDBRANCH  13  16
ENDBRANCH   4  12
ENDBRANCH   1   4
BRANCH   1  26
HETATM   26  C   UNL     1     -43.275  58.206 -58.440  1.00  0.00     0.192 C 
BRANCH  26  27
HETATM   27  C   UNL     1     -44.163  57.211 -59.081  1.00  0.00     0.070 A 
HETATM   28  O   UNL     1     -43.560  56.015 -59.352  1.00  0.00    -0.325 OA
HETATM   29  C   UNL     1     -44.486  55.220 -59.940  1.00  0.00     0.142 A 
HETATM   30  C   UNL     1     -45.684  55.885 -60.050  1.00  0.00     0.027 A 
HETATM   31  C   UNL     1     -45.477  57.172 -59.499  1.00  0.00     0.036 A 
ENDBRANCH  26  27
ENDBRANCH   1  26
BRANCH   2  32
HETATM   32  C   UNL     1     -42.568  56.595 -56.015  1.00  0.00     0.228 C 
BRANCH  32  33
HETATM   33  N   UNL     1     -42.398  56.058 -54.676  1.00  0.00    -0.347 N 
HETATM   34  C   UNL     1     -41.749  56.649 -53.597  1.00  0.00     0.171 C 
HETATM   35  S   UNL     1     -41.006  58.124 -53.512  1.00  0.00    -0.041 SA
HETATM   36  N   UNL     1     -41.788  55.757 -52.536  1.00  0.00    -0.357 N 
HETATM   37  C   UNL     1     -42.366  54.487 -52.921  1.00  0.00     0.135 C 
HETATM   38  H   UNL     1     -41.271  55.915 -51.680  1.00  0.00     0.162 HD
HETATM   39  C   UNL     1     -43.017  54.805 -54.277  1.00  0.00     0.155 C 
BRANCH  37  40
HETATM   40  C   UNL     1     -41.338  53.378 -53.020  1.00  0.00    -0.034 A 
HETATM   41  C   UNL     1     -40.565  53.050 -51.894  1.00  0.00     0.009 A 
HETATM   42  C   UNL     1     -39.642  52.001 -51.939  1.00  0.00     0.001 A 
HETATM   43  C   UNL     1     -39.481  51.263 -53.108  1.00  0.00     0.000 A 
HETATM   44  C   UNL     1     -40.240  51.572 -54.234  1.00  0.00     0.001 A 
HETATM   45  C   UNL     1     -41.163  52.619 -54.189  1.00  0.00     0.009 A 
ENDBRANCH  37  40
ENDBRANCH  32  33
ENDBRANCH   2  32
TORSDOF 10
ENDMDL
MODEL 6
REMARK VINA RESULT:      -7.7      2.896      8.522
REMARK  10 active torsions:
REMARK  status: ('A' for Active; 'I' for Inactive)
REMARK    1  A    between atoms: C_6  and  N_7 
REMARK    2  A    between atoms: C_6  and  C_29 
REMARK       I    between atoms: N_7  and  C_8 
REMARK    3  A    between atoms: N_7  and  C_23 
REMARK    4  A    between atoms: C_8  and  C_9 
REMARK    5  A    between atoms: C_9  and  N_10 
REMARK    6  A    between atoms: C_14  and  C_15 
REMARK    7  A    between atoms: C_23  and  C_24 
REMARK       I    between atoms: C_29  and  N_30 
REMARK    8  A    between atoms: N_30  and  C_31 
REMARK    9  A    between atoms: C_32  and  O_33 
REMARK   10  A    between atoms: C_36  and  O_37 
ROOT
HETATM    1  N   UNL     1     -43.586  59.676 -54.481  1.00  0.00    -0.326 N 
HETATM    2  C   UNL     1     -42.559  59.429 -53.555  1.00  0.00     0.239 C 
HETATM    3  O   UNL     1     -41.653  60.236 -53.366  1.00  0.00    -0.271 OA
ENDROOT
BRANCH   1   4
HETATM    4  C   UNL     1     -43.326  60.497 -55.718  1.00  0.00     0.120 C 
HETATM    5  C   UNL     1     -43.434  62.013 -55.462  1.00  0.00     0.069 C 
HETATM    6  C   UNL     1     -43.160  62.839 -56.715  1.00  0.00     0.237 C 
HETATM    7  N   UNL     1     -41.812  62.505 -57.285  1.00  0.00    -0.075 N 
HETATM    8  C   UNL     1     -41.510  63.341 -58.504  1.00  0.00     0.269 C 
HETATM    9  H   UNL     1     -41.100  62.757 -56.581  1.00  0.00     0.279 HD
HETATM   10  C   UNL     1     -41.634  61.032 -57.575  1.00  0.00     0.237 C 
HETATM   11  C   UNL     1     -41.892  60.241 -56.298  1.00  0.00     0.069 C 
BRANCH   4  12
HETATM   12  C   UNL     1     -44.298  59.957 -56.830  1.00  0.00     0.251 C 
HETATM   13  N   UNL     1     -44.061  58.684 -57.298  1.00  0.00    -0.323 N 
HETATM   14  H   UNL     1     -43.328  58.104 -56.908  1.00  0.00     0.169 HD
HETATM   15  O   UNL     1     -45.202  60.684 -57.241  1.00  0.00    -0.270 OA
BRANCH  13  16
HETATM   16  C   UNL     1     -44.799  57.999 -58.297  1.00  0.00     0.068 A 
HETATM   17  C   UNL     1     -44.059  57.418 -59.348  1.00  0.00     0.097 A 
HETATM   18  C   UNL     1     -44.719  56.707 -60.362  1.00  0.00     0.075 A 
HETATM   19  C   UNL     1     -46.109  56.576 -60.333  1.00  0.00     0.070 A 
HETATM   20  C   UNL     1     -46.834  57.176 -59.306  1.00  0.00     0.039 A 
HETATM   21  C   UNL     1     -46.188  57.880 -58.290  1.00  0.00     0.035 A 
BRANCH  17  22
HETATM   22  O   UNL     1     -42.693  57.586 -59.258  1.00  0.00    -0.354 OA
HETATM   23  C   UNL     1     -42.044  58.174 -60.383  1.00  0.00     0.210 C 
ENDBRANCH  17  22
BRANCH  19  24
HETATM   24  O   UNL     1     -46.875  55.906 -61.246  1.00  0.00    -0.356 OA
HETATM   25  C   UNL     1     -47.982  56.600 -61.805  1.00  0.00     0.210 C 
ENDBRANCH  19  24
ENDBRANCH  13  16
ENDBRANCH   4  12
ENDBRANCH   1   4
BRANCH   1  26
HETATM   26  C   UNL     1     -44.938  59.654 -53.904  1.00  0.00     0.192 C 
BRANCH  26  27
HETATM   27  C   UNL     1     -45.061  60.423 -52.646  1.00  0.00     0.070 A 
HETATM   28  O   UNL     1     -45.435  59.675 -51.566  1.00  0.00    -0.325 OA
HETATM   29  C   UNL     1     -45.514  60.511 -50.503  1.00  0.00     0.142 A 
HETATM   30  C   UNL     1     -45.191  61.793 -50.880  1.00  0.00     0.027 A 
HETATM   31  C   UNL     1     -44.902  61.740 -52.265  1.00  0.00     0.036 A 
ENDBRANCH  26  27
ENDBRANCH   1  26
BRANCH   2  32
HETATM   32  C   UNL     1     -42.627  58.026 -52.908  1.00  0.00     0.228 C 
BRANCH  32  33
HETATM   33  N   UNL     1     -42.267  56.927 -53.787  1.00  0.00    -0.347 N 
HETATM   34  C   UNL     1     -43.118  56.127 -54.543  1.00  0.00     0.171 C 
HETATM   35  S   UNL     1     -44.764  56.202 -54.681  1.00  0.00    -0.041 SA
HETATM   36  N   UNL     1     -42.345  55.174 -55.189  1.00  0.00    -0.357 N 
HETATM   37  C   UNL     1     -40.957  55.240 -54.781  1.00  0.00     0.135 C 
HETATM   38  H   UNL     1     -42.756  54.403 -55.699  1.00  0.00     0.162 HD
HETATM   39  C   UNL     1     -40.878  56.593 -54.055  1.00  0.00     0.155 C 
BRANCH  37  40
HETATM   40  C   UNL     1     -40.549  54.082 -53.892  1.00  0.00    -0.034 A 
HETATM   41  C   UNL     1     -40.614  54.227 -52.496  1.00  0.00     0.009 A 
HETATM   42  C   UNL     1     -40.290  53.163 -51.650  1.00  0.00     0.001 A 
HETATM   43  C   UNL     1     -39.900  51.939 -52.185  1.00  0.00     0.000 A 
HETATM   44  C   UNL     1     -39.832  51.776 -53.566  1.00  0.00     0.001 A 
HETATM   45  C   UNL     1     -40.157  52.838 -54.413  1.00  0.00     0.009 A 
ENDBRANCH  37  40
ENDBRANCH  32  33
ENDBRANCH   2  32
TORSDOF 10
ENDMDL
MODEL 7
REMARK VINA RESULT:      -7.6      1.859      2.999
REMARK  10 active torsions:
REMARK  status: ('A' for Active; 'I' for Inactive)
REMARK    1  A    between atoms: C_6  and  N_7 
REMARK    2  A    between atoms: C_6  and  C_29 
REMARK       I    between atoms: N_7  and  C_8 
REMARK    3  A    between atoms: N_7  and  C_23 
REMARK    4  A    between atoms: C_8  and  C_9 
REMARK    5  A    between atoms: C_9  and  N_10 
REMARK    6  A    between atoms: C_14  and  C_15 
REMARK    7  A    between atoms: C_23  and  C_24 
REMARK       I    between atoms: C_29  and  N_30 
REMARK    8  A    between atoms: N_30  and  C_31 
REMARK    9  A    between atoms: C_32  and  O_33 
REMARK   10  A    between atoms: C_36  and  O_37 
ROOT
HETATM    1  N   UNL     1     -42.460  57.603 -55.825  1.00  0.00    -0.326 N 
HETATM    2  C   UNL     1     -43.617  57.006 -56.353  1.00  0.00     0.239 C 
HETATM    3  O   UNL     1     -44.666  56.957 -55.716  1.00  0.00    -0.271 OA
ENDROOT
BRANCH   1   4
HETATM    4  C   UNL     1     -42.192  57.583 -54.342  1.00  0.00     0.120 C 
HETATM    5  C   UNL     1     -40.968  58.433 -53.945  1.00  0.00     0.069 C 
HETATM    6  C   UNL     1     -40.708  58.418 -52.442  1.00  0.00     0.237 C 
HETATM    7  N   UNL     1     -41.923  58.877 -51.690  1.00  0.00    -0.075 N 
HETATM    8  C   UNL     1     -41.669  58.903 -50.203  1.00  0.00     0.269 C 
HETATM    9  H   UNL     1     -42.114  59.853 -51.965  1.00  0.00     0.279 HD
HETATM   10  C   UNL     1     -43.166  58.081 -52.017  1.00  0.00     0.237 C 
HETATM   11  C   UNL     1     -43.408  58.138 -53.522  1.00  0.00     0.069 C 
BRANCH   4  12
HETATM   12  C   UNL     1     -42.095  56.071 -53.921  1.00  0.00     0.251 C 
HETATM   13  N   UNL     1     -40.838  55.509 -53.910  1.00  0.00    -0.323 N 
HETATM   14  H   UNL     1     -40.010  56.056 -54.114  1.00  0.00     0.169 HD
HETATM   15  O   UNL     1     -43.125  55.460 -53.639  1.00  0.00    -0.270 OA
BRANCH  13  16
HETATM   16  C   UNL     1     -40.514  54.170 -53.572  1.00  0.00     0.068 A 
HETATM   17  C   UNL     1     -40.424  53.865 -52.197  1.00  0.00     0.097 A 
HETATM   18  C   UNL     1     -40.127  52.557 -51.786  1.00  0.00     0.075 A 
HETATM   19  C   UNL     1     -39.916  51.556 -52.737  1.00  0.00     0.070 A 
HETATM   20  C   UNL     1     -39.980  51.872 -54.093  1.00  0.00     0.039 A 
HETATM   21  C   UNL     1     -40.281  53.167 -54.512  1.00  0.00     0.035 A 
BRANCH  17  22
HETATM   22  O   UNL     1     -40.679  54.924 -51.351  1.00  0.00    -0.354 OA
HETATM   23  C   UNL     1     -41.726  54.744 -50.400  1.00  0.00     0.210 C 
ENDBRANCH  17  22
BRANCH  19  24
HETATM   24  O   UNL     1     -39.629  50.245 -52.478  1.00  0.00    -0.356 OA
HETATM   25  C   UNL     1     -39.542  49.852 -51.116  1.00  0.00     0.210 C 
ENDBRANCH  19  24
ENDBRANCH  13  16
ENDBRANCH   4  12
ENDBRANCH   1   4
BRANCH   1  26
HETATM   26  C   UNL     1     -41.923  58.703 -56.638  1.00  0.00     0.192 C 
BRANCH  26  27
HETATM   27  C   UNL     1     -42.804  59.891 -56.688  1.00  0.00     0.070 A 
HETATM   28  O   UNL     1     -42.508  60.848 -55.759  1.00  0.00    -0.325 OA
HETATM   29  C   UNL     1     -43.398  61.857 -55.921  1.00  0.00     0.142 A 
HETATM   30  C   UNL     1     -44.265  61.568 -56.946  1.00  0.00     0.027 A 
HETATM   31  C   UNL     1     -43.887  60.297 -57.442  1.00  0.00     0.036 A 
ENDBRANCH  26  27
ENDBRANCH   1  26
BRANCH   2  32
HETATM   32  C   UNL     1     -43.399  56.334 -57.729  1.00  0.00     0.228 C 
BRANCH  32  33
HETATM   33  N   UNL     1     -44.100  56.959 -58.836  1.00  0.00    -0.347 N 
HETATM   34  C   UNL     1     -43.550  57.649 -59.912  1.00  0.00     0.171 C 
HETATM   35  S   UNL     1     -41.959  57.939 -60.256  1.00  0.00    -0.041 SA
HETATM   36  N   UNL     1     -44.593  58.116 -60.696  1.00  0.00    -0.357 N 
HETATM   37  C   UNL     1     -45.882  57.850 -60.093  1.00  0.00     0.135 C 
HETATM   38  H   UNL     1     -44.443  58.753 -61.468  1.00  0.00     0.162 HD
HETATM   39  C   UNL     1     -45.540  56.835 -58.990  1.00  0.00     0.155 C 
BRANCH  37  40
HETATM   40  C   UNL     1     -46.545  59.098 -59.544  1.00  0.00    -0.034 A 
HETATM   41  C   UNL     1     -46.407  60.314 -60.234  1.00  0.00     0.009 A 
HETATM   42  C   UNL     1     -47.045  61.471 -59.780  1.00  0.00     0.001 A 
HETATM   43  C   UNL     1     -47.831  61.431 -58.632  1.00  0.00     0.000 A 
HETATM   44  C   UNL     1     -47.981  60.234 -57.936  1.00  0.00     0.001 A 
HETATM   45  C   UNL     1     -47.346  59.076 -58.390  1.00  0.00     0.009 A 
ENDBRANCH  37  40
ENDBRANCH  32  33
ENDBRANCH   2  32
TORSDOF 10
ENDMDL
MODEL 8
REMARK VINA RESULT:      -7.5      2.924      8.537
REMARK  10 active torsions:
REMARK  status: ('A' for Active; 'I' for Inactive)
REMARK    1  A    between atoms: C_6  and  N_7 
REMARK    2  A    between atoms: C_6  and  C_29 
REMARK       I    between atoms: N_7  and  C_8 
REMARK    3  A    between atoms: N_7  and  C_23 
REMARK    4  A    between atoms: C_8  and  C_9 
REMARK    5  A    between atoms: C_9  and  N_10 
REMARK    6  A    between atoms: C_14  and  C_15 
REMARK    7  A    between atoms: C_23  and  C_24 
REMARK       I    between atoms: C_29  and  N_30 
REMARK    8  A    between atoms: N_30  and  C_31 
REMARK    9  A    between atoms: C_32  and  O_33 
REMARK   10  A    between atoms: C_36  and  O_37 
ROOT
HETATM    1  N   UNL     1     -43.130  57.864 -58.065  1.00  0.00    -0.326 N 
HETATM    2  C   UNL     1     -43.272  57.278 -56.796  1.00  0.00     0.239 C 
HETATM    3  O   UNL     1     -44.361  57.217 -56.231  1.00  0.00    -0.271 OA
ENDROOT
BRANCH   1   4
HETATM    4  C   UNL     1     -44.026  58.997 -58.494  1.00  0.00     0.120 C 
HETATM    5  C   UNL     1     -43.770  59.443 -59.947  1.00  0.00     0.069 C 
HETATM    6  C   UNL     1     -44.687  60.584 -60.379  1.00  0.00     0.237 C 
HETATM    7  N   UNL     1     -46.127  60.202 -60.201  1.00  0.00    -0.075 N 
HETATM    8  C   UNL     1     -47.047  61.307 -60.658  1.00  0.00     0.269 C 
HETATM    9  H   UNL     1     -46.319  59.396 -60.816  1.00  0.00     0.279 HD
HETATM   10  C   UNL     1     -46.460  59.763 -58.793  1.00  0.00     0.237 C 
HETATM   11  C   UNL     1     -45.542  58.609 -58.404  1.00  0.00     0.069 C 
BRANCH   4  12
HETATM   12  C   UNL     1     -43.852  60.138 -57.426  1.00  0.00     0.251 C 
HETATM   13  N   UNL     1     -44.815  60.223 -56.445  1.00  0.00    -0.323 N 
HETATM   14  H   UNL     1     -45.570  59.551 -56.384  1.00  0.00     0.169 HD
HETATM   15  O   UNL     1     -42.893  60.904 -57.517  1.00  0.00    -0.270 OA
BRANCH  13  16
HETATM   16  C   UNL     1     -44.866  61.170 -55.390  1.00  0.00     0.068 A 
HETATM   17  C   UNL     1     -44.515  60.708 -54.104  1.00  0.00     0.097 A 
HETATM   18  C   UNL     1     -44.522  61.592 -53.014  1.00  0.00     0.075 A 
HETATM   19  C   UNL     1     -44.881  62.928 -53.201  1.00  0.00     0.070 A 
HETATM   20  C   UNL     1     -45.252  63.370 -54.469  1.00  0.00     0.039 A 
HETATM   21  C   UNL     1     -45.242  62.501 -55.560  1.00  0.00     0.035 A 
BRANCH  17  22
HETATM   22  O   UNL     1     -44.151  59.379 -54.045  1.00  0.00    -0.354 OA
HETATM   23  C   UNL     1     -44.782  58.586 -53.042  1.00  0.00     0.210 C 
ENDBRANCH  17  22
BRANCH  19  24
HETATM   24  O   UNL     1     -44.922  63.895 -52.234  1.00  0.00    -0.356 OA
HETATM   25  C   UNL     1     -45.772  63.668 -51.118  1.00  0.00     0.210 C 
ENDBRANCH  19  24
ENDBRANCH  13  16
ENDBRANCH   4  12
ENDBRANCH   1   4
BRANCH   1  26
HETATM   26  C   UNL     1     -42.567  56.967 -59.085  1.00  0.00     0.192 C 
BRANCH  26  27
HETATM   27  C   UNL     1     -43.500  55.905 -59.525  1.00  0.00     0.070 A 
HETATM   28  O   UNL     1     -44.047  56.116 -60.758  1.00  0.00    -0.325 OA
HETATM   29  C   UNL     1     -44.878  55.076 -61.014  1.00  0.00     0.142 A 
HETATM   30  C   UNL     1     -44.872  54.192 -59.962  1.00  0.00     0.027 A 
HETATM   31  C   UNL     1     -43.986  54.726 -58.997  1.00  0.00     0.036 A 
ENDBRANCH  26  27
ENDBRANCH   1  26
BRANCH   2  32
HETATM   32  C   UNL     1     -41.932  56.840 -56.159  1.00  0.00     0.228 C 
BRANCH  32  33
HETATM   33  N   UNL     1     -42.050  56.194 -54.864  1.00  0.00    -0.347 N 
HETATM   34  C   UNL     1     -41.654  56.689 -53.626  1.00  0.00     0.171 C 
HETATM   35  S   UNL     1     -40.960  58.145 -53.263  1.00  0.00    -0.041 SA
HETATM   36  N   UNL     1     -41.913  55.714 -52.674  1.00  0.00    -0.357 N 
HETATM   37  C   UNL     1     -42.384  54.485 -53.277  1.00  0.00     0.135 C 
HETATM   38  H   UNL     1     -41.594  55.797 -51.717  1.00  0.00     0.162 HD
HETATM   39  C   UNL     1     -42.730  54.918 -54.711  1.00  0.00     0.155 C 
BRANCH  37  40
HETATM   40  C   UNL     1     -41.349  53.378 -53.242  1.00  0.00    -0.034 A 
HETATM   41  C   UNL     1     -40.622  53.148 -52.063  1.00  0.00     0.009 A 
HETATM   42  C   UNL     1     -39.696  52.105 -51.984  1.00  0.00     0.001 A 
HETATM   43  C   UNL     1     -39.483  51.275 -53.082  1.00  0.00     0.000 A 
HETATM   44  C   UNL     1     -40.196  51.486 -54.259  1.00  0.00     0.001 A 
HETATM   45  C   UNL     1     -41.124  52.527 -54.338  1.00  0.00     0.009 A 
ENDBRANCH  37  40
ENDBRANCH  32  33
ENDBRANCH   2  32
TORSDOF 10
ENDMDL
MODEL 9
REMARK VINA RESULT:      -7.4      2.704      9.183
REMARK  10 active torsions:
REMARK  status: ('A' for Active; 'I' for Inactive)
REMARK    1  A    between atoms: C_6  and  N_7 
REMARK    2  A    between atoms: C_6  and  C_29 
REMARK       I    between atoms: N_7  and  C_8 
REMARK    3  A    between atoms: N_7  and  C_23 
REMARK    4  A    between atoms: C_8  and  C_9 
REMARK    5  A    between atoms: C_9  and  N_10 
REMARK    6  A    between atoms: C_14  and  C_15 
REMARK    7  A    between atoms: C_23  and  C_24 
REMARK       I    between atoms: C_29  and  N_30 
REMARK    8  A    between atoms: N_30  and  C_31 
REMARK    9  A    between atoms: C_32  and  O_33 
REMARK   10  A    between atoms: C_36  and  O_37 
ROOT
HETATM    1  N   UNL     1     -43.404  57.488 -56.529  1.00  0.00    -0.326 N 
HETATM    2  C   UNL     1     -43.990  57.551 -55.254  1.00  0.00     0.239 C 
HETATM    3  O   UNL     1     -45.108  57.093 -55.035  1.00  0.00    -0.271 OA
ENDROOT
BRANCH   1   4
HETATM    4  C   UNL     1     -44.256  57.525 -57.771  1.00  0.00     0.120 C 
HETATM    5  C   UNL     1     -44.107  56.257 -58.635  1.00  0.00     0.069 C 
HETATM    6  C   UNL     1     -44.980  56.295 -59.886  1.00  0.00     0.237 C 
HETATM    7  N   UNL     1     -46.420  56.506 -59.520  1.00  0.00    -0.075 N 
HETATM    8  C   UNL     1     -47.302  56.510 -60.745  1.00  0.00     0.269 C 
HETATM    9  H   UNL     1     -46.723  55.700 -58.951  1.00  0.00     0.279 HD
HETATM   10  C   UNL     1     -46.649  57.742 -58.680  1.00  0.00     0.237 C 
HETATM   11  C   UNL     1     -45.780  57.658 -57.430  1.00  0.00     0.069 C 
BRANCH   4  12
HETATM   12  C   UNL     1     -43.906  58.863 -58.520  1.00  0.00     0.251 C 
HETATM   13  N   UNL     1     -42.633  58.973 -59.034  1.00  0.00    -0.323 N 
HETATM   14  H   UNL     1     -41.971  58.208 -58.978  1.00  0.00     0.169 HD
HETATM   15  O   UNL     1     -44.759  59.746 -58.600  1.00  0.00    -0.270 OA
BRANCH  13  16
HETATM   16  C   UNL     1     -42.098  60.083 -59.736  1.00  0.00     0.068 A 
HETATM   17  C   UNL     1     -41.429  61.059 -58.967  1.00  0.00     0.097 A 
HETATM   18  C   UNL     1     -40.855  62.175 -59.595  1.00  0.00     0.075 A 
HETATM   19  C   UNL     1     -40.949  62.322 -60.981  1.00  0.00     0.070 A 
HETATM   20  C   UNL     1     -41.634  61.368 -61.729  1.00  0.00     0.039 A 
HETATM   21  C   UNL     1     -42.202  60.251 -61.116  1.00  0.00     0.035 A 
BRANCH  17  22
HETATM   22  O   UNL     1     -41.374  60.794 -57.615  1.00  0.00    -0.354 OA
HETATM   23  C   UNL     1     -42.253  61.544 -56.780  1.00  0.00     0.210 C 
ENDBRANCH  17  22
BRANCH  19  24
HETATM   24  O   UNL     1     -40.431  63.350 -61.719  1.00  0.00    -0.356 OA
HETATM   25  C   UNL     1     -39.414  63.031 -62.660  1.00  0.00     0.210 C 
ENDBRANCH  19  24
ENDBRANCH  13  16
ENDBRANCH   4  12
ENDBRANCH   1   4
BRANCH   1  26
HETATM   26  C   UNL     1     -42.110  56.790 -56.565  1.00  0.00     0.192 C 
BRANCH  26  27
HETATM   27  C   UNL     1     -42.098  55.520 -55.805  1.00  0.00     0.070 A 
HETATM   28  O   UNL     1     -40.967  55.321 -55.066  1.00  0.00    -0.325 OA
HETATM   29  C   UNL     1     -41.098  54.125 -54.443  1.00  0.00     0.142 A 
HETATM   30  C   UNL     1     -42.303  53.548 -54.766  1.00  0.00     0.027 A 
HETATM   31  C   UNL     1     -42.950  54.446 -55.649  1.00  0.00     0.036 A 
ENDBRANCH  26  27
ENDBRANCH   1  26
BRANCH   2  32
HETATM   32  C   UNL     1     -43.152  58.340 -54.221  1.00  0.00     0.228 C 
BRANCH  32  33
HETATM   33  N   UNL     1     -43.272  57.876 -52.850  1.00  0.00    -0.347 N 
HETATM   34  C   UNL     1     -43.034  58.596 -51.684  1.00  0.00     0.171 C 
HETATM   35  S   UNL     1     -42.568  60.173 -51.513  1.00  0.00    -0.041 SA
HETATM   36  N   UNL     1     -43.225  57.741 -50.609  1.00  0.00    -0.357 N 
HETATM   37  C   UNL     1     -43.484  56.383 -51.040  1.00  0.00     0.135 C 
HETATM   38  H   UNL     1     -42.988  58.005 -49.661  1.00  0.00     0.162 HD
HETATM   39  C   UNL     1     -43.784  56.552 -52.539  1.00  0.00     0.155 C 
BRANCH  37  40
HETATM   40  C   UNL     1     -42.314  55.452 -50.787  1.00  0.00    -0.034 A 
HETATM   41  C   UNL     1     -41.181  55.934 -50.112  1.00  0.00     0.009 A 
HETATM   42  C   UNL     1     -40.107  55.089 -49.821  1.00  0.00     0.001 A 
HETATM   43  C   UNL     1     -40.151  53.749 -50.198  1.00  0.00     0.000 A 
HETATM   44  C   UNL     1     -41.268  53.253 -50.866  1.00  0.00     0.001 A 
HETATM   45  C   UNL     1     -42.342  54.096 -51.155  1.00  0.00     0.009 A 
ENDBRANCH  37  40
ENDBRANCH  32  33
ENDBRANCH   2  32
TORSDOF 10
ENDMDL
MODEL 10
REMARK VINA RESULT:      -7.3      3.288      8.692
REMARK  10 active torsions:
REMARK  status: ('A' for Active; 'I' for Inactive)
REMARK    1  A    between atoms: C_6  and  N_7 
REMARK    2  A    between atoms: C_6  and  C_29 
REMARK       I    between atoms: N_7  and  C_8 
REMARK    3  A    between atoms: N_7  and  C_23 
REMARK    4  A    between atoms: C_8  and  C_9 
REMARK    5  A    between atoms: C_9  and  N_10 
REMARK    6  A    between atoms: C_14  and  C_15 
REMARK    7  A    between atoms: C_23  and  C_24 
REMARK       I    between atoms: C_29  and  N_30 
REMARK    8  A    between atoms: N_30  and  C_31 
REMARK    9  A    between atoms: C_32  and  O_33 
REMARK   10  A    between atoms: C_36  and  O_37 
ROOT
HETATM    1  N   UNL     1     -42.681  59.439 -54.241  1.00  0.00    -0.326 N 
HETATM    2  C   UNL     1     -42.067  58.443 -55.019  1.00  0.00     0.239 C 
HETATM    3  O   UNL     1     -42.253  58.365 -56.231  1.00  0.00    -0.271 OA
ENDROOT
BRANCH   1   4
HETATM    4  C   UNL     1     -44.034  59.985 -54.617  1.00  0.00     0.120 C 
HETATM    5  C   UNL     1     -44.871  60.401 -53.392  1.00  0.00     0.069 C 
HETATM    6  C   UNL     1     -46.236  60.963 -53.779  1.00  0.00     0.237 C 
HETATM    7  N   UNL     1     -46.083  62.122 -54.720  1.00  0.00    -0.075 N 
HETATM    8  C   UNL     1     -47.424  62.713 -55.084  1.00  0.00     0.269 C 
HETATM    9  H   UNL     1     -45.568  62.866 -54.225  1.00  0.00     0.279 HD
HETATM   10  C   UNL     1     -45.281  61.787 -55.957  1.00  0.00     0.237 C 
HETATM   11  C   UNL     1     -43.918  61.252 -55.533  1.00  0.00     0.069 C 
BRANCH   4  12
HETATM   12  C   UNL     1     -44.718  58.904 -55.532  1.00  0.00     0.251 C 
HETATM   13  N   UNL     1     -44.760  59.170 -56.883  1.00  0.00    -0.323 N 
HETATM   14  H   UNL     1     -44.324  59.997 -57.275  1.00  0.00     0.169 HD
HETATM   15  O   UNL     1     -45.194  57.894 -55.015  1.00  0.00    -0.270 OA
BRANCH  13  16
HETATM   16  C   UNL     1     -45.329  58.348 -57.889  1.00  0.00     0.068 A 
HETATM   17  C   UNL     1     -46.667  58.616 -58.248  1.00  0.00     0.097 A 
HETATM   18  C   UNL     1     -47.291  57.858 -59.250  1.00  0.00     0.075 A 
HETATM   19  C   UNL     1     -46.589  56.835 -59.891  1.00  0.00     0.070 A 
HETATM   20  C   UNL     1     -45.277  56.560 -59.513  1.00  0.00     0.039 A 
HETATM   21  C   UNL     1     -44.645  57.311 -58.522  1.00  0.00     0.035 A 
BRANCH  17  22
HETATM   22  O   UNL     1     -47.249  59.666 -57.569  1.00  0.00    -0.354 OA
HETATM   23  C   UNL     1     -47.888  60.665 -58.362  1.00  0.00     0.210 C 
ENDBRANCH  17  22
BRANCH  19  24
HETATM   24  O   UNL     1     -47.068  56.029 -60.886  1.00  0.00    -0.356 OA
HETATM   25  C   UNL     1     -47.952  56.614 -61.832  1.00  0.00     0.210 C 
ENDBRANCH  19  24
ENDBRANCH  13  16
ENDBRANCH   4  12
ENDBRANCH   1   4
BRANCH   1  26
HETATM   26  C   UNL     1     -41.740  60.294 -53.504  1.00  0.00     0.192 C 
BRANCH  26  27
HETATM   27  C   UNL     1     -41.415  59.793 -52.150  1.00  0.00     0.070 A 
HETATM   28  O   UNL     1     -40.102  59.462 -51.974  1.00  0.00    -0.325 OA
HETATM   29  C   UNL     1     -39.965  59.015 -50.703  1.00  0.00     0.142 A 
HETATM   30  C   UNL     1     -41.173  59.056 -50.050  1.00  0.00     0.027 A 
HETATM   31  C   UNL     1     -42.113  59.555 -50.983  1.00  0.00     0.036 A 
ENDBRANCH  26  27
ENDBRANCH   1  26
BRANCH   2  32
HETATM   32  C   UNL     1     -41.256  57.418 -54.193  1.00  0.00     0.228 C 
BRANCH  32  33
HETATM   33  N   UNL     1     -41.845  56.093 -54.108  1.00  0.00    -0.347 N 
HETATM   34  C   UNL     1     -42.879  55.672 -53.278  1.00  0.00     0.171 C 
HETATM   35  S   UNL     1     -43.745  56.545 -52.173  1.00  0.00    -0.041 SA
HETATM   36  N   UNL     1     -43.078  54.318 -53.499  1.00  0.00    -0.357 N 
HETATM   37  C   UNL     1     -42.092  53.769 -54.406  1.00  0.00     0.135 C 
HETATM   38  H   UNL     1     -43.696  53.763 -52.920  1.00  0.00     0.162 HD
HETATM   39  C   UNL     1     -41.449  55.027 -55.014  1.00  0.00     0.155 C 
BRANCH  37  40
HETATM   40  C   UNL     1     -41.080  52.882 -53.708  1.00  0.00    -0.034 A 
HETATM   41  C   UNL     1     -40.728  53.151 -52.376  1.00  0.00     0.009 A 
HETATM   42  C   UNL     1     -39.834  52.325 -51.690  1.00  0.00     0.001 A 
HETATM   43  C   UNL     1     -39.281  51.216 -52.325  1.00  0.00     0.000 A 
HETATM   44  C   UNL     1     -39.620  50.932 -53.645  1.00  0.00     0.001 A 
HETATM   45  C   UNL     1     -40.514  51.756 -54.331  1.00  0.00     0.009 A 
ENDBRANCH  37  40
ENDBRANCH  32  33
ENDBRANCH   2  32
TORSDOF 10
ENDMDL
