MODEL 1
REMARK VINA RESULT:      -9.2      0.000      0.000
REMARK  6 active torsions:
REMARK  status: ('A' for Active; 'I' for Inactive)
REMARK    1  A    between atoms: C_8  and  C_9 
REMARK       I    between atoms: C_9  and  N_10 
REMARK    2  A    between atoms: N_10  and  N_11 
REMARK       I    between atoms: N_11  and  C_12 
REMARK    3  A    between atoms: C_12  and  C_13 
REMARK    4  A    between atoms: C_13  and  C_14 
REMARK    5  A    between atoms: C_14  and  N_15 
REMARK    6  A    between atoms: C_28  and  O_29 
ROOT
HETATM    1  N   UNL     1     -42.628  57.128 -54.560  1.00  0.00    -0.267 N 
HETATM    2  C   UNL     1     -44.000  57.271 -54.568  1.00  0.00     0.237 C 
HETATM    3  O   UNL     1     -44.760  56.320 -54.399  1.00  0.00    -0.272 OA
HETATM    4  H   UNL     1     -41.974  57.910 -54.539  1.00  0.00     0.190 HD
ENDROOT
BRANCH   1   5
HETATM    5  N   UNL     1     -42.110  55.864 -54.258  1.00  0.00    -0.263 N 
HETATM    6  C   UNL     1     -41.304  55.733 -53.148  1.00  0.00     0.272 C 
HETATM    7  O   UNL     1     -40.985  56.697 -52.448  1.00  0.00    -0.266 OA
HETATM    8  H   UNL     1     -42.561  55.085 -54.735  1.00  0.00     0.190 HD
BRANCH   6   9
HETATM    9  C   UNL     1     -40.843  54.363 -52.780  1.00  0.00     0.067 A 
HETATM   10  C   UNL     1     -40.661  53.360 -53.745  1.00  0.00     0.032 A 
HETATM   11  C   UNL     1     -40.234  52.069 -53.379  1.00  0.00    -0.025 A 
HETATM   12  C   UNL     1     -40.061  51.058 -54.337  1.00  0.00     0.012 A 
HETATM   13  C   UNL     1     -39.973  51.783 -52.019  1.00  0.00    -0.023 A 
HETATM   14  C   UNL     1     -39.637  49.782 -53.962  1.00  0.00     0.001 A 
HETATM   15  C   UNL     1     -39.380  49.500 -52.623  1.00  0.00     0.001 A 
HETATM   16  C   UNL     1     -39.546  50.495 -51.657  1.00  0.00     0.012 A 
HETATM   17  C   UNL     1     -40.139  52.792 -51.062  1.00  0.00     0.049 A 
HETATM   18  C   UNL     1     -40.563  54.066 -51.439  1.00  0.00     0.082 A 
BRANCH  18  19
HETATM   19  O   UNL     1     -40.678  54.981 -50.424  1.00  0.00    -0.360 OA
HETATM   20  H   UNL     1     -41.526  54.811 -49.956  1.00  0.00     0.217 HD
ENDBRANCH  18  19
ENDBRANCH   6   9
ENDBRANCH   1   5
BRANCH   2  21
HETATM   21  C   UNL     1     -44.459  58.688 -54.812  1.00  0.00     0.125 C 
BRANCH  21  22
HETATM   22  C   UNL     1     -43.951  59.187 -56.160  1.00  0.00     0.145 C 
BRANCH  22  23
HETATM   23  N   UNL     1     -44.357  58.319 -57.248  1.00  0.00    -0.279 N 
HETATM   24  C   UNL     1     -45.613  58.304 -57.789  1.00  0.00     0.261 A 
HETATM   25  O   UNL     1     -46.578  58.984 -57.499  1.00  0.00    -0.267 OA
HETATM   26  C   UNL     1     -45.599  57.295 -58.845  1.00  0.00     0.048 A 
HETATM   27  C   UNL     1     -44.318  56.778 -58.913  1.00  0.00     0.048 A 
HETATM   28  C   UNL     1     -46.609  56.857 -59.680  1.00  0.00     0.018 A 
HETATM   29  C   UNL     1     -43.513  57.460 -57.901  1.00  0.00     0.261 A 
HETATM   30  C   UNL     1     -43.972  55.794 -59.818  1.00  0.00     0.018 A 
HETATM   31  O   UNL     1     -42.324  57.276 -57.730  1.00  0.00    -0.267 OA
HETATM   32  C   UNL     1     -44.979  55.331 -60.673  1.00  0.00     0.001 A 
HETATM   33  C   UNL     1     -46.286  55.859 -60.605  1.00  0.00     0.001 A 
ENDBRANCH  22  23
ENDBRANCH  21  22
ENDBRANCH   2  21
TORSDOF 6
ENDMDL
MODEL 2
REMARK VINA RESULT:      -9.1      3.029      4.127
REMARK  6 active torsions:
REMARK  status: ('A' for Active; 'I' for Inactive)
REMARK    1  A    between atoms: C_8  and  C_9 
REMARK       I    between atoms: C_9  and  N_10 
REMARK    2  A    between atoms: N_10  and  N_11 
REMARK       I    between atoms: N_11  and  C_12 
REMARK    3  A    between atoms: C_12  and  C_13 
REMARK    4  A    between atoms: C_13  and  C_14 
REMARK    5  A    between atoms: C_14  and  N_15 
REMARK    6  A    between atoms: C_28  and  O_29 
ROOT
HETATM    1  N   UNL     1     -42.257  56.733 -57.112  1.00  0.00    -0.267 N 
HETATM    2  C   UNL     1     -43.171  56.280 -58.040  1.00  0.00     0.237 C 
HETATM    3  O   UNL     1     -43.400  55.083 -58.205  1.00  0.00    -0.272 OA
HETATM    4  H   UNL     1     -42.159  57.711 -56.841  1.00  0.00     0.190 HD
ENDROOT
BRANCH   1   5
HETATM    5  N   UNL     1     -41.651  55.784 -56.282  1.00  0.00    -0.263 N 
HETATM    6  C   UNL     1     -41.954  55.800 -54.937  1.00  0.00     0.272 C 
HETATM    7  O   UNL     1     -42.695  56.650 -54.438  1.00  0.00    -0.266 OA
HETATM    8  H   UNL     1     -41.221  54.997 -56.764  1.00  0.00     0.190 HD
BRANCH   6   9
HETATM    9  C   UNL     1     -41.381  54.720 -54.082  1.00  0.00     0.067 A 
HETATM   10  C   UNL     1     -41.066  53.454 -54.601  1.00  0.00     0.032 A 
HETATM   11  C   UNL     1     -40.535  52.444 -53.777  1.00  0.00    -0.025 A 
HETATM   12  C   UNL     1     -40.229  51.172 -54.287  1.00  0.00     0.012 A 
HETATM   13  C   UNL     1     -40.302  52.713 -52.409  1.00  0.00    -0.023 A 
HETATM   14  C   UNL     1     -39.702  50.179 -53.460  1.00  0.00     0.001 A 
HETATM   15  C   UNL     1     -39.473  50.444 -52.112  1.00  0.00     0.001 A 
HETATM   16  C   UNL     1     -39.771  51.703 -51.590  1.00  0.00     0.012 A 
HETATM   17  C   UNL     1     -40.602  53.984 -51.899  1.00  0.00     0.049 A 
HETATM   18  C   UNL     1     -41.128  54.975 -52.727  1.00  0.00     0.082 A 
BRANCH  18  19
HETATM   19  O   UNL     1     -41.370  56.185 -52.129  1.00  0.00    -0.360 OA
HETATM   20  H   UNL     1     -40.694  56.319 -51.427  1.00  0.00     0.217 HD
ENDBRANCH  18  19
ENDBRANCH   6   9
ENDBRANCH   1   5
BRANCH   2  21
HETATM   21  C   UNL     1     -43.838  57.384 -58.823  1.00  0.00     0.125 C 
BRANCH  21  22
HETATM   22  C   UNL     1     -43.857  58.675 -58.013  1.00  0.00     0.145 C 
BRANCH  22  23
HETATM   23  N   UNL     1     -42.960  59.674 -58.563  1.00  0.00    -0.279 N 
HETATM   24  C   UNL     1     -41.918  60.230 -57.873  1.00  0.00     0.261 A 
HETATM   25  O   UNL     1     -41.544  60.002 -56.739  1.00  0.00    -0.267 OA
HETATM   26  C   UNL     1     -41.280  61.181 -58.780  1.00  0.00     0.048 A 
HETATM   27  C   UNL     1     -41.950  61.120 -59.989  1.00  0.00     0.048 A 
HETATM   28  C   UNL     1     -40.208  62.030 -58.579  1.00  0.00     0.018 A 
HETATM   29  C   UNL     1     -43.015  60.127 -59.854  1.00  0.00     0.261 A 
HETATM   30  C   UNL     1     -41.588  61.904 -61.066  1.00  0.00     0.018 A 
HETATM   31  O   UNL     1     -43.761  59.794 -60.752  1.00  0.00    -0.267 OA
HETATM   32  C   UNL     1     -40.508  62.775 -60.887  1.00  0.00     0.001 A 
HETATM   33  C   UNL     1     -39.824  62.837 -59.655  1.00  0.00     0.001 A 
ENDBRANCH  22  23
ENDBRANCH  21  22
ENDBRANCH   2  21
TORSDOF 6
ENDMDL
MODEL 3
REMARK VINA RESULT:      -8.9      2.332      2.868
REMARK  6 active torsions:
REMARK  status: ('A' for Active; 'I' for Inactive)
REMARK    1  A    between atoms: C_8  and  C_9 
REMARK       I    between atoms: C_9  and  N_10 
REMARK    2  A    between atoms: N_10  and  N_11 
REMARK       I    between atoms: N_11  and  C_12 
REMARK    3  A    between atoms: C_12  and  C_13 
REMARK    4  A    between atoms: C_13  and  C_14 
REMARK    5  A    between atoms: C_14  and  N_15 
REMARK    6  A    between atoms: C_28  and  O_29 
ROOT
HETATM    1  N   UNL     1     -42.081  58.017 -53.576  1.00  0.00    -0.267 N 
HETATM    2  C   UNL     1     -41.298  59.148 -53.671  1.00  0.00     0.237 C 
HETATM    3  O   UNL     1     -40.120  59.163 -53.317  1.00  0.00    -0.272 OA
HETATM    4  H   UNL     1     -43.003  57.926 -54.001  1.00  0.00     0.190 HD
ENDROOT
BRANCH   1   5
HETATM    5  N   UNL     1     -41.466  56.837 -53.144  1.00  0.00    -0.263 N 
HETATM    6  C   UNL     1     -42.125  55.643 -53.342  1.00  0.00     0.272 C 
HETATM    7  O   UNL     1     -43.254  55.587 -53.836  1.00  0.00    -0.266 OA
HETATM    8  H   UNL     1     -40.472  56.916 -52.938  1.00  0.00     0.190 HD
BRANCH   6   9
HETATM    9  C   UNL     1     -41.414  54.385 -52.970  1.00  0.00     0.067 A 
HETATM   10  C   UNL     1     -41.258  53.327 -53.879  1.00  0.00     0.032 A 
HETATM   11  C   UNL     1     -40.593  52.144 -53.507  1.00  0.00    -0.025 A 
HETATM   12  C   UNL     1     -40.442  51.077 -54.407  1.00  0.00     0.012 A 
HETATM   13  C   UNL     1     -40.063  52.024 -52.202  1.00  0.00    -0.023 A 
HETATM   14  C   UNL     1     -39.780  49.909 -54.027  1.00  0.00     0.001 A 
HETATM   15  C   UNL     1     -39.258  49.791 -52.742  1.00  0.00     0.001 A 
HETATM   16  C   UNL     1     -39.398  50.843 -51.834  1.00  0.00     0.012 A 
HETATM   17  C   UNL     1     -40.206  53.090 -51.303  1.00  0.00     0.049 A 
HETATM   18  C   UNL     1     -40.868  54.257 -51.686  1.00  0.00     0.082 A 
BRANCH  18  19
HETATM   19  O   UNL     1     -40.939  55.241 -50.733  1.00  0.00    -0.360 OA
HETATM   20  H   UNL     1     -40.671  54.851 -49.871  1.00  0.00     0.217 HD
ENDBRANCH  18  19
ENDBRANCH   6   9
ENDBRANCH   1   5
BRANCH   2  21
HETATM   21  C   UNL     1     -42.027  60.344 -54.231  1.00  0.00     0.125 C 
BRANCH  21  22
HETATM   22  C   UNL     1     -43.224  59.897 -55.062  1.00  0.00     0.145 C 
BRANCH  22  23
HETATM   23  N   UNL     1     -42.896  59.784 -56.470  1.00  0.00    -0.279 N 
HETATM   24  C   UNL     1     -42.807  60.849 -57.324  1.00  0.00     0.261 A 
HETATM   25  O   UNL     1     -42.958  62.032 -57.089  1.00  0.00    -0.267 OA
HETATM   26  C   UNL     1     -42.462  60.303 -58.634  1.00  0.00     0.048 A 
HETATM   27  C   UNL     1     -42.321  58.934 -58.493  1.00  0.00     0.048 A 
HETATM   28  C   UNL     1     -42.284  60.935 -59.850  1.00  0.00     0.018 A 
HETATM   29  C   UNL     1     -42.574  58.607 -57.091  1.00  0.00     0.261 A 
HETATM   30  C   UNL     1     -41.995  58.118 -59.559  1.00  0.00     0.018 A 
HETATM   31  O   UNL     1     -42.483  57.491 -56.619  1.00  0.00    -0.267 OA
HETATM   32  C   UNL     1     -41.813  58.734 -60.802  1.00  0.00     0.001 A 
HETATM   33  C   UNL     1     -41.955  60.131 -60.946  1.00  0.00     0.001 A 
ENDBRANCH  22  23
ENDBRANCH  21  22
ENDBRANCH   2  21
TORSDOF 6
ENDMDL
MODEL 4
REMARK VINA RESULT:      -8.9      1.672      2.383
REMARK  6 active torsions:
REMARK  status: ('A' for Active; 'I' for Inactive)
REMARK    1  A    between atoms: C_8  and  C_9 
REMARK       I    between atoms: C_9  and  N_10 
REMARK    2  A    between atoms: N_10  and  N_11 
REMARK       I    between atoms: N_11  and  C_12 
REMARK    3  A    between atoms: C_12  and  C_13 
REMARK    4  A    between atoms: C_13  and  C_14 
REMARK    5  A    between atoms: C_14  and  N_15 
REMARK    6  A    between atoms: C_28  and  O_29 
ROOT
HETATM    1  N   UNL     1     -41.907  56.935 -56.347  1.00  0.00    -0.267 N 
HETATM    2  C   UNL     1     -42.310  58.168 -55.878  1.00  0.00     0.237 C 
HETATM    3  O   UNL     1     -42.265  58.464 -54.685  1.00  0.00    -0.272 OA
HETATM    4  H   UNL     1     -41.784  56.714 -57.335  1.00  0.00     0.190 HD
ENDROOT
BRANCH   1   5
HETATM    5  N   UNL     1     -41.348  56.043 -55.426  1.00  0.00    -0.263 N 
HETATM    6  C   UNL     1     -42.043  54.890 -55.126  1.00  0.00     0.272 C 
HETATM    7  O   UNL     1     -43.155  54.648 -55.600  1.00  0.00    -0.266 OA
HETATM    8  H   UNL     1     -40.360  56.186 -55.228  1.00  0.00     0.190 HD
BRANCH   6   9
HETATM    9  C   UNL     1     -41.389  53.900 -54.221  1.00  0.00     0.067 A 
HETATM   10  C   UNL     1     -41.088  52.597 -54.646  1.00  0.00     0.032 A 
HETATM   11  C   UNL     1     -40.480  51.672 -53.775  1.00  0.00    -0.025 A 
HETATM   12  C   UNL     1     -40.186  50.363 -54.189  1.00  0.00     0.012 A 
HETATM   13  C   UNL     1     -40.156  52.067 -52.457  1.00  0.00    -0.023 A 
HETATM   14  C   UNL     1     -39.582  49.457 -53.317  1.00  0.00     0.001 A 
HETATM   15  C   UNL     1     -39.263  49.846 -52.019  1.00  0.00     0.001 A 
HETATM   16  C   UNL     1     -39.548  51.144 -51.591  1.00  0.00     0.012 A 
HETATM   17  C   UNL     1     -40.443  53.375 -52.043  1.00  0.00     0.049 A 
HETATM   18  C   UNL     1     -41.046  54.280 -52.917  1.00  0.00     0.082 A 
BRANCH  18  19
HETATM   19  O   UNL     1     -41.269  55.536 -52.413  1.00  0.00    -0.360 OA
HETATM   20  H   UNL     1     -42.004  55.944 -52.923  1.00  0.00     0.217 HD
ENDBRANCH  18  19
ENDBRANCH   6   9
ENDBRANCH   1   5
BRANCH   2  21
HETATM   21  C   UNL     1     -42.813  59.093 -56.959  1.00  0.00     0.125 C 
BRANCH  21  22
HETATM   22  C   UNL     1     -42.566  58.486 -58.336  1.00  0.00     0.145 C 
BRANCH  22  23
HETATM   23  N   UNL     1     -43.805  58.164 -59.017  1.00  0.00    -0.279 N 
HETATM   24  C   UNL     1     -44.330  56.903 -59.093  1.00  0.00     0.261 A 
HETATM   25  O   UNL     1     -43.904  55.867 -58.622  1.00  0.00    -0.267 OA
HETATM   26  C   UNL     1     -45.569  57.015 -59.860  1.00  0.00     0.048 A 
HETATM   27  C   UNL     1     -45.748  58.351 -60.174  1.00  0.00     0.048 A 
HETATM   28  C   UNL     1     -46.470  56.045 -60.255  1.00  0.00     0.018 A 
HETATM   29  C   UNL     1     -44.623  59.091 -59.605  1.00  0.00     0.261 A 
HETATM   30  C   UNL     1     -46.835  58.793 -60.900  1.00  0.00     0.018 A 
HETATM   31  O   UNL     1     -44.499  60.299 -59.656  1.00  0.00    -0.267 OA
HETATM   32  C   UNL     1     -47.760  57.829 -61.316  1.00  0.00     0.001 A 
HETATM   33  C   UNL     1     -47.579  56.467 -60.995  1.00  0.00     0.001 A 
ENDBRANCH  22  23
ENDBRANCH  21  22
ENDBRANCH   2  21
TORSDOF 6
ENDMDL
MODEL 5
REMARK VINA RESULT:      -8.8      3.125      5.198
REMARK  6 active torsions:
REMARK  status: ('A' for Active; 'I' for Inactive)
REMARK    1  A    between atoms: C_8  and  C_9 
REMARK       I    between atoms: C_9  and  N_10 
REMARK    2  A    between atoms: N_10  and  N_11 
REMARK       I    between atoms: N_11  and  C_12 
REMARK    3  A    between atoms: C_12  and  C_13 
REMARK    4  A    between atoms: C_13  and  C_14 
REMARK    5  A    between atoms: C_14  and  N_15 
REMARK    6  A    between atoms: C_28  and  O_29 
ROOT
HETATM    1  N   UNL     1     -44.090  56.500 -53.077  1.00  0.00    -0.267 N 
HETATM    2  C   UNL     1     -44.225  57.133 -54.295  1.00  0.00     0.237 C 
HETATM    3  O   UNL     1     -43.672  56.722 -55.313  1.00  0.00    -0.272 OA
HETATM    4  H   UNL     1     -44.653  56.719 -52.256  1.00  0.00     0.190 HD
ENDROOT
BRANCH   1   5
HETATM    5  N   UNL     1     -43.369  55.301 -53.047  1.00  0.00    -0.263 N 
HETATM    6  C   UNL     1     -42.164  55.277 -52.378  1.00  0.00     0.272 C 
HETATM    7  O   UNL     1     -41.681  56.284 -51.854  1.00  0.00    -0.266 OA
HETATM    8  H   UNL     1     -43.896  54.471 -53.309  1.00  0.00     0.190 HD
BRANCH   6   9
HETATM    9  C   UNL     1     -41.455  53.969 -52.267  1.00  0.00     0.067 A 
HETATM   10  C   UNL     1     -41.193  53.172 -53.392  1.00  0.00     0.032 A 
HETATM   11  C   UNL     1     -40.532  51.936 -53.267  1.00  0.00    -0.025 A 
HETATM   12  C   UNL     1     -40.277  51.128 -54.387  1.00  0.00     0.012 A 
HETATM   13  C   UNL     1     -40.114  51.496 -51.990  1.00  0.00    -0.023 A 
HETATM   14  C   UNL     1     -39.620  49.904 -54.250  1.00  0.00     0.001 A 
HETATM   15  C   UNL     1     -39.208  49.472 -52.993  1.00  0.00     0.001 A 
HETATM   16  C   UNL     1     -39.453  50.263 -51.869  1.00  0.00     0.012 A 
HETATM   17  C   UNL     1     -40.362  52.304 -50.872  1.00  0.00     0.049 A 
HETATM   18  C   UNL     1     -41.019  53.526 -51.011  1.00  0.00     0.082 A 
BRANCH  18  19
HETATM   19  O   UNL     1     -41.197  54.241 -49.854  1.00  0.00    -0.360 OA
HETATM   20  H   UNL     1     -40.651  55.057 -49.913  1.00  0.00     0.217 HD
ENDBRANCH  18  19
ENDBRANCH   6   9
ENDBRANCH   1   5
BRANCH   2  21
HETATM   21  C   UNL     1     -45.094  58.366 -54.243  1.00  0.00     0.125 C 
BRANCH  21  22
HETATM   22  C   UNL     1     -44.239  59.625 -54.333  1.00  0.00     0.145 C 
BRANCH  22  23
HETATM   23  N   UNL     1     -43.126  59.593 -53.404  1.00  0.00    -0.279 N 
HETATM   24  C   UNL     1     -43.249  59.788 -52.056  1.00  0.00     0.261 A 
HETATM   25  O   UNL     1     -44.252  59.997 -51.401  1.00  0.00    -0.267 OA
HETATM   26  C   UNL     1     -41.904  59.679 -51.496  1.00  0.00     0.048 A 
HETATM   27  C   UNL     1     -41.041  59.382 -52.536  1.00  0.00     0.048 A 
HETATM   28  C   UNL     1     -41.459  59.823 -50.196  1.00  0.00     0.018 A 
HETATM   29  C   UNL     1     -41.837  59.301 -53.760  1.00  0.00     0.261 A 
HETATM   30  C   UNL     1     -39.685  59.214 -52.337  1.00  0.00     0.018 A 
HETATM   31  O   UNL     1     -41.391  59.006 -54.851  1.00  0.00    -0.267 OA
HETATM   32  C   UNL     1     -39.209  59.359 -51.029  1.00  0.00     0.001 A 
HETATM   33  C   UNL     1     -40.089  59.659 -49.968  1.00  0.00     0.001 A 
ENDBRANCH  22  23
ENDBRANCH  21  22
ENDBRANCH   2  21
TORSDOF 6
ENDMDL
MODEL 6
REMARK VINA RESULT:      -8.8      2.273      9.026
REMARK  6 active torsions:
REMARK  status: ('A' for Active; 'I' for Inactive)
REMARK    1  A    between atoms: C_8  and  C_9 
REMARK       I    between atoms: C_9  and  N_10 
REMARK    2  A    between atoms: N_10  and  N_11 
REMARK       I    between atoms: N_11  and  C_12 
REMARK    3  A    between atoms: C_12  and  C_13 
REMARK    4  A    between atoms: C_13  and  C_14 
REMARK    5  A    between atoms: C_14  and  N_15 
REMARK    6  A    between atoms: C_28  and  O_29 
ROOT
HETATM    1  N   UNL     1     -41.900  56.555 -54.400  1.00  0.00    -0.267 N 
HETATM    2  C   UNL     1     -42.934  56.403 -53.501  1.00  0.00     0.237 C 
HETATM    3  O   UNL     1     -44.011  56.982 -53.634  1.00  0.00    -0.272 OA
HETATM    4  H   UNL     1     -41.061  55.976 -54.407  1.00  0.00     0.190 HD
ENDROOT
BRANCH   1   5
HETATM    5  N   UNL     1     -42.141  57.329 -55.541  1.00  0.00    -0.263 N 
HETATM    6  C   UNL     1     -42.488  56.685 -56.709  1.00  0.00     0.272 C 
HETATM    7  O   UNL     1     -42.541  55.456 -56.793  1.00  0.00    -0.266 OA
HETATM    8  H   UNL     1     -42.284  58.322 -55.369  1.00  0.00     0.190 HD
BRANCH   6   9
HETATM    9  C   UNL     1     -42.842  57.526 -57.889  1.00  0.00     0.067 A 
HETATM   10  C   UNL     1     -42.170  58.726 -58.170  1.00  0.00     0.032 A 
HETATM   11  C   UNL     1     -42.524  59.513 -59.282  1.00  0.00    -0.025 A 
HETATM   12  C   UNL     1     -41.864  60.719 -59.563  1.00  0.00     0.012 A 
HETATM   13  C   UNL     1     -43.564  59.080 -60.137  1.00  0.00    -0.023 A 
HETATM   14  C   UNL     1     -42.223  61.490 -60.670  1.00  0.00     0.001 A 
HETATM   15  C   UNL     1     -43.247  61.064 -61.512  1.00  0.00     0.001 A 
HETATM   16  C   UNL     1     -43.913  59.866 -61.247  1.00  0.00     0.012 A 
HETATM   17  C   UNL     1     -44.220  57.873 -59.862  1.00  0.00     0.049 A 
HETATM   18  C   UNL     1     -43.859  57.104 -58.756  1.00  0.00     0.082 A 
BRANCH  18  19
HETATM   19  O   UNL     1     -44.556  55.935 -58.590  1.00  0.00    -0.360 OA
HETATM   20  H   UNL     1     -43.939  55.260 -58.228  1.00  0.00     0.217 HD
ENDBRANCH  18  19
ENDBRANCH   6   9
ENDBRANCH   1   5
BRANCH   2  21
HETATM   21  C   UNL     1     -42.608  55.479 -52.354  1.00  0.00     0.125 C 
BRANCH  21  22
HETATM   22  C   UNL     1     -41.100  55.292 -52.232  1.00  0.00     0.145 C 
BRANCH  22  23
HETATM   23  N   UNL     1     -40.706  53.911 -52.434  1.00  0.00    -0.279 N 
HETATM   24  C   UNL     1     -40.584  53.322 -53.663  1.00  0.00     0.261 A 
HETATM   25  O   UNL     1     -40.751  53.808 -54.765  1.00  0.00    -0.267 OA
HETATM   26  C   UNL     1     -40.176  51.939 -53.422  1.00  0.00     0.048 A 
HETATM   27  C   UNL     1     -40.036  51.777 -52.055  1.00  0.00     0.048 A 
HETATM   28  C   UNL     1     -39.946  50.905 -54.308  1.00  0.00     0.018 A 
HETATM   29  C   UNL     1     -40.351  53.057 -51.424  1.00  0.00     0.261 A 
HETATM   30  C   UNL     1     -39.657  50.573 -51.496  1.00  0.00     0.018 A 
HETATM   31  O   UNL     1     -40.276  53.272 -50.231  1.00  0.00    -0.267 OA
HETATM   32  C   UNL     1     -39.421  49.508 -52.373  1.00  0.00     0.001 A 
HETATM   33  C   UNL     1     -39.564  49.673 -53.767  1.00  0.00     0.001 A 
ENDBRANCH  22  23
ENDBRANCH  21  22
ENDBRANCH   2  21
TORSDOF 6
ENDMDL
MODEL 7
REMARK VINA RESULT:      -8.7      4.950      7.523
REMARK  6 active torsions:
REMARK  status: ('A' for Active; 'I' for Inactive)
REMARK    1  A    between atoms: C_8  and  C_9 
REMARK       I    between atoms: C_9  and  N_10 
REMARK    2  A    between atoms: N_10  and  N_11 
REMARK       I    between atoms: N_11  and  C_12 
REMARK    3  A    between atoms: C_12  and  C_13 
REMARK    4  A    between atoms: C_13  and  C_14 
REMARK    5  A    between atoms: C_14  and  N_15 
REMARK    6  A    between atoms: C_28  and  O_29 
ROOT
HETATM    1  N   UNL     1     -43.367  58.595 -52.425  1.00  0.00    -0.267 N 
HETATM    2  C   UNL     1     -42.844  59.638 -51.689  1.00  0.00     0.237 C 
HETATM    3  O   UNL     1     -42.039  59.459 -50.777  1.00  0.00    -0.272 OA
HETATM    4  H   UNL     1     -43.909  58.717 -53.280  1.00  0.00     0.190 HD
ENDROOT
BRANCH   1   5
HETATM    5  N   UNL     1     -42.880  57.310 -52.163  1.00  0.00    -0.263 N 
HETATM    6  C   UNL     1     -41.934  56.781 -53.016  1.00  0.00     0.272 C 
HETATM    7  O   UNL     1     -41.546  57.379 -54.022  1.00  0.00    -0.266 OA
HETATM    8  H   UNL     1     -43.075  56.954 -51.229  1.00  0.00     0.190 HD
BRANCH   6   9
HETATM    9  C   UNL     1     -41.350  55.453 -52.668  1.00  0.00     0.067 A 
HETATM   10  C   UNL     1     -41.104  54.475 -53.644  1.00  0.00     0.032 A 
HETATM   11  C   UNL     1     -40.561  53.223 -53.297  1.00  0.00    -0.025 A 
HETATM   12  C   UNL     1     -40.324  52.236 -54.266  1.00  0.00     0.012 A 
HETATM   13  C   UNL     1     -40.246  52.953 -51.945  1.00  0.00    -0.023 A 
HETATM   14  C   UNL     1     -39.784  50.999 -53.909  1.00  0.00     0.001 A 
HETATM   15  C   UNL     1     -39.474  50.733 -52.579  1.00  0.00     0.001 A 
HETATM   16  C   UNL     1     -39.703  51.704 -51.602  1.00  0.00     0.012 A 
HETATM   17  C   UNL     1     -40.477  53.939 -50.977  1.00  0.00     0.049 A 
HETATM   18  C   UNL     1     -41.016  55.174 -51.336  1.00  0.00     0.082 A 
BRANCH  18  19
HETATM   19  O   UNL     1     -41.186  56.070 -50.312  1.00  0.00    -0.360 OA
HETATM   20  H   UNL     1     -41.888  56.707 -50.576  1.00  0.00     0.217 HD
ENDBRANCH  18  19
ENDBRANCH   6   9
ENDBRANCH   1   5
BRANCH   2  21
HETATM   21  C   UNL     1     -43.363  60.992 -52.105  1.00  0.00     0.125 C 
BRANCH  21  22
HETATM   22  C   UNL     1     -44.831  61.142 -51.721  1.00  0.00     0.145 C 
BRANCH  22  23
HETATM   23  N   UNL     1     -44.999  61.361 -50.297  1.00  0.00    -0.279 N 
HETATM   24  C   UNL     1     -44.756  62.553 -49.672  1.00  0.00     0.261 A 
HETATM   25  O   UNL     1     -44.391  63.608 -50.153  1.00  0.00    -0.267 OA
HETATM   26  C   UNL     1     -45.043  62.345 -48.255  1.00  0.00     0.048 A 
HETATM   27  C   UNL     1     -45.485  61.042 -48.104  1.00  0.00     0.048 A 
HETATM   28  C   UNL     1     -44.934  63.209 -47.182  1.00  0.00     0.018 A 
HETATM   29  C   UNL     1     -45.481  60.420 -49.427  1.00  0.00     0.261 A 
HETATM   30  C   UNL     1     -45.841  60.528 -46.874  1.00  0.00     0.018 A 
HETATM   31  O   UNL     1     -45.862  59.289 -49.655  1.00  0.00    -0.267 OA
HETATM   32  C   UNL     1     -45.734  61.381 -45.770  1.00  0.00     0.001 A 
HETATM   33  C   UNL     1     -45.286  62.711 -45.923  1.00  0.00     0.001 A 
ENDBRANCH  22  23
ENDBRANCH  21  22
ENDBRANCH   2  21
TORSDOF 6
ENDMDL
MODEL 8
REMARK VINA RESULT:      -8.7      3.315      4.155
REMARK  6 active torsions:
REMARK  status: ('A' for Active; 'I' for Inactive)
REMARK    1  A    between atoms: C_8  and  C_9 
REMARK       I    between atoms: C_9  and  N_10 
REMARK    2  A    between atoms: N_10  and  N_11 
REMARK       I    between atoms: N_11  and  C_12 
REMARK    3  A    between atoms: C_12  and  C_13 
REMARK    4  A    between atoms: C_13  and  C_14 
REMARK    5  A    between atoms: C_14  and  N_15 
REMARK    6  A    between atoms: C_28  and  O_29 
ROOT
HETATM    1  N   UNL     1     -42.121  58.336 -50.335  1.00  0.00    -0.267 N 
HETATM    2  C   UNL     1     -41.408  59.465 -50.682  1.00  0.00     0.237 C 
HETATM    3  O   UNL     1     -40.225  59.419 -51.013  1.00  0.00    -0.272 OA
HETATM    4  H   UNL     1     -43.133  58.317 -50.209  1.00  0.00     0.190 HD
ENDROOT
BRANCH   1   5
HETATM    5  N   UNL     1     -41.477  57.100 -50.461  1.00  0.00    -0.263 N 
HETATM    6  C   UNL     1     -42.249  55.976 -50.662  1.00  0.00     0.272 C 
HETATM    7  O   UNL     1     -43.481  56.017 -50.682  1.00  0.00    -0.266 OA
HETATM    8  H   UNL     1     -40.476  57.148 -50.640  1.00  0.00     0.190 HD
BRANCH   6   9
HETATM    9  C   UNL     1     -41.546  54.681 -50.896  1.00  0.00     0.067 A 
HETATM   10  C   UNL     1     -41.345  54.171 -52.188  1.00  0.00     0.032 A 
HETATM   11  C   UNL     1     -40.688  52.943 -52.389  1.00  0.00    -0.025 A 
HETATM   12  C   UNL     1     -40.494  52.420 -53.678  1.00  0.00     0.012 A 
HETATM   13  C   UNL     1     -40.210  52.218 -51.273  1.00  0.00    -0.023 A 
HETATM   14  C   UNL     1     -39.840  51.202 -53.865  1.00  0.00     0.001 A 
HETATM   15  C   UNL     1     -39.370  50.489 -52.765  1.00  0.00     0.001 A 
HETATM   16  C   UNL     1     -39.554  50.994 -51.477  1.00  0.00     0.012 A 
HETATM   17  C   UNL     1     -40.397  52.740 -49.986  1.00  0.00     0.049 A 
HETATM   18  C   UNL     1     -41.051  53.958 -49.802  1.00  0.00     0.082 A 
BRANCH  18  19
HETATM   19  O   UNL     1     -41.166  54.382 -48.503  1.00  0.00    -0.360 OA
HETATM   20  H   UNL     1     -41.247  55.362 -48.507  1.00  0.00     0.217 HD
ENDBRANCH  18  19
ENDBRANCH   6   9
ENDBRANCH   1   5
BRANCH   2  21
HETATM   21  C   UNL     1     -42.215  60.738 -50.601  1.00  0.00     0.125 C 
BRANCH  21  22
HETATM   22  C   UNL     1     -42.898  61.021 -51.933  1.00  0.00     0.145 C 
BRANCH  22  23
HETATM   23  N   UNL     1     -43.026  59.824 -52.743  1.00  0.00    -0.279 N 
HETATM   24  C   UNL     1     -44.051  58.925 -52.623  1.00  0.00     0.261 A 
HETATM   25  O   UNL     1     -45.010  58.953 -51.877  1.00  0.00    -0.267 OA
HETATM   26  C   UNL     1     -43.800  57.877 -53.611  1.00  0.00     0.048 A 
HETATM   27  C   UNL     1     -42.653  58.221 -54.304  1.00  0.00     0.048 A 
HETATM   28  C   UNL     1     -44.504  56.721 -53.889  1.00  0.00     0.018 A 
HETATM   29  C   UNL     1     -42.173  59.490 -53.760  1.00  0.00     0.261 A 
HETATM   30  C   UNL     1     -42.143  57.429 -55.314  1.00  0.00     0.018 A 
HETATM   31  O   UNL     1     -41.208  60.097 -54.182  1.00  0.00    -0.267 OA
HETATM   32  C   UNL     1     -42.836  56.250 -55.612  1.00  0.00     0.001 A 
HETATM   33  C   UNL     1     -44.007  55.901 -54.906  1.00  0.00     0.001 A 
ENDBRANCH  22  23
ENDBRANCH  21  22
ENDBRANCH   2  21
TORSDOF 6
ENDMDL
MODEL 9
REMARK VINA RESULT:      -8.6      3.040      9.066
REMARK  6 active torsions:
REMARK  status: ('A' for Active; 'I' for Inactive)
REMARK    1  A    between atoms: C_8  and  C_9 
REMARK       I    between atoms: C_9  and  N_10 
REMARK    2  A    between atoms: N_10  and  N_11 
REMARK       I    between atoms: N_11  and  C_12 
REMARK    3  A    between atoms: C_12  and  C_13 
REMARK    4  A    between atoms: C_13  and  C_14 
REMARK    5  A    between atoms: C_14  and  N_15 
REMARK    6  A    between atoms: C_28  and  O_29 
ROOT
HETATM    1  N   UNL     1     -41.969  58.496 -53.947  1.00  0.00    -0.267 N 
HETATM    2  C   UNL     1     -40.984  58.537 -52.982  1.00  0.00     0.237 C 
HETATM    3  O   UNL     1     -39.862  58.986 -53.208  1.00  0.00    -0.272 OA
HETATM    4  H   UNL     1     -42.946  58.279 -53.755  1.00  0.00     0.190 HD
ENDROOT
BRANCH   1   5
HETATM    5  N   UNL     1     -41.683  59.074 -55.189  1.00  0.00    -0.263 N 
HETATM    6  C   UNL     1     -42.500  58.771 -56.257  1.00  0.00     0.272 C 
HETATM    7  O   UNL     1     -43.436  57.972 -56.166  1.00  0.00    -0.266 OA
HETATM    8  H   UNL     1     -41.043  59.865 -55.163  1.00  0.00     0.190 HD
BRANCH   6   9
HETATM    9  C   UNL     1     -42.246  59.472 -57.549  1.00  0.00     0.067 A 
HETATM   10  C   UNL     1     -41.426  60.609 -57.625  1.00  0.00     0.032 A 
HETATM   11  C   UNL     1     -41.205  61.264 -58.851  1.00  0.00    -0.025 A 
HETATM   12  C   UNL     1     -40.396  62.408 -58.932  1.00  0.00     0.012 A 
HETATM   13  C   UNL     1     -41.807  60.760 -60.027  1.00  0.00    -0.023 A 
HETATM   14  C   UNL     1     -40.184  63.048 -60.154  1.00  0.00     0.001 A 
HETATM   15  C   UNL     1     -40.776  62.552 -61.312  1.00  0.00     0.001 A 
HETATM   16  C   UNL     1     -41.583  61.415 -61.249  1.00  0.00     0.012 A 
HETATM   17  C   UNL     1     -42.610  59.614 -59.949  1.00  0.00     0.049 A 
HETATM   18  C   UNL     1     -42.821  58.976 -58.727  1.00  0.00     0.082 A 
BRANCH  18  19
HETATM   19  O   UNL     1     -43.611  57.856 -58.768  1.00  0.00    -0.360 OA
HETATM   20  H   UNL     1     -43.736  57.605 -59.711  1.00  0.00     0.217 HD
ENDBRANCH  18  19
ENDBRANCH   6   9
ENDBRANCH   1   5
BRANCH   2  21
HETATM   21  C   UNL     1     -41.417  57.973 -51.652  1.00  0.00     0.125 C 
BRANCH  21  22
HETATM   22  C   UNL     1     -42.404  56.829 -51.853  1.00  0.00     0.145 C 
BRANCH  22  23
HETATM   23  N   UNL     1     -41.732  55.578 -52.146  1.00  0.00    -0.279 N 
HETATM   24  C   UNL     1     -41.141  54.787 -51.200  1.00  0.00     0.261 A 
HETATM   25  O   UNL     1     -41.078  54.950 -49.997  1.00  0.00    -0.267 OA
HETATM   26  C   UNL     1     -40.584  53.637 -51.909  1.00  0.00     0.048 A 
HETATM   27  C   UNL     1     -40.904  53.776 -53.248  1.00  0.00     0.048 A 
HETATM   28  C   UNL     1     -39.860  52.558 -51.439  1.00  0.00     0.018 A 
HETATM   29  C   UNL     1     -41.668  55.014 -53.393  1.00  0.00     0.261 A 
HETATM   30  C   UNL     1     -40.519  52.846 -54.193  1.00  0.00     0.018 A 
HETATM   31  O   UNL     1     -42.147  55.407 -54.437  1.00  0.00    -0.267 OA
HETATM   32  C   UNL     1     -39.781  51.746 -53.742  1.00  0.00     0.001 A 
HETATM   33  C   UNL     1     -39.455  51.603 -52.377  1.00  0.00     0.001 A 
ENDBRANCH  22  23
ENDBRANCH  21  22
ENDBRANCH   2  21
TORSDOF 6
ENDMDL
MODEL 10
REMARK VINA RESULT:      -8.5      5.458      7.875
REMARK  6 active torsions:
REMARK  status: ('A' for Active; 'I' for Inactive)
REMARK    1  A    between atoms: C_8  and  C_9 
REMARK       I    between atoms: C_9  and  N_10 
REMARK    2  A    between atoms: N_10  and  N_11 
REMARK       I    between atoms: N_11  and  C_12 
REMARK    3  A    between atoms: C_12  and  C_13 
REMARK    4  A    between atoms: C_13  and  C_14 
REMARK    5  A    between atoms: C_14  and  N_15 
REMARK    6  A    between atoms: C_28  and  O_29 
ROOT
HETATM    1  N   UNL     1     -42.764  58.656 -50.617  1.00  0.00    -0.267 N 
HETATM    2  C   UNL     1     -42.097  59.849 -50.434  1.00  0.00     0.237 C 
HETATM    3  O   UNL     1     -40.871  59.911 -50.356  1.00  0.00    -0.272 OA
HETATM    4  H   UNL     1     -43.756  58.588 -50.842  1.00  0.00     0.190 HD
ENDROOT
BRANCH   1   5
HETATM    5  N   UNL     1     -41.992  57.505 -50.809  1.00  0.00    -0.263 N 
HETATM    6  C   UNL     1     -42.638  56.291 -50.899  1.00  0.00     0.272 C 
HETATM    7  O   UNL     1     -43.859  56.181 -50.766  1.00  0.00    -0.266 OA
HETATM    8  H   UNL     1     -41.034  57.671 -51.111  1.00  0.00     0.190 HD
BRANCH   6   9
HETATM    9  C   UNL     1     -41.813  55.085 -51.205  1.00  0.00     0.067 A 
HETATM   10  C   UNL     1     -41.804  54.499 -52.480  1.00  0.00     0.032 A 
HETATM   11  C   UNL     1     -41.027  53.356 -52.747  1.00  0.00    -0.025 A 
HETATM   12  C   UNL     1     -41.021  52.757 -54.017  1.00  0.00     0.012 A 
HETATM   13  C   UNL     1     -40.233  52.798 -51.719  1.00  0.00    -0.023 A 
HETATM   14  C   UNL     1     -40.246  51.625 -54.270  1.00  0.00     0.001 A 
HETATM   15  C   UNL     1     -39.465  51.076 -53.257  1.00  0.00     0.001 A 
HETATM   16  C   UNL     1     -39.458  51.659 -51.989  1.00  0.00     0.012 A 
HETATM   17  C   UNL     1     -40.232  53.398 -50.452  1.00  0.00     0.049 A 
HETATM   18  C   UNL     1     -41.007  54.530 -50.201  1.00  0.00     0.082 A 
BRANCH  18  19
HETATM   19  O   UNL     1     -40.920  55.042 -48.933  1.00  0.00    -0.360 OA
HETATM   20  H   UNL     1     -41.336  55.934 -48.934  1.00  0.00     0.217 HD
ENDBRANCH  18  19
ENDBRANCH   6   9
ENDBRANCH   1   5
BRANCH   2  21
HETATM   21  C   UNL     1     -43.011  61.045 -50.329  1.00  0.00     0.125 C 
BRANCH  21  22
HETATM   22  C   UNL     1     -44.470  60.608 -50.401  1.00  0.00     0.145 C 
BRANCH  22  23
HETATM   23  N   UNL     1     -45.331  61.455 -49.598  1.00  0.00    -0.279 N 
HETATM   24  C   UNL     1     -46.364  62.194 -50.105  1.00  0.00     0.261 A 
HETATM   25  O   UNL     1     -46.759  62.273 -51.252  1.00  0.00    -0.267 OA
HETATM   26  C   UNL     1     -46.964  62.898 -48.973  1.00  0.00     0.048 A 
HETATM   27  C   UNL     1     -46.282  62.515 -47.832  1.00  0.00     0.048 A 
HETATM   28  C   UNL     1     -48.013  63.797 -48.931  1.00  0.00     0.018 A 
HETATM   29  C   UNL     1     -45.248  61.563 -48.236  1.00  0.00     0.261 A 
HETATM   30  C   UNL     1     -46.608  63.007 -46.584  1.00  0.00     0.018 A 
HETATM   31  O   UNL     1     -44.500  60.994 -47.466  1.00  0.00    -0.267 OA
HETATM   32  C   UNL     1     -47.665  63.922 -46.515  1.00  0.00     0.001 A 
HETATM   33  C   UNL     1     -48.362  64.312 -47.678  1.00  0.00     0.001 A 
ENDBRANCH  22  23
ENDBRANCH  21  22
ENDBRANCH   2  21
TORSDOF 6
ENDMDL
