MODEL 1
REMARK VINA RESULT:      -8.0      0.000      0.000
REMARK  6 active torsions:
REMARK  status: ('A' for Active; 'I' for Inactive)
REMARK    1  A    between atoms: C_3  and  N_4 
REMARK       I    between atoms: N_4  and  C_5 
REMARK       I    between atoms: C_5  and  N_6 
REMARK    2  A    between atoms: N_6  and  C_7 
REMARK    3  A    between atoms: C_7  and  C_8 
REMARK    4  A    between atoms: C_8  and  C_9 
REMARK    5  A    between atoms: C_21  and  O_22 
REMARK    6  A    between atoms: O_22  and  C_23 
ROOT
HETATM    1  N   UNL     1     -43.882  55.154 -52.713  1.00  0.00    -0.308 N 
HETATM    2  C   UNL     1     -43.256  54.274 -51.882  1.00  0.00     0.322 C 
HETATM    3  N   UNL     1     -41.881  54.300 -51.778  1.00  0.00    -0.338 N 
HETATM    4  C   UNL     1     -41.065  55.477 -52.066  1.00  0.00     0.154 C 
HETATM    5  O   UNL     1     -43.954  53.539 -51.181  1.00  0.00    -0.247 OA
HETATM    6  H   UNL     1     -44.851  55.288 -52.450  1.00  0.00     0.170 HD
ENDROOT
BRANCH   1   7
HETATM    7  C   UNL     1     -43.565  55.528 -54.037  1.00  0.00     0.042 A 
HETATM    8  C   UNL     1     -43.653  56.889 -54.398  1.00  0.00    -0.033 A 
HETATM    9  C   UNL     1     -44.024  57.954 -53.400  1.00  0.00     0.050 C 
HETATM   10  C   UNL     1     -43.389  57.268 -55.726  1.00  0.00     0.045 A 
HETATM   11  C   UNL     1     -43.021  56.314 -56.674  1.00  0.00     0.075 A 
HETATM   12  C   UNL     1     -42.972  54.968 -56.326  1.00  0.00     0.039 A 
HETATM   13  C   UNL     1     -43.238  54.578 -55.012  1.00  0.00     0.033 A 
BRANCH  11  14
HETATM   14  O   UNL     1     -42.790  56.630 -57.982  1.00  0.00    -0.290 OA
BRANCH  14  15
HETATM   15  C   UNL     1     -43.305  55.645 -58.868  1.00  0.00     0.505 C 
HETATM   16  F   UNL     1     -44.547  56.013 -59.274  1.00  0.00    -0.184 F 
HETATM   17  F   UNL     1     -42.519  55.647 -59.975  1.00  0.00    -0.184 F 
ENDBRANCH  14  15
ENDBRANCH  11  14
ENDBRANCH   1   7
BRANCH   3  18
HETATM   18  C   UNL     1     -41.241  53.279 -50.943  1.00  0.00     0.132 C 
BRANCH  18  19
HETATM   19  C   UNL     1     -39.821  52.923 -51.413  1.00  0.00     0.062 C 
BRANCH  19  20
HETATM   20  C   UNL     1     -39.799  51.796 -52.394  1.00  0.00    -0.007 A 
HETATM   21  C   UNL     1     -39.661  50.405 -52.116  1.00  0.00     0.059 A 
HETATM   22  C   UNL     1     -39.524  49.736 -50.799  1.00  0.00     0.073 C 
HETATM   23  N   UNL     1     -39.683  49.672 -53.234  1.00  0.00    -0.179 NA
HETATM   24  N   UNL     1     -39.849  50.570 -54.214  1.00  0.00    -0.282 N 
HETATM   25  H   UNL     1     -39.905  50.231 -55.168  1.00  0.00     0.189 HD
HETATM   26  C   UNL     1     -39.923  51.860 -53.770  1.00  0.00     0.032 A 
HETATM   27  C   UNL     1     -40.107  53.002 -54.694  1.00  0.00     0.070 C 
ENDBRANCH  19  20
ENDBRANCH  18  19
ENDBRANCH   3  18
TORSDOF 6
ENDMDL
MODEL 2
REMARK VINA RESULT:      -7.6      4.231      7.248
REMARK  6 active torsions:
REMARK  status: ('A' for Active; 'I' for Inactive)
REMARK    1  A    between atoms: C_3  and  N_4 
REMARK       I    between atoms: N_4  and  C_5 
REMARK       I    between atoms: C_5  and  N_6 
REMARK    2  A    between atoms: N_6  and  C_7 
REMARK    3  A    between atoms: C_7  and  C_8 
REMARK    4  A    between atoms: C_8  and  C_9 
REMARK    5  A    between atoms: C_21  and  O_22 
REMARK    6  A    between atoms: O_22  and  C_23 
ROOT
HETATM    1  N   UNL     1     -41.400  57.068 -53.543  1.00  0.00    -0.308 N 
HETATM    2  C   UNL     1     -41.641  58.073 -54.430  1.00  0.00     0.322 C 
HETATM    3  N   UNL     1     -42.613  57.907 -55.396  1.00  0.00    -0.338 N 
HETATM    4  C   UNL     1     -43.743  56.991 -55.265  1.00  0.00     0.154 C 
HETATM    5  O   UNL     1     -41.040  59.138 -54.282  1.00  0.00    -0.247 OA
HETATM    6  H   UNL     1     -40.956  57.414 -52.702  1.00  0.00     0.170 HD
ENDROOT
BRANCH   1   7
HETATM    7  C   UNL     1     -41.257  55.681 -53.767  1.00  0.00     0.042 A 
HETATM    8  C   UNL     1     -41.959  54.783 -52.935  1.00  0.00    -0.033 A 
HETATM    9  C   UNL     1     -42.891  55.264 -51.854  1.00  0.00     0.050 C 
HETATM   10  C   UNL     1     -41.786  53.399 -53.113  1.00  0.00     0.045 A 
HETATM   11  C   UNL     1     -40.949  52.915 -54.118  1.00  0.00     0.075 A 
HETATM   12  C   UNL     1     -40.229  53.801 -54.912  1.00  0.00     0.039 A 
HETATM   13  C   UNL     1     -40.386  55.178 -54.741  1.00  0.00     0.033 A 
BRANCH  11  14
HETATM   14  O   UNL     1     -40.723  51.581 -54.306  1.00  0.00    -0.290 OA
BRANCH  14  15
HETATM   15  C   UNL     1     -39.432  51.190 -53.855  1.00  0.00     0.505 C 
HETATM   16  F   UNL     1     -39.423  51.157 -52.499  1.00  0.00    -0.184 F 
HETATM   17  F   UNL     1     -39.228  49.915 -54.276  1.00  0.00    -0.184 F 
ENDBRANCH  14  15
ENDBRANCH  11  14
ENDBRANCH   1   7
BRANCH   3  18
HETATM   18  C   UNL     1     -42.780  58.975 -56.386  1.00  0.00     0.132 C 
BRANCH  18  19
HETATM   19  C   UNL     1     -43.692  58.571 -57.557  1.00  0.00     0.062 C 
BRANCH  19  20
HETATM   20  C   UNL     1     -42.930  58.062 -58.737  1.00  0.00    -0.007 A 
HETATM   21  C   UNL     1     -42.801  56.712 -59.172  1.00  0.00     0.059 A 
HETATM   22  C   UNL     1     -43.400  55.490 -58.579  1.00  0.00     0.073 C 
HETATM   23  N   UNL     1     -42.044  56.613 -60.270  1.00  0.00    -0.179 NA
HETATM   24  N   UNL     1     -41.703  57.878 -60.548  1.00  0.00    -0.282 N 
HETATM   25  H   UNL     1     -41.124  58.048 -61.364  1.00  0.00     0.189 HD
HETATM   26  C   UNL     1     -42.204  58.791 -59.663  1.00  0.00     0.032 A 
HETATM   27  C   UNL     1     -41.944  60.242 -59.794  1.00  0.00     0.070 C 
ENDBRANCH  19  20
ENDBRANCH  18  19
ENDBRANCH   3  18
TORSDOF 6
ENDMDL
MODEL 3
REMARK VINA RESULT:      -7.5      3.616      6.546
REMARK  6 active torsions:
REMARK  status: ('A' for Active; 'I' for Inactive)
REMARK    1  A    between atoms: C_3  and  N_4 
REMARK       I    between atoms: N_4  and  C_5 
REMARK       I    between atoms: C_5  and  N_6 
REMARK    2  A    between atoms: N_6  and  C_7 
REMARK    3  A    between atoms: C_7  and  C_8 
REMARK    4  A    between atoms: C_8  and  C_9 
REMARK    5  A    between atoms: C_21  and  O_22 
REMARK    6  A    between atoms: O_22  and  C_23 
ROOT
HETATM    1  N   UNL     1     -40.908  55.795 -51.225  1.00  0.00    -0.308 N 
HETATM    2  C   UNL     1     -41.798  56.700 -51.719  1.00  0.00     0.322 C 
HETATM    3  N   UNL     1     -43.087  56.299 -52.001  1.00  0.00    -0.338 N 
HETATM    4  C   UNL     1     -43.741  55.158 -51.368  1.00  0.00     0.154 C 
HETATM    5  O   UNL     1     -41.440  57.876 -51.814  1.00  0.00    -0.247 OA
HETATM    6  H   UNL     1     -40.147  56.251 -50.736  1.00  0.00     0.170 HD
ENDROOT
BRANCH   1   7
HETATM    7  C   UNL     1     -40.645  54.470 -51.637  1.00  0.00     0.042 A 
HETATM    8  C   UNL     1     -40.357  53.499 -50.655  1.00  0.00    -0.033 A 
HETATM    9  C   UNL     1     -40.374  53.824 -49.185  1.00  0.00     0.050 C 
HETATM   10  C   UNL     1     -40.043  52.188 -51.054  1.00  0.00     0.045 A 
HETATM   11  C   UNL     1     -40.038  51.842 -52.405  1.00  0.00     0.075 A 
HETATM   12  C   UNL     1     -40.285  52.809 -53.373  1.00  0.00     0.039 A 
HETATM   13  C   UNL     1     -40.591  54.117 -52.990  1.00  0.00     0.033 A 
BRANCH  11  14
HETATM   14  O   UNL     1     -39.706  50.591 -52.841  1.00  0.00    -0.290 OA
BRANCH  14  15
HETATM   15  C   UNL     1     -39.844  50.463 -54.251  1.00  0.00     0.505 C 
HETATM   16  F   UNL     1     -38.866  49.651 -54.724  1.00  0.00    -0.184 F 
HETATM   17  F   UNL     1     -41.021  49.829 -54.484  1.00  0.00    -0.184 F 
ENDBRANCH  14  15
ENDBRANCH  11  14
ENDBRANCH   1   7
BRANCH   3  18
HETATM   18  C   UNL     1     -43.987  57.281 -52.615  1.00  0.00     0.132 C 
BRANCH  18  19
HETATM   19  C   UNL     1     -44.606  56.786 -53.933  1.00  0.00     0.062 C 
BRANCH  19  20
HETATM   20  C   UNL     1     -43.618  56.733 -55.054  1.00  0.00    -0.007 A 
HETATM   21  C   UNL     1     -43.043  57.830 -55.757  1.00  0.00     0.059 A 
HETATM   22  C   UNL     1     -43.265  59.282 -55.544  1.00  0.00     0.073 C 
HETATM   23  N   UNL     1     -42.193  57.421 -56.705  1.00  0.00    -0.179 NA
HETATM   24  N   UNL     1     -42.206  56.086 -56.605  1.00  0.00    -0.282 N 
HETATM   25  H   UNL     1     -41.614  55.553 -57.233  1.00  0.00     0.189 HD
HETATM   26  C   UNL     1     -43.043  55.615 -55.633  1.00  0.00     0.032 A 
HETATM   27  C   UNL     1     -43.202  54.169 -55.360  1.00  0.00     0.070 C 
ENDBRANCH  19  20
ENDBRANCH  18  19
ENDBRANCH   3  18
TORSDOF 6
ENDMDL
MODEL 4
REMARK VINA RESULT:      -7.5      3.878      7.389
REMARK  6 active torsions:
REMARK  status: ('A' for Active; 'I' for Inactive)
REMARK    1  A    between atoms: C_3  and  N_4 
REMARK       I    between atoms: N_4  and  C_5 
REMARK       I    between atoms: C_5  and  N_6 
REMARK    2  A    between atoms: N_6  and  C_7 
REMARK    3  A    between atoms: C_7  and  C_8 
REMARK    4  A    between atoms: C_8  and  C_9 
REMARK    5  A    between atoms: C_21  and  O_22 
REMARK    6  A    between atoms: O_22  and  C_23 
ROOT
HETATM    1  N   UNL     1     -43.127  55.058 -52.364  1.00  0.00    -0.308 N 
HETATM    2  C   UNL     1     -43.047  56.232 -51.678  1.00  0.00     0.322 C 
HETATM    3  N   UNL     1     -42.026  57.116 -51.962  1.00  0.00    -0.338 N 
HETATM    4  C   UNL     1     -41.325  57.165 -53.242  1.00  0.00     0.154 C 
HETATM    5  O   UNL     1     -43.948  56.504 -50.883  1.00  0.00    -0.247 OA
HETATM    6  H   UNL     1     -44.065  54.677 -52.339  1.00  0.00     0.170 HD
ENDROOT
BRANCH   1   7
HETATM    7  C   UNL     1     -42.114  54.131 -52.689  1.00  0.00     0.042 A 
HETATM    8  C   UNL     1     -42.030  53.652 -54.014  1.00  0.00    -0.033 A 
HETATM    9  C   UNL     1     -42.956  54.142 -55.097  1.00  0.00     0.050 C 
HETATM   10  C   UNL     1     -41.058  52.690 -54.339  1.00  0.00     0.045 A 
HETATM   11  C   UNL     1     -40.168  52.229 -53.370  1.00  0.00     0.075 A 
HETATM   12  C   UNL     1     -40.276  52.673 -52.056  1.00  0.00     0.039 A 
HETATM   13  C   UNL     1     -41.242  53.623 -51.719  1.00  0.00     0.033 A 
BRANCH  11  14
HETATM   14  O   UNL     1     -39.231  51.270 -53.631  1.00  0.00    -0.290 OA
BRANCH  14  15
HETATM   15  C   UNL     1     -39.819  49.991 -53.832  1.00  0.00     0.505 C 
HETATM   16  F   UNL     1     -39.580  49.585 -55.105  1.00  0.00    -0.184 F 
HETATM   17  F   UNL     1     -39.171  49.117 -53.019  1.00  0.00    -0.184 F 
ENDBRANCH  14  15
ENDBRANCH  11  14
ENDBRANCH   1   7
BRANCH   3  18
HETATM   18  C   UNL     1     -41.923  58.325 -51.140  1.00  0.00     0.132 C 
BRANCH  18  19
HETATM   19  C   UNL     1     -42.353  59.598 -51.889  1.00  0.00     0.062 C 
BRANCH  19  20
HETATM   20  C   UNL     1     -43.819  59.871 -51.776  1.00  0.00    -0.007 A 
HETATM   21  C   UNL     1     -44.487  60.616 -50.762  1.00  0.00     0.059 A 
HETATM   22  C   UNL     1     -43.902  61.314 -49.591  1.00  0.00     0.073 C 
HETATM   23  N   UNL     1     -45.808  60.662 -50.970  1.00  0.00    -0.179 NA
HETATM   24  N   UNL     1     -45.986  59.973 -52.105  1.00  0.00    -0.282 N 
HETATM   25  H   UNL     1     -46.930  59.884 -52.466  1.00  0.00     0.189 HD
HETATM   26  C   UNL     1     -44.829  59.474 -52.633  1.00  0.00     0.032 A 
HETATM   27  C   UNL     1     -44.810  58.684 -53.885  1.00  0.00     0.070 C 
ENDBRANCH  19  20
ENDBRANCH  18  19
ENDBRANCH   3  18
TORSDOF 6
ENDMDL
MODEL 5
REMARK VINA RESULT:      -7.4      3.891      7.510
REMARK  6 active torsions:
REMARK  status: ('A' for Active; 'I' for Inactive)
REMARK    1  A    between atoms: C_3  and  N_4 
REMARK       I    between atoms: N_4  and  C_5 
REMARK       I    between atoms: C_5  and  N_6 
REMARK    2  A    between atoms: N_6  and  C_7 
REMARK    3  A    between atoms: C_7  and  C_8 
REMARK    4  A    between atoms: C_8  and  C_9 
REMARK    5  A    between atoms: C_21  and  O_22 
REMARK    6  A    between atoms: O_22  and  C_23 
ROOT
HETATM    1  N   UNL     1     -43.314  55.183 -52.433  1.00  0.00    -0.308 N 
HETATM    2  C   UNL     1     -43.258  56.352 -51.736  1.00  0.00     0.322 C 
HETATM    3  N   UNL     1     -42.232  57.241 -51.983  1.00  0.00    -0.338 N 
HETATM    4  C   UNL     1     -41.494  57.302 -53.241  1.00  0.00     0.154 C 
HETATM    5  O   UNL     1     -44.184  56.615 -50.966  1.00  0.00    -0.247 OA
HETATM    6  H   UNL     1     -44.251  54.798 -52.439  1.00  0.00     0.170 HD
ENDROOT
BRANCH   1   7
HETATM    7  C   UNL     1     -42.288  54.261 -52.735  1.00  0.00     0.042 A 
HETATM    8  C   UNL     1     -42.177  53.777 -54.055  1.00  0.00    -0.033 A 
HETATM    9  C   UNL     1     -43.086  54.254 -55.157  1.00  0.00     0.050 C 
HETATM   10  C   UNL     1     -41.192  52.820 -54.358  1.00  0.00     0.045 A 
HETATM   11  C   UNL     1     -40.317  52.370 -53.370  1.00  0.00     0.075 A 
HETATM   12  C   UNL     1     -40.452  52.820 -52.061  1.00  0.00     0.039 A 
HETATM   13  C   UNL     1     -41.431  53.765 -51.746  1.00  0.00     0.033 A 
BRANCH  11  14
HETATM   14  O   UNL     1     -39.368  51.417 -53.609  1.00  0.00    -0.290 OA
BRANCH  14  15
HETATM   15  C   UNL     1     -39.946  50.152 -53.904  1.00  0.00     0.505 C 
HETATM   16  F   UNL     1     -39.501  49.728 -55.114  1.00  0.00    -0.184 F 
HETATM   17  F   UNL     1     -39.474  49.269 -52.987  1.00  0.00    -0.184 F 
ENDBRANCH  14  15
ENDBRANCH  11  14
ENDBRANCH   1   7
BRANCH   3  18
HETATM   18  C   UNL     1     -42.158  58.444 -51.149  1.00  0.00     0.132 C 
BRANCH  18  19
HETATM   19  C   UNL     1     -42.571  59.721 -51.901  1.00  0.00     0.062 C 
BRANCH  19  20
HETATM   20  C   UNL     1     -44.020  60.048 -51.738  1.00  0.00    -0.007 A 
HETATM   21  C   UNL     1     -45.089  59.719 -52.621  1.00  0.00     0.059 A 
HETATM   22  C   UNL     1     -45.033  58.964 -53.897  1.00  0.00     0.073 C 
HETATM   23  N   UNL     1     -46.264  60.168 -52.166  1.00  0.00    -0.179 NA
HETATM   24  N   UNL     1     -45.962  60.761 -51.004  1.00  0.00    -0.282 N 
HETATM   25  H   UNL     1     -46.717  61.173 -50.467  1.00  0.00     0.189 HD
HETATM   26  C   UNL     1     -44.631  60.722 -50.696  1.00  0.00     0.032 A 
HETATM   27  C   UNL     1     -44.091  61.320 -49.454  1.00  0.00     0.070 C 
ENDBRANCH  19  20
ENDBRANCH  18  19
ENDBRANCH   3  18
TORSDOF 6
ENDMDL
MODEL 6
REMARK VINA RESULT:      -7.4      3.950      7.454
REMARK  6 active torsions:
REMARK  status: ('A' for Active; 'I' for Inactive)
REMARK    1  A    between atoms: C_3  and  N_4 
REMARK       I    between atoms: N_4  and  C_5 
REMARK       I    between atoms: C_5  and  N_6 
REMARK    2  A    between atoms: N_6  and  C_7 
REMARK    3  A    between atoms: C_7  and  C_8 
REMARK    4  A    between atoms: C_8  and  C_9 
REMARK    5  A    between atoms: C_21  and  O_22 
REMARK    6  A    between atoms: O_22  and  C_23 
ROOT
HETATM    1  N   UNL     1     -41.408  56.494 -53.746  1.00  0.00    -0.308 N 
HETATM    2  C   UNL     1     -42.051  57.120 -54.770  1.00  0.00     0.322 C 
HETATM    3  N   UNL     1     -43.160  56.528 -55.338  1.00  0.00    -0.338 N 
HETATM    4  C   UNL     1     -44.012  55.564 -54.646  1.00  0.00     0.154 C 
HETATM    5  O   UNL     1     -41.669  58.245 -55.096  1.00  0.00    -0.247 OA
HETATM    6  H   UNL     1     -40.866  57.147 -53.193  1.00  0.00     0.170 HD
ENDROOT
BRANCH   1   7
HETATM    7  C   UNL     1     -41.032  55.139 -53.609  1.00  0.00     0.042 A 
HETATM    8  C   UNL     1     -41.136  54.530 -52.341  1.00  0.00    -0.033 A 
HETATM    9  C   UNL     1     -41.685  55.267 -51.147  1.00  0.00     0.050 C 
HETATM   10  C   UNL     1     -40.718  53.198 -52.179  1.00  0.00     0.045 A 
HETATM   11  C   UNL     1     -40.226  52.475 -53.266  1.00  0.00     0.075 A 
HETATM   12  C   UNL     1     -40.088  53.089 -54.506  1.00  0.00     0.039 A 
HETATM   13  C   UNL     1     -40.494  54.413 -54.678  1.00  0.00     0.033 A 
BRANCH  11  14
HETATM   14  O   UNL     1     -39.775  51.191 -53.150  1.00  0.00    -0.290 OA
BRANCH  14  15
HETATM   15  C   UNL     1     -39.832  50.492 -54.387  1.00  0.00     0.505 C 
HETATM   16  F   UNL     1     -38.971  49.444 -54.349  1.00  0.00    -0.184 F 
HETATM   17  F   UNL     1     -41.079  49.965 -54.494  1.00  0.00    -0.184 F 
ENDBRANCH  14  15
ENDBRANCH  11  14
ENDBRANCH   1   7
BRANCH   3  18
HETATM   18  C   UNL     1     -43.769  57.191 -56.495  1.00  0.00     0.132 C 
BRANCH  18  19
HETATM   19  C   UNL     1     -43.144  56.758 -57.832  1.00  0.00     0.062 C 
BRANCH  19  20
HETATM   20  C   UNL     1     -44.100  56.852 -58.977  1.00  0.00    -0.007 A 
HETATM   21  C   UNL     1     -44.673  55.779 -59.720  1.00  0.00     0.059 A 
HETATM   22  C   UNL     1     -44.478  54.320 -59.534  1.00  0.00     0.073 C 
HETATM   23  N   UNL     1     -45.491  56.222 -60.681  1.00  0.00    -0.179 NA
HETATM   24  N   UNL     1     -45.460  57.555 -60.550  1.00  0.00    -0.282 N 
HETATM   25  H   UNL     1     -46.028  58.110 -61.182  1.00  0.00     0.189 HD
HETATM   26  C   UNL     1     -44.643  57.990 -59.545  1.00  0.00     0.032 A 
HETATM   27  C   UNL     1     -44.471  59.428 -59.236  1.00  0.00     0.070 C 
ENDBRANCH  19  20
ENDBRANCH  18  19
ENDBRANCH   3  18
TORSDOF 6
ENDMDL
MODEL 7
REMARK VINA RESULT:      -7.3      3.946      7.306
REMARK  6 active torsions:
REMARK  status: ('A' for Active; 'I' for Inactive)
REMARK    1  A    between atoms: C_3  and  N_4 
REMARK       I    between atoms: N_4  and  C_5 
REMARK       I    between atoms: C_5  and  N_6 
REMARK    2  A    between atoms: N_6  and  C_7 
REMARK    3  A    between atoms: C_7  and  C_8 
REMARK    4  A    between atoms: C_8  and  C_9 
REMARK    5  A    between atoms: C_21  and  O_22 
REMARK    6  A    between atoms: O_22  and  C_23 
ROOT
HETATM    1  N   UNL     1     -40.983  56.921 -53.215  1.00  0.00    -0.308 N 
HETATM    2  C   UNL     1     -41.426  57.980 -53.948  1.00  0.00     0.322 C 
HETATM    3  N   UNL     1     -42.641  57.897 -54.596  1.00  0.00    -0.338 N 
HETATM    4  C   UNL     1     -43.725  57.010 -54.182  1.00  0.00     0.154 C 
HETATM    5  O   UNL     1     -40.760  59.017 -53.934  1.00  0.00    -0.247 OA
HETATM    6  H   UNL     1     -40.300  57.207 -52.525  1.00  0.00     0.170 HD
ENDROOT
BRANCH   1   7
HETATM    7  C   UNL     1     -40.974  55.545 -53.532  1.00  0.00     0.042 A 
HETATM    8  C   UNL     1     -41.506  54.630 -52.599  1.00  0.00    -0.033 A 
HETATM    9  C   UNL     1     -42.128  55.084 -51.305  1.00  0.00     0.050 C 
HETATM   10  C   UNL     1     -41.456  53.253 -52.879  1.00  0.00     0.045 A 
HETATM   11  C   UNL     1     -40.909  52.795 -54.077  1.00  0.00     0.075 A 
HETATM   12  C   UNL     1     -40.351  53.695 -54.978  1.00  0.00     0.039 A 
HETATM   13  C   UNL     1     -40.387  55.065 -54.709  1.00  0.00     0.033 A 
BRANCH  11  14
HETATM   14  O   UNL     1     -40.807  51.466 -54.377  1.00  0.00    -0.290 OA
BRANCH  14  15
HETATM   15  C   UNL     1     -39.530  50.939 -54.039  1.00  0.00     0.505 C 
HETATM   16  F   UNL     1     -39.514  50.616 -52.721  1.00  0.00    -0.184 F 
HETATM   17  F   UNL     1     -39.380  49.777 -54.725  1.00  0.00    -0.184 F 
ENDBRANCH  14  15
ENDBRANCH  11  14
ENDBRANCH   1   7
BRANCH   3  18
HETATM   18  C   UNL     1     -43.039  59.024 -55.446  1.00  0.00     0.132 C 
BRANCH  18  19
HETATM   19  C   UNL     1     -42.630  58.839 -56.917  1.00  0.00     0.062 C 
BRANCH  19  20
HETATM   20  C   UNL     1     -43.660  58.110 -57.719  1.00  0.00    -0.007 A 
HETATM   21  C   UNL     1     -44.751  58.669 -58.445  1.00  0.00     0.059 A 
HETATM   22  C   UNL     1     -45.123  60.097 -58.599  1.00  0.00     0.073 C 
HETATM   23  N   UNL     1     -45.479  57.725 -59.051  1.00  0.00    -0.179 NA
HETATM   24  N   UNL     1     -44.860  56.580 -58.736  1.00  0.00    -0.282 N 
HETATM   25  H   UNL     1     -45.241  55.715 -59.104  1.00  0.00     0.189 HD
HETATM   26  C   UNL     1     -43.764  56.748 -57.939  1.00  0.00     0.032 A 
HETATM   27  C   UNL     1     -42.940  55.607 -57.479  1.00  0.00     0.070 C 
ENDBRANCH  19  20
ENDBRANCH  18  19
ENDBRANCH   3  18
TORSDOF 6
ENDMDL
MODEL 8
REMARK VINA RESULT:      -6.9      4.035      6.758
REMARK  6 active torsions:
REMARK  status: ('A' for Active; 'I' for Inactive)
REMARK    1  A    between atoms: C_3  and  N_4 
REMARK       I    between atoms: N_4  and  C_5 
REMARK       I    between atoms: C_5  and  N_6 
REMARK    2  A    between atoms: N_6  and  C_7 
REMARK    3  A    between atoms: C_7  and  C_8 
REMARK    4  A    between atoms: C_8  and  C_9 
REMARK    5  A    between atoms: C_21  and  O_22 
REMARK    6  A    between atoms: O_22  and  C_23 
ROOT
HETATM    1  N   UNL     1     -44.137  55.631 -51.507  1.00  0.00    -0.308 N 
HETATM    2  C   UNL     1     -44.417  56.960 -51.616  1.00  0.00     0.322 C 
HETATM    3  N   UNL     1     -44.299  57.580 -52.843  1.00  0.00    -0.338 N 
HETATM    4  C   UNL     1     -44.396  56.880 -54.121  1.00  0.00     0.154 C 
HETATM    5  O   UNL     1     -44.854  57.546 -50.625  1.00  0.00    -0.247 OA
HETATM    6  H   UNL     1     -44.585  55.223 -50.696  1.00  0.00     0.170 HD
ENDROOT
BRANCH   1   7
HETATM    7  C   UNL     1     -43.054  54.891 -52.028  1.00  0.00     0.042 A 
HETATM    8  C   UNL     1     -41.839  54.868 -51.311  1.00  0.00    -0.033 A 
HETATM    9  C   UNL     1     -41.685  55.566 -49.985  1.00  0.00     0.050 C 
HETATM   10  C   UNL     1     -40.737  54.177 -51.844  1.00  0.00     0.045 A 
HETATM   11  C   UNL     1     -40.847  53.499 -53.058  1.00  0.00     0.075 A 
HETATM   12  C   UNL     1     -42.033  53.555 -53.782  1.00  0.00     0.039 A 
HETATM   13  C   UNL     1     -43.133  54.243 -53.267  1.00  0.00     0.033 A 
BRANCH  11  14
HETATM   14  O   UNL     1     -39.794  52.844 -53.630  1.00  0.00    -0.290 OA
BRANCH  14  15
HETATM   15  C   UNL     1     -39.735  51.480 -53.233  1.00  0.00     0.505 C 
HETATM   16  F   UNL     1     -39.115  50.759 -54.200  1.00  0.00    -0.184 F 
HETATM   17  F   UNL     1     -38.942  51.415 -52.132  1.00  0.00    -0.184 F 
ENDBRANCH  14  15
ENDBRANCH  11  14
ENDBRANCH   1   7
BRANCH   3  18
HETATM   18  C   UNL     1     -44.522  59.028 -52.900  1.00  0.00     0.132 C 
BRANCH  18  19
HETATM   19  C   UNL     1     -43.240  59.821 -53.202  1.00  0.00     0.062 C 
BRANCH  19  20
HETATM   20  C   UNL     1     -42.156  59.574 -52.203  1.00  0.00    -0.007 A 
HETATM   21  C   UNL     1     -41.997  60.184 -50.925  1.00  0.00     0.059 A 
HETATM   22  C   UNL     1     -42.866  61.191 -50.268  1.00  0.00     0.073 C 
HETATM   23  N   UNL     1     -40.912  59.729 -50.289  1.00  0.00    -0.179 NA
HETATM   24  N   UNL     1     -40.389  58.830 -51.134  1.00  0.00    -0.282 N 
HETATM   25  H   UNL     1     -39.548  58.340 -50.849  1.00  0.00     0.189 HD
HETATM   26  C   UNL     1     -41.091  58.695 -52.298  1.00  0.00     0.032 A 
HETATM   27  C   UNL     1     -40.680  57.753 -53.363  1.00  0.00     0.070 C 
ENDBRANCH  19  20
ENDBRANCH  18  19
ENDBRANCH   3  18
TORSDOF 6
ENDMDL
MODEL 9
REMARK VINA RESULT:      -6.8     13.750     15.622
REMARK  6 active torsions:
REMARK  status: ('A' for Active; 'I' for Inactive)
REMARK    1  A    between atoms: C_3  and  N_4 
REMARK       I    between atoms: N_4  and  C_5 
REMARK       I    between atoms: C_5  and  N_6 
REMARK    2  A    between atoms: N_6  and  C_7 
REMARK    3  A    between atoms: C_7  and  C_8 
REMARK    4  A    between atoms: C_8  and  C_9 
REMARK    5  A    between atoms: C_21  and  O_22 
REMARK    6  A    between atoms: O_22  and  C_23 
ROOT
HETATM    1  N   UNL     1     -34.907  42.008 -54.023  1.00  0.00    -0.308 N 
HETATM    2  C   UNL     1     -35.021  41.500 -52.764  1.00  0.00     0.322 C 
HETATM    3  N   UNL     1     -35.205  40.144 -52.593  1.00  0.00    -0.338 N 
HETATM    4  C   UNL     1     -34.793  39.138 -53.568  1.00  0.00     0.154 C 
HETATM    5  O   UNL     1     -34.865  42.267 -51.811  1.00  0.00    -0.247 OA
HETATM    6  H   UNL     1     -34.434  42.903 -54.021  1.00  0.00     0.170 HD
ENDROOT
BRANCH   1   7
HETATM    7  C   UNL     1     -35.674  41.739 -55.177  1.00  0.00     0.042 A 
HETATM    8  C   UNL     1     -35.012  41.319 -56.350  1.00  0.00    -0.033 A 
HETATM    9  C   UNL     1     -33.523  41.100 -56.388  1.00  0.00     0.050 C 
HETATM   10  C   UNL     1     -35.758  41.098 -57.521  1.00  0.00     0.045 A 
HETATM   11  C   UNL     1     -37.142  41.268 -57.520  1.00  0.00     0.075 A 
HETATM   12  C   UNL     1     -37.788  41.719 -56.374  1.00  0.00     0.039 A 
HETATM   13  C   UNL     1     -37.058  41.949 -55.206  1.00  0.00     0.033 A 
BRANCH  11  14
HETATM   14  O   UNL     1     -37.904  41.099 -58.641  1.00  0.00    -0.290 OA
BRANCH  14  15
HETATM   15  C   UNL     1     -37.187  41.422 -59.826  1.00  0.00     0.505 C 
HETATM   16  F   UNL     1     -37.580  40.595 -60.827  1.00  0.00    -0.184 F 
HETATM   17  F   UNL     1     -37.558  42.676 -60.192  1.00  0.00    -0.184 F 
ENDBRANCH  14  15
ENDBRANCH  11  14
ENDBRANCH   1   7
BRANCH   3  18
HETATM   18  C   UNL     1     -35.411  39.651 -51.228  1.00  0.00     0.132 C 
BRANCH  18  19
HETATM   19  C   UNL     1     -34.444  38.517 -50.846  1.00  0.00     0.062 C 
BRANCH  19  20
HETATM   20  C   UNL     1     -33.329  38.978 -49.964  1.00  0.00    -0.007 A 
HETATM   21  C   UNL     1     -33.155  38.716 -48.575  1.00  0.00     0.059 A 
HETATM   22  C   UNL     1     -34.017  37.914 -47.672  1.00  0.00     0.073 C 
HETATM   23  N   UNL     1     -32.041  39.283 -48.099  1.00  0.00    -0.179 NA
HETATM   24  N   UNL     1     -31.498  39.887 -49.163  1.00  0.00    -0.282 N 
HETATM   25  H   UNL     1     -30.623  40.383 -49.036  1.00  0.00     0.189 HD
HETATM   26  C   UNL     1     -32.227  39.740 -50.310  1.00  0.00     0.032 A 
HETATM   27  C   UNL     1     -31.798  40.330 -51.598  1.00  0.00     0.070 C 
ENDBRANCH  19  20
ENDBRANCH  18  19
ENDBRANCH   3  18
TORSDOF 6
ENDMDL
MODEL 10
REMARK VINA RESULT:      -6.8      3.689      7.780
REMARK  6 active torsions:
REMARK  status: ('A' for Active; 'I' for Inactive)
REMARK    1  A    between atoms: C_3  and  N_4 
REMARK       I    between atoms: N_4  and  C_5 
REMARK       I    between atoms: C_5  and  N_6 
REMARK    2  A    between atoms: N_6  and  C_7 
REMARK    3  A    between atoms: C_7  and  C_8 
REMARK    4  A    between atoms: C_8  and  C_9 
REMARK    5  A    between atoms: C_21  and  O_22 
REMARK    6  A    between atoms: O_22  and  C_23 
ROOT
HETATM    1  N   UNL     1     -41.312  56.482 -53.442  1.00  0.00    -0.308 N 
HETATM    2  C   UNL     1     -42.048  57.165 -54.362  1.00  0.00     0.322 C 
HETATM    3  N   UNL     1     -43.235  56.628 -54.816  1.00  0.00    -0.338 N 
HETATM    4  C   UNL     1     -44.033  55.665 -54.062  1.00  0.00     0.154 C 
HETATM    5  O   UNL     1     -41.667  58.289 -54.693  1.00  0.00    -0.247 OA
HETATM    6  H   UNL     1     -40.688  57.097 -52.934  1.00  0.00     0.170 HD
ENDROOT
BRANCH   1   7
HETATM    7  C   UNL     1     -40.970  55.113 -53.395  1.00  0.00     0.042 A 
HETATM    8  C   UNL     1     -41.015  54.443 -52.154  1.00  0.00    -0.033 A 
HETATM    9  C   UNL     1     -41.467  55.134 -50.894  1.00  0.00     0.050 C 
HETATM   10  C   UNL     1     -40.628  53.094 -52.084  1.00  0.00     0.045 A 
HETATM   11  C   UNL     1     -40.225  52.413 -53.233  1.00  0.00     0.075 A 
HETATM   12  C   UNL     1     -40.145  53.085 -54.448  1.00  0.00     0.039 A 
HETATM   13  C   UNL     1     -40.520  54.427 -54.529  1.00  0.00     0.033 A 
BRANCH  11  14
HETATM   14  O   UNL     1     -39.808  51.113 -53.207  1.00  0.00    -0.290 OA
BRANCH  14  15
HETATM   15  C   UNL     1     -39.916  50.493 -54.482  1.00  0.00     0.505 C 
HETATM   16  F   UNL     1     -39.051  49.451 -54.548  1.00  0.00    -0.184 F 
HETATM   17  F   UNL     1     -41.165  49.967 -54.570  1.00  0.00    -0.184 F 
ENDBRANCH  14  15
ENDBRANCH  11  14
ENDBRANCH   1   7
BRANCH   3  18
HETATM   18  C   UNL     1     -43.951  57.351 -55.871  1.00  0.00     0.132 C 
BRANCH  18  19
HETATM   19  C   UNL     1     -45.284  57.950 -55.390  1.00  0.00     0.062 C 
BRANCH  19  20
HETATM   20  C   UNL     1     -45.121  59.294 -54.758  1.00  0.00    -0.007 A 
HETATM   21  C   UNL     1     -45.152  60.566 -55.400  1.00  0.00     0.059 A 
HETATM   22  C   UNL     1     -45.367  60.869 -56.837  1.00  0.00     0.073 C 
HETATM   23  N   UNL     1     -44.972  61.566 -54.531  1.00  0.00    -0.179 NA
HETATM   24  N   UNL     1     -44.844  60.953 -53.347  1.00  0.00    -0.282 N 
HETATM   25  H   UNL     1     -44.707  61.529 -52.523  1.00  0.00     0.189 HD
HETATM   26  C   UNL     1     -44.924  59.591 -53.421  1.00  0.00     0.032 A 
HETATM   27  C   UNL     1     -44.809  58.728 -52.224  1.00  0.00     0.070 C 
ENDBRANCH  19  20
ENDBRANCH  18  19
ENDBRANCH   3  18
TORSDOF 6
ENDMDL
