MODEL 1
REMARK VINA RESULT:      -8.5      0.000      0.000
REMARK  6 active torsions:
REMARK  status: ('A' for Active; 'I' for Inactive)
REMARK    1  A    between atoms: C_3  and  N_4 
REMARK       I    between atoms: N_4  and  C_5 
REMARK    2  A    between atoms: C_5  and  C_6 
REMARK       I    between atoms: C_6  and  N_7 
REMARK    3  A    between atoms: N_7  and  C_8 
REMARK    4  A    between atoms: C_9  and  C_10 
REMARK    5  A    between atoms: C_23  and  C_24 
REMARK       I    between atoms: C_24  and  N_25 
REMARK    6  A    between atoms: N_25  and  C_26 
ROOT
HETATM    1  N   UNL     1     -42.479  57.078 -53.712  1.00  0.00    -0.318 N 
HETATM    2  C   UNL     1     -43.575  56.983 -52.878  1.00  0.00     0.314 C 
HETATM    3  O   UNL     1     -44.700  57.439 -53.023  1.00  0.00    -0.262 OA
HETATM    4  H   UNL     1     -41.665  56.580 -53.360  1.00  0.00     0.169 HD
ENDROOT
BRANCH   2   5
HETATM    5  C   UNL     1     -43.257  56.165 -51.609  1.00  0.00     0.314 C 
HETATM    6  N   UNL     1     -41.945  55.768 -51.556  1.00  0.00    -0.316 N 
HETATM    7  H   UNL     1     -41.331  56.041 -52.329  1.00  0.00     0.169 HD
HETATM    8  O   UNL     1     -44.160  55.957 -50.806  1.00  0.00    -0.262 OA
BRANCH   6   9
HETATM    9  C   UNL     1     -41.351  55.028 -50.552  1.00  0.00     0.085 A 
HETATM   10  C   UNL     1     -40.702  53.758 -50.703  1.00  0.00     0.133 A 
HETATM   11  N   UNL     1     -40.231  53.328 -49.515  1.00  0.00    -0.171 NA
HETATM   12  N   UNL     1     -40.578  54.294 -48.649  1.00  0.00    -0.286 N 
HETATM   13  H   UNL     1     -40.322  54.178 -47.675  1.00  0.00     0.188 HD
HETATM   14  C   UNL     1     -41.246  55.333 -49.219  1.00  0.00     0.141 A 
BRANCH  10  15
HETATM   15  C   UNL     1     -40.544  52.993 -51.950  1.00  0.00     0.089 A 
HETATM   16  N   UNL     1     -41.352  53.359 -52.985  1.00  0.00    -0.259 NA
HETATM   17  C   UNL     1     -41.229  52.671 -54.141  1.00  0.00     0.117 A 
HETATM   18  C   UNL     1     -40.331  51.633 -54.326  1.00  0.00     0.019 A 
HETATM   19  C   UNL     1     -39.512  51.273 -53.263  1.00  0.00     0.004 A 
HETATM   20  C   UNL     1     -39.618  51.960 -52.055  1.00  0.00     0.034 A 
ENDBRANCH  10  15
ENDBRANCH   6   9
ENDBRANCH   2   5
BRANCH   1  21
HETATM   21  C   UNL     1     -42.365  57.764 -54.937  1.00  0.00     0.042 A 
HETATM   22  C   UNL     1     -42.054  59.142 -54.916  1.00  0.00    -0.035 A 
HETATM   23  C   UNL     1     -41.826  59.895 -53.630  1.00  0.00     0.050 C 
HETATM   24  C   UNL     1     -41.964  59.850 -56.127  1.00  0.00     0.010 A 
HETATM   25  C   UNL     1     -42.169  59.208 -57.348  1.00  0.00     0.017 A 
HETATM   26  C   UNL     1     -42.457  57.841 -57.374  1.00  0.00     0.034 A 
HETATM   27  C   UNL     1     -42.564  57.130 -56.169  1.00  0.00     0.047 A 
BRANCH  26  28
HETATM   28  C   UNL     1     -42.698  57.113 -58.652  1.00  0.00     0.252 C 
HETATM   29  N   UNL     1     -43.529  56.009 -58.581  1.00  0.00    -0.352 N 
HETATM   30  H   UNL     1     -44.059  55.841 -57.736  1.00  0.00     0.163 HD
HETATM   31  O   UNL     1     -42.189  57.514 -59.693  1.00  0.00    -0.268 OA
BRANCH  29  32
HETATM   32  C   UNL     1     -43.876  55.252 -59.742  1.00  0.00     0.084 A 
HETATM   33  C   UNL     1     -44.679  53.987 -59.627  1.00  0.00     0.027 A 
HETATM   34  C   UNL     1     -45.300  55.214 -60.226  1.00  0.00     0.027 A 
ENDBRANCH  29  32
ENDBRANCH  26  28
ENDBRANCH   1  21
TORSDOF 6
ENDMDL
MODEL 2
REMARK VINA RESULT:      -8.3      2.527      7.640
REMARK  6 active torsions:
REMARK  status: ('A' for Active; 'I' for Inactive)
REMARK    1  A    between atoms: C_3  and  N_4 
REMARK       I    between atoms: N_4  and  C_5 
REMARK    2  A    between atoms: C_5  and  C_6 
REMARK       I    between atoms: C_6  and  N_7 
REMARK    3  A    between atoms: N_7  and  C_8 
REMARK    4  A    between atoms: C_9  and  C_10 
REMARK    5  A    between atoms: C_23  and  C_24 
REMARK       I    between atoms: C_24  and  N_25 
REMARK    6  A    between atoms: N_25  and  C_26 
ROOT
HETATM    1  N   UNL     1     -42.584  57.081 -53.644  1.00  0.00    -0.318 N 
HETATM    2  C   UNL     1     -41.699  58.100 -53.931  1.00  0.00     0.314 C 
HETATM    3  O   UNL     1     -40.585  58.310 -53.475  1.00  0.00    -0.262 OA
HETATM    4  H   UNL     1     -43.441  57.129 -54.191  1.00  0.00     0.169 HD
ENDROOT
BRANCH   2   5
HETATM    5  C   UNL     1     -42.266  59.065 -54.994  1.00  0.00     0.314 C 
HETATM    6  N   UNL     1     -43.587  58.822 -55.272  1.00  0.00    -0.316 N 
HETATM    7  H   UNL     1     -44.049  58.057 -54.770  1.00  0.00     0.169 HD
HETATM    8  O   UNL     1     -41.522  59.918 -55.466  1.00  0.00    -0.262 OA
BRANCH   6   9
HETATM    9  C   UNL     1     -44.378  59.511 -56.171  1.00  0.00     0.085 A 
HETATM   10  C   UNL     1     -44.577  59.184 -57.553  1.00  0.00     0.133 A 
HETATM   11  N   UNL     1     -45.415  60.069 -58.129  1.00  0.00    -0.171 NA
HETATM   12  N   UNL     1     -45.726  60.924 -57.141  1.00  0.00    -0.286 N 
HETATM   13  H   UNL     1     -46.356  61.691 -57.352  1.00  0.00     0.188 HD
HETATM   14  C   UNL     1     -45.135  60.633 -55.951  1.00  0.00     0.141 A 
BRANCH  10  15
HETATM   15  C   UNL     1     -43.979  58.056 -58.285  1.00  0.00     0.089 A 
HETATM   16  N   UNL     1     -43.699  56.944 -57.549  1.00  0.00    -0.259 NA
HETATM   17  C   UNL     1     -43.148  55.894 -58.197  1.00  0.00     0.117 A 
HETATM   18  C   UNL     1     -42.863  55.891 -59.552  1.00  0.00     0.019 A 
HETATM   19  C   UNL     1     -43.156  57.031 -60.290  1.00  0.00     0.004 A 
HETATM   20  C   UNL     1     -43.722  58.133 -59.651  1.00  0.00     0.034 A 
ENDBRANCH  10  15
ENDBRANCH   6   9
ENDBRANCH   2   5
BRANCH   1  21
HETATM   21  C   UNL     1     -42.444  56.033 -52.713  1.00  0.00     0.042 A 
HETATM   22  C   UNL     1     -43.269  56.031 -51.566  1.00  0.00    -0.035 A 
HETATM   23  C   UNL     1     -44.301  57.101 -51.316  1.00  0.00     0.050 C 
HETATM   24  C   UNL     1     -43.124  55.009 -50.612  1.00  0.00     0.010 A 
HETATM   25  C   UNL     1     -42.183  53.994 -50.787  1.00  0.00     0.017 A 
HETATM   26  C   UNL     1     -41.380  53.982 -51.930  1.00  0.00     0.034 A 
HETATM   27  C   UNL     1     -41.507  55.007 -52.879  1.00  0.00     0.047 A 
BRANCH  26  28
HETATM   28  C   UNL     1     -40.350  52.928 -52.155  1.00  0.00     0.252 C 
HETATM   29  N   UNL     1     -40.471  52.194 -53.322  1.00  0.00    -0.352 N 
HETATM   30  H   UNL     1     -41.121  52.498 -54.034  1.00  0.00     0.163 HD
HETATM   31  O   UNL     1     -39.449  52.764 -51.340  1.00  0.00    -0.268 OA
BRANCH  29  32
HETATM   32  C   UNL     1     -39.523  51.186 -53.678  1.00  0.00     0.084 A 
HETATM   33  C   UNL     1     -39.636  49.792 -53.128  1.00  0.00     0.027 A 
HETATM   34  C   UNL     1     -39.924  50.049 -54.577  1.00  0.00     0.027 A 
ENDBRANCH  29  32
ENDBRANCH  26  28
ENDBRANCH   1  21
TORSDOF 6
ENDMDL
MODEL 3
REMARK VINA RESULT:      -8.2      2.404      8.193
REMARK  6 active torsions:
REMARK  status: ('A' for Active; 'I' for Inactive)
REMARK    1  A    between atoms: C_3  and  N_4 
REMARK       I    between atoms: N_4  and  C_5 
REMARK    2  A    between atoms: C_5  and  C_6 
REMARK       I    between atoms: C_6  and  N_7 
REMARK    3  A    between atoms: N_7  and  C_8 
REMARK    4  A    between atoms: C_9  and  C_10 
REMARK    5  A    between atoms: C_23  and  C_24 
REMARK       I    between atoms: C_24  and  N_25 
REMARK    6  A    between atoms: N_25  and  C_26 
ROOT
HETATM    1  N   UNL     1     -42.768  56.561 -54.110  1.00  0.00    -0.318 N 
HETATM    2  C   UNL     1     -43.039  56.180 -55.409  1.00  0.00     0.314 C 
HETATM    3  O   UNL     1     -43.133  55.057 -55.883  1.00  0.00    -0.262 OA
HETATM    4  H   UNL     1     -42.773  57.570 -53.980  1.00  0.00     0.169 HD
ENDROOT
BRANCH   2   5
HETATM    5  C   UNL     1     -43.247  57.400 -56.329  1.00  0.00     0.314 C 
HETATM    6  N   UNL     1     -42.474  57.343 -57.461  1.00  0.00    -0.316 N 
HETATM    7  H   UNL     1     -41.860  56.531 -57.579  1.00  0.00     0.169 HD
HETATM    8  O   UNL     1     -44.045  58.264 -55.983  1.00  0.00    -0.262 OA
BRANCH   6   9
HETATM    9  C   UNL     1     -42.433  58.277 -58.477  1.00  0.00     0.085 A 
HETATM   10  C   UNL     1     -43.265  58.299 -59.645  1.00  0.00     0.133 A 
HETATM   11  N   UNL     1     -42.955  59.355 -60.423  1.00  0.00    -0.171 NA
HETATM   12  N   UNL     1     -41.957  59.970 -59.767  1.00  0.00    -0.286 N 
HETATM   13  H   UNL     1     -41.557  60.807 -60.178  1.00  0.00     0.188 HD
HETATM   14  C   UNL     1     -41.611  59.368 -58.598  1.00  0.00     0.141 A 
BRANCH  10  15
HETATM   15  C   UNL     1     -44.322  57.335 -59.991  1.00  0.00     0.089 A 
HETATM   16  N   UNL     1     -43.925  56.236 -60.692  1.00  0.00    -0.259 NA
HETATM   17  C   UNL     1     -44.877  55.336 -61.024  1.00  0.00     0.117 A 
HETATM   18  C   UNL     1     -46.213  55.470 -60.688  1.00  0.00     0.019 A 
HETATM   19  C   UNL     1     -46.603  56.595 -59.971  1.00  0.00     0.004 A 
HETATM   20  C   UNL     1     -45.646  57.545 -59.617  1.00  0.00     0.034 A 
ENDBRANCH  10  15
ENDBRANCH   6   9
ENDBRANCH   2   5
BRANCH   1  21
HETATM   21  C   UNL     1     -42.490  55.745 -52.996  1.00  0.00     0.042 A 
HETATM   22  C   UNL     1     -43.138  56.025 -51.772  1.00  0.00    -0.035 A 
HETATM   23  C   UNL     1     -44.125  57.155 -51.625  1.00  0.00     0.050 C 
HETATM   24  C   UNL     1     -42.852  55.240 -50.642  1.00  0.00     0.010 A 
HETATM   25  C   UNL     1     -41.945  54.183 -50.715  1.00  0.00     0.017 A 
HETATM   26  C   UNL     1     -41.317  53.890 -51.929  1.00  0.00     0.034 A 
HETATM   27  C   UNL     1     -41.585  54.679 -53.058  1.00  0.00     0.047 A 
BRANCH  26  28
HETATM   28  C   UNL     1     -40.329  52.781 -52.055  1.00  0.00     0.252 C 
HETATM   29  N   UNL     1     -40.312  52.111 -53.265  1.00  0.00    -0.352 N 
HETATM   30  H   UNL     1     -40.826  52.490 -54.049  1.00  0.00     0.163 HD
HETATM   31  O   UNL     1     -39.575  52.521 -51.124  1.00  0.00    -0.268 OA
BRANCH  29  32
HETATM   32  C   UNL     1     -39.382  51.059 -53.530  1.00  0.00     0.084 A 
HETATM   33  C   UNL     1     -39.647  49.658 -53.057  1.00  0.00     0.027 A 
HETATM   34  C   UNL     1     -39.717  49.979 -54.521  1.00  0.00     0.027 A 
ENDBRANCH  29  32
ENDBRANCH  26  28
ENDBRANCH   1  21
TORSDOF 6
ENDMDL
MODEL 4
REMARK VINA RESULT:      -8.1      1.828      3.264
REMARK  6 active torsions:
REMARK  status: ('A' for Active; 'I' for Inactive)
REMARK    1  A    between atoms: C_3  and  N_4 
REMARK       I    between atoms: N_4  and  C_5 
REMARK    2  A    between atoms: C_5  and  C_6 
REMARK       I    between atoms: C_6  and  N_7 
REMARK    3  A    between atoms: N_7  and  C_8 
REMARK    4  A    between atoms: C_9  and  C_10 
REMARK    5  A    between atoms: C_23  and  C_24 
REMARK       I    between atoms: C_24  and  N_25 
REMARK    6  A    between atoms: N_25  and  C_26 
ROOT
HETATM    1  N   UNL     1     -42.691  56.425 -54.090  1.00  0.00    -0.318 N 
HETATM    2  C   UNL     1     -43.567  56.807 -53.093  1.00  0.00     0.314 C 
HETATM    3  O   UNL     1     -44.526  57.561 -53.153  1.00  0.00    -0.262 OA
HETATM    4  H   UNL     1     -41.990  55.761 -53.773  1.00  0.00     0.169 HD
ENDROOT
BRANCH   2   5
HETATM    5  C   UNL     1     -43.222  56.141 -51.745  1.00  0.00     0.314 C 
HETATM    6  N   UNL     1     -41.940  55.655 -51.712  1.00  0.00    -0.316 N 
HETATM    7  H   UNL     1     -41.360  55.777 -52.549  1.00  0.00     0.169 HD
HETATM    8  O   UNL     1     -44.081  56.109 -50.872  1.00  0.00    -0.262 OA
BRANCH   6   9
HETATM    9  C   UNL     1     -41.332  55.010 -50.654  1.00  0.00     0.085 A 
HETATM   10  C   UNL     1     -40.632  53.759 -50.708  1.00  0.00     0.133 A 
HETATM   11  N   UNL     1     -40.162  53.429 -49.488  1.00  0.00    -0.171 NA
HETATM   12  N   UNL     1     -40.560  54.438 -48.695  1.00  0.00    -0.286 N 
HETATM   13  H   UNL     1     -40.314  54.400 -47.712  1.00  0.00     0.188 HD
HETATM   14  C   UNL     1     -41.259  55.409 -49.343  1.00  0.00     0.141 A 
BRANCH  10  15
HETATM   15  C   UNL     1     -40.425  52.918 -51.898  1.00  0.00     0.089 A 
HETATM   16  N   UNL     1     -41.123  53.274 -53.013  1.00  0.00    -0.259 NA
HETATM   17  C   UNL     1     -40.953  52.517 -54.119  1.00  0.00     0.117 A 
HETATM   18  C   UNL     1     -40.114  51.417 -54.176  1.00  0.00     0.019 A 
HETATM   19  C   UNL     1     -39.407  51.067 -53.032  1.00  0.00     0.004 A 
HETATM   20  C   UNL     1     -39.564  51.825 -51.873  1.00  0.00     0.034 A 
ENDBRANCH  10  15
ENDBRANCH   6   9
ENDBRANCH   2   5
BRANCH   1  21
HETATM   21  C   UNL     1     -42.658  56.841 -55.436  1.00  0.00     0.042 A 
HETATM   22  C   UNL     1     -42.926  55.889 -56.445  1.00  0.00    -0.035 A 
HETATM   23  C   UNL     1     -43.260  54.454 -56.129  1.00  0.00     0.050 C 
HETATM   24  C   UNL     1     -42.869  56.279 -57.795  1.00  0.00     0.010 A 
HETATM   25  C   UNL     1     -42.561  57.592 -58.149  1.00  0.00     0.017 A 
HETATM   26  C   UNL     1     -42.315  58.540 -57.153  1.00  0.00     0.034 A 
HETATM   27  C   UNL     1     -42.354  58.157 -55.804  1.00  0.00     0.047 A 
BRANCH  26  28
HETATM   28  C   UNL     1     -41.968  59.953 -57.480  1.00  0.00     0.252 C 
HETATM   29  N   UNL     1     -42.116  60.329 -58.803  1.00  0.00    -0.352 N 
HETATM   30  H   UNL     1     -42.599  59.711 -59.443  1.00  0.00     0.163 HD
HETATM   31  O   UNL     1     -41.595  60.714 -56.595  1.00  0.00    -0.268 OA
BRANCH  29  32
HETATM   32  C   UNL     1     -41.860  61.665 -59.238  1.00  0.00     0.084 A 
HETATM   33  C   UNL     1     -40.460  62.209 -59.279  1.00  0.00     0.027 A 
HETATM   34  C   UNL     1     -41.186  61.919 -60.559  1.00  0.00     0.027 A 
ENDBRANCH  29  32
ENDBRANCH  26  28
ENDBRANCH   1  21
TORSDOF 6
ENDMDL
MODEL 5
REMARK VINA RESULT:      -8.1      2.397      8.485
REMARK  6 active torsions:
REMARK  status: ('A' for Active; 'I' for Inactive)
REMARK    1  A    between atoms: C_3  and  N_4 
REMARK       I    between atoms: N_4  and  C_5 
REMARK    2  A    between atoms: C_5  and  C_6 
REMARK       I    between atoms: C_6  and  N_7 
REMARK    3  A    between atoms: N_7  and  C_8 
REMARK    4  A    between atoms: C_9  and  C_10 
REMARK    5  A    between atoms: C_23  and  C_24 
REMARK       I    between atoms: C_24  and  N_25 
REMARK    6  A    between atoms: N_25  and  C_26 
ROOT
HETATM    1  N   UNL     1     -43.385  55.862 -54.731  1.00  0.00    -0.318 N 
HETATM    2  C   UNL     1     -42.843  56.591 -55.770  1.00  0.00     0.314 C 
HETATM    3  O   UNL     1     -41.802  57.228 -55.807  1.00  0.00    -0.262 OA
HETATM    4  H   UNL     1     -44.259  55.403 -54.977  1.00  0.00     0.169 HD
ENDROOT
BRANCH   2   5
HETATM    5  C   UNL     1     -43.735  56.539 -57.028  1.00  0.00     0.314 C 
HETATM    6  N   UNL     1     -43.352  55.554 -57.903  1.00  0.00    -0.316 N 
HETATM    7  H   UNL     1     -42.546  54.974 -57.646  1.00  0.00     0.169 HD
HETATM    8  O   UNL     1     -44.657  57.341 -57.125  1.00  0.00    -0.262 OA
BRANCH   6   9
HETATM    9  C   UNL     1     -43.946  55.252 -59.112  1.00  0.00     0.085 A 
HETATM   10  C   UNL     1     -44.056  56.123 -60.247  1.00  0.00     0.133 A 
HETATM   11  N   UNL     1     -44.692  55.498 -61.258  1.00  0.00    -0.171 NA
HETATM   12  N   UNL     1     -44.976  54.279 -60.770  1.00  0.00    -0.286 N 
HETATM   13  H   UNL     1     -45.466  53.625 -61.371  1.00  0.00     0.188 HD
HETATM   14  C   UNL     1     -44.548  54.081 -59.494  1.00  0.00     0.141 A 
BRANCH  10  15
HETATM   15  C   UNL     1     -43.562  57.505 -60.346  1.00  0.00     0.089 A 
HETATM   16  N   UNL     1     -42.207  57.660 -60.333  1.00  0.00    -0.259 NA
HETATM   17  C   UNL     1     -41.727  58.919 -60.421  1.00  0.00     0.117 A 
HETATM   18  C   UNL     1     -42.529  60.043 -60.528  1.00  0.00     0.019 A 
HETATM   19  C   UNL     1     -43.908  59.869 -60.542  1.00  0.00     0.004 A 
HETATM   20  C   UNL     1     -44.436  58.583 -60.449  1.00  0.00     0.034 A 
ENDBRANCH  10  15
ENDBRANCH   6   9
ENDBRANCH   2   5
BRANCH   1  21
HETATM   21  C   UNL     1     -42.889  55.696 -53.423  1.00  0.00     0.042 A 
HETATM   22  C   UNL     1     -43.385  56.533 -52.398  1.00  0.00    -0.035 A 
HETATM   23  C   UNL     1     -44.435  57.584 -52.657  1.00  0.00     0.050 C 
HETATM   24  C   UNL     1     -42.882  56.401 -51.093  1.00  0.00     0.010 A 
HETATM   25  C   UNL     1     -41.907  55.450 -50.794  1.00  0.00     0.017 A 
HETATM   26  C   UNL     1     -41.428  54.606 -51.800  1.00  0.00     0.034 A 
HETATM   27  C   UNL     1     -41.914  54.742 -53.109  1.00  0.00     0.047 A 
BRANCH  26  28
HETATM   28  C   UNL     1     -40.376  53.584 -51.534  1.00  0.00     0.252 C 
HETATM   29  N   UNL     1     -40.353  52.494 -52.386  1.00  0.00    -0.352 N 
HETATM   30  H   UNL     1     -40.913  52.511 -53.228  1.00  0.00     0.163 HD
HETATM   31  O   UNL     1     -39.581  53.746 -50.615  1.00  0.00    -0.268 OA
BRANCH  29  32
HETATM   32  C   UNL     1     -39.366  51.468 -52.267  1.00  0.00     0.084 A 
HETATM   33  C   UNL     1     -39.576  50.300 -51.346  1.00  0.00     0.027 A 
HETATM   34  C   UNL     1     -39.623  50.097 -52.831  1.00  0.00     0.027 A 
ENDBRANCH  29  32
ENDBRANCH  26  28
ENDBRANCH   1  21
TORSDOF 6
ENDMDL
MODEL 6
REMARK VINA RESULT:      -8.0      1.986      2.115
REMARK  6 active torsions:
REMARK  status: ('A' for Active; 'I' for Inactive)
REMARK    1  A    between atoms: C_3  and  N_4 
REMARK       I    between atoms: N_4  and  C_5 
REMARK    2  A    between atoms: C_5  and  C_6 
REMARK       I    between atoms: C_6  and  N_7 
REMARK    3  A    between atoms: N_7  and  C_8 
REMARK    4  A    between atoms: C_9  and  C_10 
REMARK    5  A    between atoms: C_23  and  C_24 
REMARK       I    between atoms: C_24  and  N_25 
REMARK    6  A    between atoms: N_25  and  C_26 
ROOT
HETATM    1  N   UNL     1     -44.180  57.474 -52.917  1.00  0.00    -0.318 N 
HETATM    2  C   UNL     1     -42.890  57.324 -52.449  1.00  0.00     0.314 C 
HETATM    3  O   UNL     1     -41.868  57.894 -52.799  1.00  0.00    -0.262 OA
HETATM    4  H   UNL     1     -44.853  56.889 -52.429  1.00  0.00     0.169 HD
ENDROOT
BRANCH   2   5
HETATM    5  C   UNL     1     -42.812  56.274 -51.321  1.00  0.00     0.314 C 
HETATM    6  N   UNL     1     -41.538  55.805 -51.127  1.00  0.00    -0.316 N 
HETATM    7  H   UNL     1     -40.794  56.181 -51.724  1.00  0.00     0.169 HD
HETATM    8  O   UNL     1     -43.843  55.972 -50.730  1.00  0.00    -0.262 OA
BRANCH   6   9
HETATM    9  C   UNL     1     -41.140  54.865 -50.197  1.00  0.00     0.085 A 
HETATM   10  C   UNL     1     -40.670  53.539 -50.474  1.00  0.00     0.133 A 
HETATM   11  N   UNL     1     -40.364  52.899 -49.328  1.00  0.00    -0.171 NA
HETATM   12  N   UNL     1     -40.640  53.793 -48.364  1.00  0.00    -0.286 N 
HETATM   13  H   UNL     1     -40.485  53.521 -47.399  1.00  0.00     0.188 HD
HETATM   14  C   UNL     1     -41.103  54.984 -48.831  1.00  0.00     0.141 A 
BRANCH  10  15
HETATM   15  C   UNL     1     -40.519  52.918 -51.800  1.00  0.00     0.089 A 
HETATM   16  N   UNL     1     -41.325  53.406 -52.785  1.00  0.00    -0.259 NA
HETATM   17  C   UNL     1     -41.209  52.852 -54.012  1.00  0.00     0.117 A 
HETATM   18  C   UNL     1     -40.322  51.833 -54.314  1.00  0.00     0.019 A 
HETATM   19  C   UNL     1     -39.505  51.347 -53.300  1.00  0.00     0.004 A 
HETATM   20  C   UNL     1     -39.603  51.895 -52.022  1.00  0.00     0.034 A 
ENDBRANCH  10  15
ENDBRANCH   6   9
ENDBRANCH   2   5
BRANCH   1  21
HETATM   21  C   UNL     1     -44.646  58.306 -53.955  1.00  0.00     0.042 A 
HETATM   22  C   UNL     1     -44.992  59.641 -53.650  1.00  0.00    -0.035 A 
HETATM   23  C   UNL     1     -44.864  60.207 -52.258  1.00  0.00     0.050 C 
HETATM   24  C   UNL     1     -45.485  60.477 -54.666  1.00  0.00     0.010 A 
HETATM   25  C   UNL     1     -45.629  60.008 -55.972  1.00  0.00     0.017 A 
HETATM   26  C   UNL     1     -45.269  58.694 -56.282  1.00  0.00     0.034 A 
HETATM   27  C   UNL     1     -44.790  57.848 -55.270  1.00  0.00     0.047 A 
BRANCH  26  28
HETATM   28  C   UNL     1     -45.417  58.142 -57.658  1.00  0.00     0.252 C 
HETATM   29  N   UNL     1     -44.615  57.060 -57.974  1.00  0.00    -0.352 N 
HETATM   30  H   UNL     1     -44.103  56.592 -57.239  1.00  0.00     0.163 HD
HETATM   31  O   UNL     1     -46.232  58.633 -58.432  1.00  0.00    -0.268 OA
BRANCH  29  32
HETATM   32  C   UNL     1     -44.694  56.411 -59.244  1.00  0.00     0.084 A 
HETATM   33  C   UNL     1     -43.722  56.741 -60.341  1.00  0.00     0.027 A 
HETATM   34  C   UNL     1     -43.648  55.411 -59.653  1.00  0.00     0.027 A 
ENDBRANCH  29  32
ENDBRANCH  26  28
ENDBRANCH   1  21
TORSDOF 6
ENDMDL
MODEL 7
REMARK VINA RESULT:      -7.7      2.979      4.527
REMARK  6 active torsions:
REMARK  status: ('A' for Active; 'I' for Inactive)
REMARK    1  A    between atoms: C_3  and  N_4 
REMARK       I    between atoms: N_4  and  C_5 
REMARK    2  A    between atoms: C_5  and  C_6 
REMARK       I    between atoms: C_6  and  N_7 
REMARK    3  A    between atoms: N_7  and  C_8 
REMARK    4  A    between atoms: C_9  and  C_10 
REMARK    5  A    between atoms: C_23  and  C_24 
REMARK       I    between atoms: C_24  and  N_25 
REMARK    6  A    between atoms: N_25  and  C_26 
ROOT
HETATM    1  N   UNL     1     -42.894  57.896 -56.303  1.00  0.00    -0.318 N 
HETATM    2  C   UNL     1     -44.084  57.956 -55.606  1.00  0.00     0.314 C 
HETATM    3  O   UNL     1     -45.194  58.285 -55.995  1.00  0.00    -0.262 OA
HETATM    4  H   UNL     1     -42.116  57.560 -55.739  1.00  0.00     0.169 HD
ENDROOT
BRANCH   2   5
HETATM    5  C   UNL     1     -43.905  57.523 -54.135  1.00  0.00     0.314 C 
HETATM    6  N   UNL     1     -42.613  57.668 -53.699  1.00  0.00    -0.316 N 
HETATM    7  H   UNL     1     -41.922  58.034 -54.362  1.00  0.00     0.169 HD
HETATM    8  O   UNL     1     -44.884  57.112 -53.523  1.00  0.00    -0.262 OA
BRANCH   6   9
HETATM    9  C   UNL     1     -42.133  57.373 -52.438  1.00  0.00     0.085 A 
HETATM   10  C   UNL     1     -41.385  56.207 -52.065  1.00  0.00     0.133 A 
HETATM   11  N   UNL     1     -41.076  56.247 -50.753  1.00  0.00    -0.171 NA
HETATM   12  N   UNL     1     -41.617  57.397 -50.319  1.00  0.00    -0.286 N 
HETATM   13  H   UNL     1     -41.509  57.638 -49.339  1.00  0.00     0.188 HD
HETATM   14  C   UNL     1     -42.256  58.108 -51.287  1.00  0.00     0.141 A 
BRANCH  10  15
HETATM   15  C   UNL     1     -40.984  55.099 -52.946  1.00  0.00     0.089 A 
HETATM   16  N   UNL     1     -40.593  55.446 -54.205  1.00  0.00    -0.259 NA
HETATM   17  C   UNL     1     -40.222  54.447 -55.036  1.00  0.00     0.117 A 
HETATM   18  C   UNL     1     -40.214  53.110 -54.676  1.00  0.00     0.019 A 
HETATM   19  C   UNL     1     -40.613  52.772 -53.388  1.00  0.00     0.004 A 
HETATM   20  C   UNL     1     -41.006  53.778 -52.508  1.00  0.00     0.034 A 
ENDBRANCH  10  15
ENDBRANCH   6   9
ENDBRANCH   2   5
BRANCH   1  21
HETATM   21  C   UNL     1     -42.646  58.239 -57.647  1.00  0.00     0.042 A 
HETATM   22  C   UNL     1     -42.692  57.222 -58.626  1.00  0.00    -0.035 A 
HETATM   23  C   UNL     1     -43.013  55.790 -58.283  1.00  0.00     0.050 C 
HETATM   24  C   UNL     1     -42.420  57.541 -59.967  1.00  0.00     0.010 A 
HETATM   25  C   UNL     1     -42.113  58.848 -60.345  1.00  0.00     0.017 A 
HETATM   26  C   UNL     1     -42.086  59.860 -59.382  1.00  0.00     0.034 A 
HETATM   27  C   UNL     1     -42.341  59.548 -58.039  1.00  0.00     0.047 A 
BRANCH  26  28
HETATM   28  C   UNL     1     -41.749  61.270 -59.733  1.00  0.00     0.252 C 
HETATM   29  N   UNL     1     -41.087  61.461 -60.932  1.00  0.00    -0.352 N 
HETATM   30  H   UNL     1     -41.010  60.691 -61.584  1.00  0.00     0.163 HD
HETATM   31  O   UNL     1     -42.078  62.184 -58.985  1.00  0.00    -0.268 OA
BRANCH  29  32
HETATM   32  C   UNL     1     -40.748  62.766 -61.405  1.00  0.00     0.084 A 
HETATM   33  C   UNL     1     -39.441  63.406 -61.033  1.00  0.00     0.027 A 
HETATM   34  C   UNL     1     -39.673  62.944 -62.441  1.00  0.00     0.027 A 
ENDBRANCH  29  32
ENDBRANCH  26  28
ENDBRANCH   1  21
TORSDOF 6
ENDMDL
MODEL 8
REMARK VINA RESULT:      -7.5      2.604      8.469
REMARK  6 active torsions:
REMARK  status: ('A' for Active; 'I' for Inactive)
REMARK    1  A    between atoms: C_3  and  N_4 
REMARK       I    between atoms: N_4  and  C_5 
REMARK    2  A    between atoms: C_5  and  C_6 
REMARK       I    between atoms: C_6  and  N_7 
REMARK    3  A    between atoms: N_7  and  C_8 
REMARK    4  A    between atoms: C_9  and  C_10 
REMARK    5  A    between atoms: C_23  and  C_24 
REMARK       I    between atoms: C_24  and  N_25 
REMARK    6  A    between atoms: N_25  and  C_26 
ROOT
HETATM    1  N   UNL     1     -42.364  56.425 -54.927  1.00  0.00    -0.318 N 
HETATM    2  C   UNL     1     -42.838  55.798 -56.062  1.00  0.00     0.314 C 
HETATM    3  O   UNL     1     -43.122  54.623 -56.235  1.00  0.00    -0.262 OA
HETATM    4  H   UNL     1     -42.234  57.427 -55.049  1.00  0.00     0.169 HD
ENDROOT
BRANCH   2   5
HETATM    5  C   UNL     1     -43.014  56.791 -57.230  1.00  0.00     0.314 C 
HETATM    6  N   UNL     1     -44.262  56.719 -57.796  1.00  0.00    -0.316 N 
HETATM    7  H   UNL     1     -44.926  56.043 -57.406  1.00  0.00     0.169 HD
HETATM    8  O   UNL     1     -42.072  57.516 -57.529  1.00  0.00    -0.262 OA
BRANCH   6   9
HETATM    9  C   UNL     1     -44.729  57.474 -58.854  1.00  0.00     0.085 A 
HETATM   10  C   UNL     1     -45.059  58.870 -58.822  1.00  0.00     0.133 A 
HETATM   11  N   UNL     1     -45.481  59.281 -60.034  1.00  0.00    -0.171 NA
HETATM   12  N   UNL     1     -45.422  58.178 -60.799  1.00  0.00    -0.286 N 
HETATM   13  H   UNL     1     -45.702  58.253 -61.771  1.00  0.00     0.188 HD
HETATM   14  C   UNL     1     -44.977  57.073 -60.141  1.00  0.00     0.141 A 
BRANCH  10  15
HETATM   15  C   UNL     1     -44.966  59.769 -57.661  1.00  0.00     0.089 A 
HETATM   16  N   UNL     1     -45.423  59.271 -56.477  1.00  0.00    -0.259 NA
HETATM   17  C   UNL     1     -45.351  60.077 -55.396  1.00  0.00     0.117 A 
HETATM   18  C   UNL     1     -44.840  61.363 -55.428  1.00  0.00     0.019 A 
HETATM   19  C   UNL     1     -44.376  61.858 -56.642  1.00  0.00     0.004 A 
HETATM   20  C   UNL     1     -44.439  61.052 -57.777  1.00  0.00     0.034 A 
ENDBRANCH  10  15
ENDBRANCH   6   9
ENDBRANCH   2   5
BRANCH   1  21
HETATM   21  C   UNL     1     -42.047  55.857 -53.678  1.00  0.00     0.042 A 
HETATM   22  C   UNL     1     -42.469  56.522 -52.504  1.00  0.00    -0.035 A 
HETATM   23  C   UNL     1     -43.257  57.806 -52.547  1.00  0.00     0.050 C 
HETATM   24  C   UNL     1     -42.138  55.985 -51.248  1.00  0.00     0.010 A 
HETATM   25  C   UNL     1     -41.407  54.802 -51.146  1.00  0.00     0.017 A 
HETATM   26  C   UNL     1     -41.005  54.131 -52.304  1.00  0.00     0.034 A 
HETATM   27  C   UNL     1     -41.318  54.668 -53.561  1.00  0.00     0.047 A 
BRANCH  26  28
HETATM   28  C   UNL     1     -40.210  52.871 -52.247  1.00  0.00     0.252 C 
HETATM   29  N   UNL     1     -40.038  52.201 -53.445  1.00  0.00    -0.352 N 
HETATM   30  H   UNL     1     -40.298  52.656 -54.309  1.00  0.00     0.163 HD
HETATM   31  O   UNL     1     -39.733  52.494 -51.182  1.00  0.00    -0.268 OA
BRANCH  29  32
HETATM   32  C   UNL     1     -39.258  51.007 -53.533  1.00  0.00     0.084 A 
HETATM   33  C   UNL     1     -39.796  49.696 -53.034  1.00  0.00     0.027 A 
HETATM   34  C   UNL     1     -39.634  49.924 -54.508  1.00  0.00     0.027 A 
ENDBRANCH  29  32
ENDBRANCH  26  28
ENDBRANCH   1  21
TORSDOF 6
ENDMDL
MODEL 9
REMARK VINA RESULT:      -7.4      4.656      7.389
REMARK  6 active torsions:
REMARK  status: ('A' for Active; 'I' for Inactive)
REMARK    1  A    between atoms: C_3  and  N_4 
REMARK       I    between atoms: N_4  and  C_5 
REMARK    2  A    between atoms: C_5  and  C_6 
REMARK       I    between atoms: C_6  and  N_7 
REMARK    3  A    between atoms: N_7  and  C_8 
REMARK    4  A    between atoms: C_9  and  C_10 
REMARK    5  A    between atoms: C_23  and  C_24 
REMARK       I    between atoms: C_24  and  N_25 
REMARK    6  A    between atoms: N_25  and  C_26 
ROOT
HETATM    1  N   UNL     1     -43.423  58.832 -50.885  1.00  0.00    -0.318 N 
HETATM    2  C   UNL     1     -42.077  59.134 -50.872  1.00  0.00     0.314 C 
HETATM    3  O   UNL     1     -41.526  60.219 -50.980  1.00  0.00    -0.262 OA
HETATM    4  H   UNL     1     -43.612  57.842 -50.748  1.00  0.00     0.169 HD
ENDROOT
BRANCH   2   5
HETATM    5  C   UNL     1     -41.211  57.871 -50.683  1.00  0.00     0.314 C 
HETATM    6  N   UNL     1     -41.959  56.762 -50.379  1.00  0.00    -0.316 N 
HETATM    7  H   UNL     1     -42.975  56.875 -50.310  1.00  0.00     0.169 HD
HETATM    8  O   UNL     1     -39.996  57.969 -50.816  1.00  0.00    -0.262 OA
BRANCH   6   9
HETATM    9  C   UNL     1     -41.483  55.486 -50.154  1.00  0.00     0.085 A 
HETATM   10  C   UNL     1     -41.232  54.484 -51.149  1.00  0.00     0.133 A 
HETATM   11  N   UNL     1     -40.768  53.356 -50.574  1.00  0.00    -0.171 NA
HETATM   12  N   UNL     1     -40.734  53.641 -49.262  1.00  0.00    -0.286 N 
HETATM   13  H   UNL     1     -40.412  52.922 -48.624  1.00  0.00     0.188 HD
HETATM   14  C   UNL     1     -41.148  54.901 -48.959  1.00  0.00     0.141 A 
BRANCH  10  15
HETATM   15  C   UNL     1     -41.433  54.616 -52.601  1.00  0.00     0.089 A 
HETATM   16  N   UNL     1     -42.540  55.309 -52.993  1.00  0.00    -0.259 NA
HETATM   17  C   UNL     1     -42.749  55.444 -54.321  1.00  0.00     0.117 A 
HETATM   18  C   UNL     1     -41.905  54.925 -55.288  1.00  0.00     0.019 A 
HETATM   19  C   UNL     1     -40.780  54.222 -54.874  1.00  0.00     0.004 A 
HETATM   20  C   UNL     1     -40.538  54.062 -53.511  1.00  0.00     0.034 A 
ENDBRANCH  10  15
ENDBRANCH   6   9
ENDBRANCH   2   5
BRANCH   1  21
HETATM   21  C   UNL     1     -44.517  59.702 -51.066  1.00  0.00     0.042 A 
HETATM   22  C   UNL     1     -45.193  59.690 -52.307  1.00  0.00    -0.035 A 
HETATM   23  C   UNL     1     -44.794  58.770 -53.431  1.00  0.00     0.050 C 
HETATM   24  C   UNL     1     -46.268  60.571 -52.516  1.00  0.00     0.010 A 
HETATM   25  C   UNL     1     -46.680  61.449 -51.514  1.00  0.00     0.017 A 
HETATM   26  C   UNL     1     -46.027  61.449 -50.279  1.00  0.00     0.034 A 
HETATM   27  C   UNL     1     -44.943  60.584 -50.066  1.00  0.00     0.047 A 
BRANCH  26  28
HETATM   28  C   UNL     1     -46.421  62.378 -49.181  1.00  0.00     0.252 C 
HETATM   29  N   UNL     1     -45.573  62.428 -48.088  1.00  0.00    -0.352 N 
HETATM   30  H   UNL     1     -44.667  61.984 -48.143  1.00  0.00     0.163 HD
HETATM   31  O   UNL     1     -47.435  63.059 -49.287  1.00  0.00    -0.268 OA
BRANCH  29  32
HETATM   32  C   UNL     1     -45.814  63.311 -46.991  1.00  0.00     0.084 A 
HETATM   33  C   UNL     1     -46.780  62.942 -45.901  1.00  0.00     0.027 A 
HETATM   34  C   UNL     1     -45.308  62.970 -45.616  1.00  0.00     0.027 A 
ENDBRANCH  29  32
ENDBRANCH  26  28
ENDBRANCH   1  21
TORSDOF 6
ENDMDL
MODEL 10
REMARK VINA RESULT:      -7.4     16.076     17.630
REMARK  6 active torsions:
REMARK  status: ('A' for Active; 'I' for Inactive)
REMARK    1  A    between atoms: C_3  and  N_4 
REMARK       I    between atoms: N_4  and  C_5 
REMARK    2  A    between atoms: C_5  and  C_6 
REMARK       I    between atoms: C_6  and  N_7 
REMARK    3  A    between atoms: N_7  and  C_8 
REMARK    4  A    between atoms: C_9  and  C_10 
REMARK    5  A    between atoms: C_23  and  C_24 
REMARK       I    between atoms: C_24  and  N_25 
REMARK    6  A    between atoms: N_25  and  C_26 
ROOT
HETATM    1  N   UNL     1     -36.498  39.747 -55.878  1.00  0.00    -0.318 N 
HETATM    2  C   UNL     1     -37.021  40.296 -54.725  1.00  0.00     0.314 C 
HETATM    3  O   UNL     1     -37.993  41.023 -54.585  1.00  0.00    -0.262 OA
HETATM    4  H   UNL     1     -35.691  39.153 -55.708  1.00  0.00     0.169 HD
ENDROOT
BRANCH   2   5
HETATM    5  C   UNL     1     -36.212  39.880 -53.478  1.00  0.00     0.314 C 
HETATM    6  N   UNL     1     -35.149  40.713 -53.241  1.00  0.00    -0.316 N 
HETATM    7  H   UNL     1     -35.001  41.497 -53.885  1.00  0.00     0.169 HD
HETATM    8  O   UNL     1     -36.576  38.895 -52.847  1.00  0.00    -0.262 OA
BRANCH   6   9
HETATM    9  C   UNL     1     -34.240  40.612 -52.206  1.00  0.00     0.085 A 
HETATM   10  C   UNL     1     -32.898  40.113 -52.299  1.00  0.00     0.133 A 
HETATM   11  N   UNL     1     -32.294  40.161 -51.095  1.00  0.00    -0.171 NA
HETATM   12  N   UNL     1     -33.229  40.668 -50.274  1.00  0.00    -0.286 N 
HETATM   13  H   UNL     1     -32.991  40.793 -49.296  1.00  0.00     0.188 HD
HETATM   14  C   UNL     1     -34.408  40.956 -50.889  1.00  0.00     0.141 A 
BRANCH  10  15
HETATM   15  C   UNL     1     -32.227  39.613 -53.509  1.00  0.00     0.089 A 
HETATM   16  N   UNL     1     -32.255  40.437 -54.595  1.00  0.00    -0.259 NA
HETATM   17  C   UNL     1     -31.648  40.000 -55.720  1.00  0.00     0.117 A 
HETATM   18  C   UNL     1     -31.005  38.778 -55.822  1.00  0.00     0.019 A 
HETATM   19  C   UNL     1     -30.983  37.950 -54.707  1.00  0.00     0.004 A 
HETATM   20  C   UNL     1     -31.603  38.369 -53.532  1.00  0.00     0.034 A 
ENDBRANCH  10  15
ENDBRANCH   6   9
ENDBRANCH   2   5
BRANCH   1  21
HETATM   21  C   UNL     1     -36.934  39.918 -57.207  1.00  0.00     0.042 A 
HETATM   22  C   UNL     1     -36.498  41.055 -57.923  1.00  0.00    -0.035 A 
HETATM   23  C   UNL     1     -35.572  42.080 -57.318  1.00  0.00     0.050 C 
HETATM   24  C   UNL     1     -36.944  41.257 -59.240  1.00  0.00     0.010 A 
HETATM   25  C   UNL     1     -37.805  40.346 -59.852  1.00  0.00     0.017 A 
HETATM   26  C   UNL     1     -38.223  39.209 -59.154  1.00  0.00     0.034 A 
HETATM   27  C   UNL     1     -37.794  39.008 -57.834  1.00  0.00     0.047 A 
BRANCH  26  28
HETATM   28  C   UNL     1     -39.153  38.213 -59.759  1.00  0.00     0.252 C 
HETATM   29  N   UNL     1     -39.588  38.483 -61.045  1.00  0.00    -0.352 N 
HETATM   30  H   UNL     1     -39.144  39.223 -61.572  1.00  0.00     0.163 HD
HETATM   31  O   UNL     1     -39.475  37.212 -59.129  1.00  0.00    -0.268 OA
BRANCH  29  32
HETATM   32  C   UNL     1     -40.444  37.586 -61.753  1.00  0.00     0.084 A 
HETATM   33  C   UNL     1     -41.716  38.073 -62.389  1.00  0.00     0.027 A 
HETATM   34  C   UNL     1     -40.557  37.665 -63.250  1.00  0.00     0.027 A 
ENDBRANCH  29  32
ENDBRANCH  26  28
ENDBRANCH   1  21
TORSDOF 6
ENDMDL
