MODEL 1
REMARK VINA RESULT:      -7.6      0.000      0.000
REMARK  8 active torsions:
REMARK  status: ('A' for Active; 'I' for Inactive)
REMARK    1  A    between atoms: C_2  and  N_3 
REMARK       I    between atoms: N_3  and  C_4 
REMARK    2  A    between atoms: C_4  and  C_5 
REMARK    3  A    between atoms: C_5  and  O_6 
REMARK    4  A    between atoms: O_6  and  C_7 
REMARK    5  A    between atoms: C_11  and  C_12 
REMARK    6  A    between atoms: C_12  and  N_13 
REMARK    7  A    between atoms: N_13  and  C_14 
REMARK    8  A    between atoms: C_25  and  O_26 
ROOT
HETATM    1  C   UNL     1     -42.261  58.119 -51.971  1.00  0.00     0.124 A 
HETATM    2  C   UNL     1     -43.281  57.246 -51.572  1.00  0.00     0.070 A 
HETATM    3 CL   UNL     1     -44.894  57.429 -52.168  1.00  0.00    -0.081 Cl
HETATM    4  C   UNL     1     -43.015  56.191 -50.692  1.00  0.00     0.035 A 
HETATM    5  C   UNL     1     -41.726  56.001 -50.174  1.00  0.00    -0.041 A 
HETATM    6  C   UNL     1     -40.703  56.873 -50.575  1.00  0.00     0.048 A 
HETATM    7  C   UNL     1     -40.977  57.937 -51.441  1.00  0.00     0.103 A 
ENDROOT
BRANCH   5   8
HETATM    8  C   UNL     1     -41.439  54.859 -49.228  1.00  0.00     0.131 C 
BRANCH   8   9
HETATM    9  N   UNL     1     -40.162  54.257 -49.577  1.00  0.00    -0.289 NA
HETATM   10  H   UNL     1     -39.523  54.216 -48.786  1.00  0.00     0.128 HD
BRANCH   9  11
HETATM   11  C   UNL     1     -40.148  53.069 -50.323  1.00  0.00     0.010 A 
HETATM   12  C   UNL     1     -39.872  53.030 -51.700  1.00  0.00     0.055 A 
HETATM   13  C   UNL     1     -39.802  51.795 -52.307  1.00  0.00     0.065 A 
HETATM   14  C   UNL     1     -39.971  50.607 -51.603  1.00  0.00     0.063 A 
HETATM   15  N   UNL     1     -39.554  51.472 -53.637  1.00  0.00    -0.306 N 
HETATM   16  N   UNL     1     -39.833  49.553 -52.498  1.00  0.00    -0.307 N 
HETATM   17  C   UNL     1     -40.209  50.592 -50.254  1.00  0.00     0.034 A 
HETATM   18  C   UNL     1     -39.568  50.076 -53.772  1.00  0.00     0.325 A 
HETATM   19  H   UNL     1     -39.889  48.568 -52.297  1.00  0.00     0.170 HD
HETATM   20  O   UNL     1     -39.384  49.443 -54.795  1.00  0.00    -0.247 OA
HETATM   21  C   UNL     1     -40.279  51.839 -49.617  1.00  0.00     0.026 A 
HETATM   22  H   UNL     1     -39.375  52.106 -54.399  1.00  0.00     0.170 HD
ENDBRANCH   9  11
ENDBRANCH   8   9
ENDBRANCH   5   8
BRANCH   7  23
HETATM   23  O   UNL     1     -39.936  58.759 -51.783  1.00  0.00    -0.353 OA
HETATM   24  C   UNL     1     -39.452  59.446 -50.628  1.00  0.00     0.210 C 
ENDBRANCH   7  23
BRANCH   1  25
HETATM   25  O   UNL     1     -42.600  59.158 -52.800  1.00  0.00    -0.337 OA
BRANCH  25  26
HETATM   26  C   UNL     1     -42.095  59.038 -54.132  1.00  0.00     0.278 C 
BRANCH  26  27
HETATM   27  C   UNL     1     -42.724  57.833 -54.838  1.00  0.00     0.242 C 
HETATM   28  N   UNL     1     -41.935  56.702 -54.833  1.00  0.00    -0.351 N 
HETATM   29  H   UNL     1     -41.119  56.748 -54.227  1.00  0.00     0.163 HD
HETATM   30  O   UNL     1     -43.820  57.910 -55.387  1.00  0.00    -0.271 OA
BRANCH  28  31
HETATM   31  C   UNL     1     -42.312  55.396 -55.389  1.00  0.00     0.022 C 
HETATM   32  C   UNL     1     -42.741  55.520 -56.860  1.00  0.00     0.037 C 
HETATM   33  C   UNL     1     -43.441  54.761 -54.563  1.00  0.00     0.037 C 
HETATM   34  C   UNL     1     -41.079  54.476 -55.324  1.00  0.00     0.037 C 
ENDBRANCH  28  31
ENDBRANCH  26  27
ENDBRANCH  25  26
ENDBRANCH   1  25
TORSDOF 8
ENDMDL
MODEL 2
REMARK VINA RESULT:      -7.6      1.505      2.391
REMARK  8 active torsions:
REMARK  status: ('A' for Active; 'I' for Inactive)
REMARK    1  A    between atoms: C_2  and  N_3 
REMARK       I    between atoms: N_3  and  C_4 
REMARK    2  A    between atoms: C_4  and  C_5 
REMARK    3  A    between atoms: C_5  and  O_6 
REMARK    4  A    between atoms: O_6  and  C_7 
REMARK    5  A    between atoms: C_11  and  C_12 
REMARK    6  A    between atoms: C_12  and  N_13 
REMARK    7  A    between atoms: N_13  and  C_14 
REMARK    8  A    between atoms: C_25  and  O_26 
ROOT
HETATM    1  C   UNL     1     -42.382  57.948 -52.211  1.00  0.00     0.124 A 
HETATM    2  C   UNL     1     -41.601  58.163 -51.069  1.00  0.00     0.070 A 
HETATM    3 CL   UNL     1     -40.948  59.725 -50.717  1.00  0.00    -0.081 Cl
HETATM    4  C   UNL     1     -41.343  57.120 -50.172  1.00  0.00     0.035 A 
HETATM    5  C   UNL     1     -41.844  55.832 -50.413  1.00  0.00    -0.041 A 
HETATM    6  C   UNL     1     -42.628  55.616 -51.555  1.00  0.00     0.048 A 
HETATM    7  C   UNL     1     -42.868  56.657 -52.458  1.00  0.00     0.103 A 
ENDROOT
BRANCH   5   8
HETATM    8  C   UNL     1     -41.569  54.708 -49.442  1.00  0.00     0.131 C 
BRANCH   8   9
HETATM    9  N   UNL     1     -40.270  54.125 -49.739  1.00  0.00    -0.289 NA
HETATM   10  H   UNL     1     -39.665  54.089 -48.922  1.00  0.00     0.128 HD
BRANCH   9  11
HETATM   11  C   UNL     1     -40.207  52.941 -50.489  1.00  0.00     0.010 A 
HETATM   12  C   UNL     1     -40.004  52.923 -51.879  1.00  0.00     0.055 A 
HETATM   13  C   UNL     1     -39.874  51.696 -52.493  1.00  0.00     0.065 A 
HETATM   14  C   UNL     1     -39.915  50.499 -51.786  1.00  0.00     0.063 A 
HETATM   15  N   UNL     1     -39.675  51.392 -53.836  1.00  0.00    -0.306 N 
HETATM   16  N   UNL     1     -39.747  49.459 -52.691  1.00  0.00    -0.307 N 
HETATM   17  C   UNL     1     -40.078  50.467 -50.425  1.00  0.00     0.034 A 
HETATM   18  C   UNL     1     -39.591  49.999 -53.975  1.00  0.00     0.325 A 
HETATM   19  H   UNL     1     -39.718  48.472 -52.491  1.00  0.00     0.170 HD
HETATM   20  O   UNL     1     -39.416  49.381 -55.009  1.00  0.00    -0.247 OA
HETATM   21  C   UNL     1     -40.208  51.705 -49.781  1.00  0.00     0.026 A 
HETATM   22  H   UNL     1     -39.586  52.037 -54.604  1.00  0.00     0.170 HD
ENDBRANCH   9  11
ENDBRANCH   8   9
ENDBRANCH   5   8
BRANCH   7  23
HETATM   23  O   UNL     1     -43.631  56.377 -53.561  1.00  0.00    -0.353 OA
HETATM   24  C   UNL     1     -43.545  54.986 -53.877  1.00  0.00     0.210 C 
ENDBRANCH   7  23
BRANCH   1  25
HETATM   25  O   UNL     1     -42.557  59.003 -53.070  1.00  0.00    -0.337 OA
BRANCH  25  26
HETATM   26  C   UNL     1     -41.546  59.120 -54.073  1.00  0.00     0.278 C 
BRANCH  26  27
HETATM   27  C   UNL     1     -42.167  59.063 -55.471  1.00  0.00     0.242 C 
HETATM   28  N   UNL     1     -42.351  57.784 -55.953  1.00  0.00    -0.351 N 
HETATM   29  H   UNL     1     -42.216  57.042 -55.271  1.00  0.00     0.163 HD
HETATM   30  O   UNL     1     -42.428  60.084 -56.100  1.00  0.00    -0.271 OA
BRANCH  28  31
HETATM   31  C   UNL     1     -42.974  57.439 -57.238  1.00  0.00     0.022 C 
HETATM   32  C   UNL     1     -42.180  58.024 -58.416  1.00  0.00     0.037 C 
HETATM   33  C   UNL     1     -44.428  57.931 -57.285  1.00  0.00     0.037 C 
HETATM   34  C   UNL     1     -42.971  55.904 -57.371  1.00  0.00     0.037 C 
ENDBRANCH  28  31
ENDBRANCH  26  27
ENDBRANCH  25  26
ENDBRANCH   1  25
TORSDOF 8
ENDMDL
MODEL 3
REMARK VINA RESULT:      -7.4      2.247      3.451
REMARK  8 active torsions:
REMARK  status: ('A' for Active; 'I' for Inactive)
REMARK    1  A    between atoms: C_2  and  N_3 
REMARK       I    between atoms: N_3  and  C_4 
REMARK    2  A    between atoms: C_4  and  C_5 
REMARK    3  A    between atoms: C_5  and  O_6 
REMARK    4  A    between atoms: O_6  and  C_7 
REMARK    5  A    between atoms: C_11  and  C_12 
REMARK    6  A    between atoms: C_12  and  N_13 
REMARK    7  A    between atoms: N_13  and  C_14 
REMARK    8  A    between atoms: C_25  and  O_26 
ROOT
HETATM    1  C   UNL     1     -44.547  57.248 -54.407  1.00  0.00     0.124 A 
HETATM    2  C   UNL     1     -44.602  57.978 -53.214  1.00  0.00     0.070 A 
HETATM    3 CL   UNL     1     -45.513  59.444 -53.108  1.00  0.00    -0.081 Cl
HETATM    4  C   UNL     1     -43.934  57.529 -52.069  1.00  0.00     0.035 A 
HETATM    5  C   UNL     1     -43.176  56.349 -52.102  1.00  0.00    -0.041 A 
HETATM    6  C   UNL     1     -43.122  55.616 -53.296  1.00  0.00     0.048 A 
HETATM    7  C   UNL     1     -43.777  56.078 -54.442  1.00  0.00     0.103 A 
ENDROOT
BRANCH   5   8
HETATM    8  C   UNL     1     -42.459  55.862 -50.865  1.00  0.00     0.131 C 
BRANCH   8   9
HETATM    9  N   UNL     1     -41.097  55.492 -51.216  1.00  0.00    -0.289 NA
HETATM   10  H   UNL     1     -40.406  55.955 -50.628  1.00  0.00     0.128 HD
BRANCH   9  11
HETATM   11  C   UNL     1     -40.787  54.140 -51.422  1.00  0.00     0.010 A 
HETATM   12  C   UNL     1     -40.554  53.591 -52.694  1.00  0.00     0.055 A 
HETATM   13  C   UNL     1     -40.173  52.269 -52.763  1.00  0.00     0.065 A 
HETATM   14  C   UNL     1     -39.995  51.483 -51.629  1.00  0.00     0.063 A 
HETATM   15  N   UNL     1     -39.889  51.483 -53.876  1.00  0.00    -0.306 N 
HETATM   16  N   UNL     1     -39.606  50.214 -52.041  1.00  0.00    -0.307 N 
HETATM   17  C   UNL     1     -40.178  51.982 -50.366  1.00  0.00     0.034 A 
HETATM   18  C   UNL     1     -39.531  50.199 -53.441  1.00  0.00     0.325 A 
HETATM   19  H   UNL     1     -39.389  49.422 -51.459  1.00  0.00     0.170 HD
HETATM   20  O   UNL     1     -39.216  49.256 -54.143  1.00  0.00    -0.247 OA
HETATM   21  C   UNL     1     -40.561  53.327 -50.274  1.00  0.00     0.026 A 
HETATM   22  H   UNL     1     -39.911  51.760 -54.843  1.00  0.00     0.170 HD
ENDBRANCH   9  11
ENDBRANCH   8   9
ENDBRANCH   5   8
BRANCH   7  23
HETATM   23  O   UNL     1     -43.673  55.321 -55.580  1.00  0.00    -0.353 OA
HETATM   24  C   UNL     1     -42.299  55.114 -55.909  1.00  0.00     0.210 C 
ENDBRANCH   7  23
BRANCH   1  25
HETATM   25  O   UNL     1     -45.188  57.769 -55.503  1.00  0.00    -0.337 OA
BRANCH  25  26
HETATM   26  C   UNL     1     -44.373  58.619 -56.313  1.00  0.00     0.278 C 
BRANCH  26  27
HETATM   27  C   UNL     1     -44.569  58.295 -57.796  1.00  0.00     0.242 C 
HETATM   28  N   UNL     1     -44.482  56.951 -58.096  1.00  0.00    -0.351 N 
HETATM   29  H   UNL     1     -44.469  56.330 -57.291  1.00  0.00     0.163 HD
HETATM   30  O   UNL     1     -44.746  59.180 -58.629  1.00  0.00    -0.271 OA
BRANCH  28  31
HETATM   31  C   UNL     1     -44.683  56.360 -59.425  1.00  0.00     0.022 C 
HETATM   32  C   UNL     1     -43.800  57.046 -60.479  1.00  0.00     0.037 C 
HETATM   33  C   UNL     1     -46.160  56.445 -59.839  1.00  0.00     0.037 C 
HETATM   34  C   UNL     1     -44.279  54.876 -59.351  1.00  0.00     0.037 C 
ENDBRANCH  28  31
ENDBRANCH  26  27
ENDBRANCH  25  26
ENDBRANCH   1  25
TORSDOF 8
ENDMDL
MODEL 4
REMARK VINA RESULT:      -7.2      2.848      6.361
REMARK  8 active torsions:
REMARK  status: ('A' for Active; 'I' for Inactive)
REMARK    1  A    between atoms: C_2  and  N_3 
REMARK       I    between atoms: N_3  and  C_4 
REMARK    2  A    between atoms: C_4  and  C_5 
REMARK    3  A    between atoms: C_5  and  O_6 
REMARK    4  A    between atoms: O_6  and  C_7 
REMARK    5  A    between atoms: C_11  and  C_12 
REMARK    6  A    between atoms: C_12  and  N_13 
REMARK    7  A    between atoms: N_13  and  C_14 
REMARK    8  A    between atoms: C_25  and  O_26 
ROOT
HETATM    1  C   UNL     1     -42.272  56.784 -50.934  1.00  0.00     0.124 A 
HETATM    2  C   UNL     1     -43.531  56.349 -51.367  1.00  0.00     0.070 A 
HETATM    3 CL   UNL     1     -44.342  55.041 -50.578  1.00  0.00    -0.081 Cl
HETATM    4  C   UNL     1     -44.174  56.977 -52.439  1.00  0.00     0.035 A 
HETATM    5  C   UNL     1     -43.559  58.040 -53.117  1.00  0.00    -0.041 A 
HETATM    6  C   UNL     1     -42.298  58.476 -52.684  1.00  0.00     0.048 A 
HETATM    7  C   UNL     1     -41.652  57.834 -51.622  1.00  0.00     0.103 A 
ENDROOT
BRANCH   5   8
HETATM    8  C   UNL     1     -44.255  58.720 -54.272  1.00  0.00     0.131 C 
BRANCH   8   9
HETATM    9  N   UNL     1     -43.365  58.741 -55.423  1.00  0.00    -0.289 NA
HETATM   10  H   UNL     1     -42.392  58.878 -55.158  1.00  0.00     0.128 HD
BRANCH   9  11
HETATM   11  C   UNL     1     -43.504  57.757 -56.413  1.00  0.00     0.010 A 
HETATM   12  C   UNL     1     -44.200  57.972 -57.615  1.00  0.00     0.055 A 
HETATM   13  C   UNL     1     -44.195  56.958 -58.548  1.00  0.00     0.065 A 
HETATM   14  C   UNL     1     -43.516  55.761 -58.347  1.00  0.00     0.063 A 
HETATM   15  N   UNL     1     -44.799  56.902 -59.801  1.00  0.00    -0.306 N 
HETATM   16  N   UNL     1     -43.704  54.966 -59.471  1.00  0.00    -0.307 N 
HETATM   17  C   UNL     1     -42.797  55.519 -57.206  1.00  0.00     0.034 A 
HETATM   18  C   UNL     1     -44.499  55.665 -60.390  1.00  0.00     0.325 A 
HETATM   19  H   UNL     1     -43.332  54.045 -59.638  1.00  0.00     0.170 HD
HETATM   20  O   UNL     1     -44.858  55.276 -61.486  1.00  0.00    -0.247 OA
HETATM   21  C   UNL     1     -42.785  56.540 -56.245  1.00  0.00     0.026 A 
HETATM   22  H   UNL     1     -45.351  57.615 -60.247  1.00  0.00     0.170 HD
ENDBRANCH   9  11
ENDBRANCH   8   9
ENDBRANCH   5   8
BRANCH   7  23
HETATM   23  O   UNL     1     -40.417  58.301 -51.256  1.00  0.00    -0.353 OA
HETATM   24  C   UNL     1     -40.555  59.406 -50.361  1.00  0.00     0.210 C 
ENDBRANCH   7  23
BRANCH   1  25
HETATM   25  O   UNL     1     -41.680  56.094 -49.906  1.00  0.00    -0.337 OA
BRANCH  25  26
HETATM   26  C   UNL     1     -40.522  55.348 -50.287  1.00  0.00     0.278 C 
BRANCH  26  27
HETATM   27  C   UNL     1     -40.897  54.252 -51.289  1.00  0.00     0.242 C 
HETATM   28  N   UNL     1     -40.548  54.538 -52.593  1.00  0.00    -0.351 N 
HETATM   29  H   UNL     1     -39.943  55.347 -52.710  1.00  0.00     0.163 HD
HETATM   30  O   UNL     1     -41.492  53.237 -50.939  1.00  0.00    -0.271 OA
BRANCH  28  31
HETATM   31  C   UNL     1     -40.739  53.644 -53.742  1.00  0.00     0.022 C 
HETATM   32  C   UNL     1     -40.192  52.238 -53.451  1.00  0.00     0.037 C 
HETATM   33  C   UNL     1     -40.067  54.222 -54.997  1.00  0.00     0.037 C 
HETATM   34  C   UNL     1     -42.252  53.526 -54.007  1.00  0.00     0.037 C 
ENDBRANCH  28  31
ENDBRANCH  26  27
ENDBRANCH  25  26
ENDBRANCH   1  25
TORSDOF 8
ENDMDL
MODEL 5
REMARK VINA RESULT:      -7.2      3.739      5.817
REMARK  8 active torsions:
REMARK  status: ('A' for Active; 'I' for Inactive)
REMARK    1  A    between atoms: C_2  and  N_3 
REMARK       I    between atoms: N_3  and  C_4 
REMARK    2  A    between atoms: C_4  and  C_5 
REMARK    3  A    between atoms: C_5  and  O_6 
REMARK    4  A    between atoms: O_6  and  C_7 
REMARK    5  A    between atoms: C_11  and  C_12 
REMARK    6  A    between atoms: C_12  and  N_13 
REMARK    7  A    between atoms: N_13  and  C_14 
REMARK    8  A    between atoms: C_25  and  O_26 
ROOT
HETATM    1  C   UNL     1     -43.850  59.859 -51.851  1.00  0.00     0.124 A 
HETATM    2  C   UNL     1     -44.093  58.487 -51.700  1.00  0.00     0.070 A 
HETATM    3 CL   UNL     1     -45.358  57.914 -50.670  1.00  0.00    -0.081 Cl
HETATM    4  C   UNL     1     -43.327  57.545 -52.396  1.00  0.00     0.035 A 
HETATM    5  C   UNL     1     -42.285  57.956 -53.241  1.00  0.00    -0.041 A 
HETATM    6  C   UNL     1     -42.042  59.328 -53.393  1.00  0.00     0.048 A 
HETATM    7  C   UNL     1     -42.799  60.266 -52.682  1.00  0.00     0.103 A 
ENDROOT
BRANCH   5   8
HETATM    8  C   UNL     1     -41.462  56.938 -53.995  1.00  0.00     0.131 C 
BRANCH   8   9
HETATM    9  N   UNL     1     -42.193  55.682 -54.057  1.00  0.00    -0.289 NA
HETATM   10  H   UNL     1     -42.650  55.543 -54.956  1.00  0.00     0.128 HD
BRANCH   9  11
HETATM   11  C   UNL     1     -41.576  54.509 -53.597  1.00  0.00     0.010 A 
HETATM   12  C   UNL     1     -41.429  53.358 -54.390  1.00  0.00     0.055 A 
HETATM   13  C   UNL     1     -40.730  52.297 -53.856  1.00  0.00     0.065 A 
HETATM   14  C   UNL     1     -40.158  52.341 -52.589  1.00  0.00     0.063 A 
HETATM   15  N   UNL     1     -40.443  51.054 -54.412  1.00  0.00    -0.306 N 
HETATM   16  N   UNL     1     -39.524  51.126 -52.361  1.00  0.00    -0.307 N 
HETATM   17  C   UNL     1     -40.246  53.453 -51.792  1.00  0.00     0.034 A 
HETATM   18  C   UNL     1     -39.689  50.312 -53.490  1.00  0.00     0.325 A 
HETATM   19  H   UNL     1     -39.009  50.849 -51.541  1.00  0.00     0.170 HD
HETATM   20  O   UNL     1     -39.261  49.183 -53.644  1.00  0.00    -0.247 OA
HETATM   21  C   UNL     1     -40.950  54.545 -52.318  1.00  0.00     0.026 A 
HETATM   22  H   UNL     1     -40.703  50.715 -55.323  1.00  0.00     0.170 HD
ENDBRANCH   9  11
ENDBRANCH   8   9
ENDBRANCH   5   8
BRANCH   7  23
HETATM   23  O   UNL     1     -42.502  61.591 -52.867  1.00  0.00    -0.353 OA
HETATM   24  C   UNL     1     -43.198  62.096 -54.008  1.00  0.00     0.210 C 
ENDBRANCH   7  23
BRANCH   1  25
HETATM   25  O   UNL     1     -44.608  60.725 -51.105  1.00  0.00    -0.337 OA
BRANCH  25  26
HETATM   26  C   UNL     1     -44.031  61.080 -49.847  1.00  0.00     0.278 C 
BRANCH  26  27
HETATM   27  C   UNL     1     -45.092  61.057 -48.744  1.00  0.00     0.242 C 
HETATM   28  N   UNL     1     -44.576  60.942 -47.469  1.00  0.00    -0.351 N 
HETATM   29  H   UNL     1     -43.568  61.057 -47.399  1.00  0.00     0.163 HD
HETATM   30  O   UNL     1     -46.291  61.096 -49.004  1.00  0.00    -0.271 OA
BRANCH  28  31
HETATM   31  C   UNL     1     -45.361  60.949 -46.228  1.00  0.00     0.022 C 
HETATM   32  C   UNL     1     -44.450  60.892 -44.992  1.00  0.00     0.037 C 
HETATM   33  C   UNL     1     -46.353  59.776 -46.206  1.00  0.00     0.037 C 
HETATM   34  C   UNL     1     -46.159  62.266 -46.177  1.00  0.00     0.037 C 
ENDBRANCH  28  31
ENDBRANCH  26  27
ENDBRANCH  25  26
ENDBRANCH   1  25
TORSDOF 8
ENDMDL
MODEL 6
REMARK VINA RESULT:      -7.2      4.673      7.171
REMARK  8 active torsions:
REMARK  status: ('A' for Active; 'I' for Inactive)
REMARK    1  A    between atoms: C_2  and  N_3 
REMARK       I    between atoms: N_3  and  C_4 
REMARK    2  A    between atoms: C_4  and  C_5 
REMARK    3  A    between atoms: C_5  and  O_6 
REMARK    4  A    between atoms: O_6  and  C_7 
REMARK    5  A    between atoms: C_11  and  C_12 
REMARK    6  A    between atoms: C_12  and  N_13 
REMARK    7  A    between atoms: N_13  and  C_14 
REMARK    8  A    between atoms: C_25  and  O_26 
ROOT
HETATM    1  C   UNL     1     -43.109  57.987 -59.197  1.00  0.00     0.124 A 
HETATM    2  C   UNL     1     -42.658  58.326 -57.916  1.00  0.00     0.070 A 
HETATM    3 CL   UNL     1     -42.288  59.965 -57.506  1.00  0.00    -0.081 Cl
HETATM    4  C   UNL     1     -42.511  57.347 -56.927  1.00  0.00     0.035 A 
HETATM    5  C   UNL     1     -42.791  56.001 -57.208  1.00  0.00    -0.041 A 
HETATM    6  C   UNL     1     -43.245  55.661 -58.490  1.00  0.00     0.048 A 
HETATM    7  C   UNL     1     -43.373  56.640 -59.480  1.00  0.00     0.103 A 
ENDROOT
BRANCH   5   8
HETATM    8  C   UNL     1     -42.637  54.946 -56.139  1.00  0.00     0.131 C 
BRANCH   8   9
HETATM    9  N   UNL     1     -41.228  54.804 -55.805  1.00  0.00    -0.289 NA
HETATM   10  H   UNL     1     -40.702  55.658 -55.974  1.00  0.00     0.128 HD
BRANCH   9  11
HETATM   11  C   UNL     1     -40.871  54.200 -54.590  1.00  0.00     0.010 A 
HETATM   12  C   UNL     1     -41.142  54.776 -53.338  1.00  0.00     0.055 A 
HETATM   13  C   UNL     1     -40.820  54.049 -52.214  1.00  0.00     0.065 A 
HETATM   14  C   UNL     1     -40.264  52.775 -52.281  1.00  0.00     0.063 A 
HETATM   15  N   UNL     1     -40.973  54.377 -50.870  1.00  0.00    -0.306 N 
HETATM   16  N   UNL     1     -40.070  52.321 -50.983  1.00  0.00    -0.307 N 
HETATM   17  C   UNL     1     -40.012  52.159 -53.479  1.00  0.00     0.034 A 
HETATM   18  C   UNL     1     -40.511  53.307 -50.089  1.00  0.00     0.325 A 
HETATM   19  H   UNL     1     -39.695  51.431 -50.696  1.00  0.00     0.170 HD
HETATM   20  O   UNL     1     -40.497  53.247 -48.874  1.00  0.00    -0.247 OA
HETATM   21  C   UNL     1     -40.337  52.881 -54.636  1.00  0.00     0.026 A 
HETATM   22  H   UNL     1     -41.359  55.224 -50.486  1.00  0.00     0.170 HD
ENDBRANCH   9  11
ENDBRANCH   8   9
ENDBRANCH   5   8
BRANCH   7  23
HETATM   23  O   UNL     1     -43.810  56.239 -60.716  1.00  0.00    -0.353 OA
HETATM   24  C   UNL     1     -44.692  55.123 -60.587  1.00  0.00     0.210 C 
ENDBRANCH   7  23
BRANCH   1  25
HETATM   25  O   UNL     1     -43.187  58.989 -60.131  1.00  0.00    -0.337 OA
BRANCH  25  26
HETATM   26  C   UNL     1     -42.013  59.141 -60.931  1.00  0.00     0.278 C 
BRANCH  26  27
HETATM   27  C   UNL     1     -41.822  60.607 -61.330  1.00  0.00     0.242 C 
HETATM   28  N   UNL     1     -41.167  61.368 -60.384  1.00  0.00    -0.351 N 
HETATM   29  H   UNL     1     -40.744  60.841 -59.623  1.00  0.00     0.163 HD
HETATM   30  O   UNL     1     -42.261  61.047 -62.389  1.00  0.00    -0.271 OA
BRANCH  28  31
HETATM   31  C   UNL     1     -40.805  62.784 -60.529  1.00  0.00     0.022 C 
HETATM   32  C   UNL     1     -42.056  63.674 -60.593  1.00  0.00     0.037 C 
HETATM   33  C   UNL     1     -39.943  62.997 -61.783  1.00  0.00     0.037 C 
HETATM   34  C   UNL     1     -39.985  63.195 -59.293  1.00  0.00     0.037 C 
ENDBRANCH  28  31
ENDBRANCH  26  27
ENDBRANCH  25  26
ENDBRANCH   1  25
TORSDOF 8
ENDMDL
MODEL 7
REMARK VINA RESULT:      -7.2      3.869      5.819
REMARK  8 active torsions:
REMARK  status: ('A' for Active; 'I' for Inactive)
REMARK    1  A    between atoms: C_2  and  N_3 
REMARK       I    between atoms: N_3  and  C_4 
REMARK    2  A    between atoms: C_4  and  C_5 
REMARK    3  A    between atoms: C_5  and  O_6 
REMARK    4  A    between atoms: O_6  and  C_7 
REMARK    5  A    between atoms: C_11  and  C_12 
REMARK    6  A    between atoms: C_12  and  N_13 
REMARK    7  A    between atoms: N_13  and  C_14 
REMARK    8  A    between atoms: C_25  and  O_26 
ROOT
HETATM    1  C   UNL     1     -42.547  57.345 -58.894  1.00  0.00     0.124 A 
HETATM    2  C   UNL     1     -43.135  56.133 -58.507  1.00  0.00     0.070 A 
HETATM    3 CL   UNL     1     -43.736  55.019 -59.685  1.00  0.00    -0.081 Cl
HETATM    4  C   UNL     1     -43.234  55.786 -57.155  1.00  0.00     0.035 A 
HETATM    5  C   UNL     1     -42.767  56.656 -56.159  1.00  0.00    -0.041 A 
HETATM    6  C   UNL     1     -42.177  57.869 -56.545  1.00  0.00     0.048 A 
HETATM    7  C   UNL     1     -42.096  58.219 -57.897  1.00  0.00     0.103 A 
ENDROOT
BRANCH   5   8
HETATM    8  C   UNL     1     -42.870  56.279 -54.700  1.00  0.00     0.131 C 
BRANCH   8   9
HETATM    9  N   UNL     1     -41.534  56.210 -54.128  1.00  0.00    -0.289 NA
HETATM   10  H   UNL     1     -41.406  56.870 -53.363  1.00  0.00     0.128 HD
BRANCH   9  11
HETATM   11  C   UNL     1     -40.980  54.955 -53.835  1.00  0.00     0.010 A 
HETATM   12  C   UNL     1     -40.895  54.439 -52.531  1.00  0.00     0.055 A 
HETATM   13  C   UNL     1     -40.409  53.159 -52.377  1.00  0.00     0.065 A 
HETATM   14  C   UNL     1     -40.029  52.370 -53.458  1.00  0.00     0.063 A 
HETATM   15  N   UNL     1     -40.215  52.416 -51.216  1.00  0.00    -0.306 N 
HETATM   16  N   UNL     1     -39.597  51.145 -52.965  1.00  0.00    -0.307 N 
HETATM   17  C   UNL     1     -40.125  52.817 -54.750  1.00  0.00     0.034 A 
HETATM   18  C   UNL     1     -39.711  51.156 -51.568  1.00  0.00     0.325 A 
HETATM   19  H   UNL     1     -39.268  50.354 -53.495  1.00  0.00     0.170 HD
HETATM   20  O   UNL     1     -39.429  50.248 -50.807  1.00  0.00    -0.247 OA
HETATM   21  C   UNL     1     -40.621  54.116 -54.928  1.00  0.00     0.026 A 
HETATM   22  H   UNL     1     -40.407  52.698 -50.269  1.00  0.00     0.170 HD
ENDBRANCH   9  11
ENDBRANCH   8   9
ENDBRANCH   5   8
BRANCH   7  23
HETATM   23  O   UNL     1     -41.520  59.423 -58.206  1.00  0.00    -0.353 OA
HETATM   24  C   UNL     1     -41.996  60.438 -57.320  1.00  0.00     0.210 C 
ENDBRANCH   7  23
BRANCH   1  25
HETATM   25  O   UNL     1     -42.523  57.642 -60.233  1.00  0.00    -0.337 OA
BRANCH  25  26
HETATM   26  C   UNL     1     -43.147  58.882 -60.572  1.00  0.00     0.278 C 
BRANCH  26  27
HETATM   27  C   UNL     1     -44.604  58.895 -60.103  1.00  0.00     0.242 C 
HETATM   28  N   UNL     1     -45.391  57.920 -60.680  1.00  0.00    -0.351 N 
HETATM   29  H   UNL     1     -44.885  57.213 -61.208  1.00  0.00     0.163 HD
HETATM   30  O   UNL     1     -45.017  59.739 -59.312  1.00  0.00    -0.271 OA
BRANCH  28  31
HETATM   31  C   UNL     1     -46.806  57.672 -60.372  1.00  0.00     0.022 C 
HETATM   32  C   UNL     1     -47.685  58.855 -60.808  1.00  0.00     0.037 C 
HETATM   33  C   UNL     1     -46.994  57.400 -58.872  1.00  0.00     0.037 C 
HETATM   34  C   UNL     1     -47.253  56.426 -61.158  1.00  0.00     0.037 C 
ENDBRANCH  28  31
ENDBRANCH  26  27
ENDBRANCH  25  26
ENDBRANCH   1  25
TORSDOF 8
ENDMDL
MODEL 8
REMARK VINA RESULT:      -7.2      1.515      2.001
REMARK  8 active torsions:
REMARK  status: ('A' for Active; 'I' for Inactive)
REMARK    1  A    between atoms: C_2  and  N_3 
REMARK       I    between atoms: N_3  and  C_4 
REMARK    2  A    between atoms: C_4  and  C_5 
REMARK    3  A    between atoms: C_5  and  O_6 
REMARK    4  A    between atoms: O_6  and  C_7 
REMARK    5  A    between atoms: C_11  and  C_12 
REMARK    6  A    between atoms: C_12  and  N_13 
REMARK    7  A    between atoms: N_13  and  C_14 
REMARK    8  A    between atoms: C_25  and  O_26 
ROOT
HETATM    1  C   UNL     1     -42.515  57.519 -52.909  1.00  0.00     0.124 A 
HETATM    2  C   UNL     1     -43.048  56.223 -52.914  1.00  0.00     0.070 A 
HETATM    3 CL   UNL     1     -44.019  55.665 -54.232  1.00  0.00    -0.081 Cl
HETATM    4  C   UNL     1     -42.791  55.341 -51.859  1.00  0.00     0.035 A 
HETATM    5  C   UNL     1     -42.014  55.745 -50.764  1.00  0.00    -0.041 A 
HETATM    6  C   UNL     1     -41.479  57.041 -50.758  1.00  0.00     0.048 A 
HETATM    7  C   UNL     1     -41.753  57.926 -51.807  1.00  0.00     0.103 A 
ENDROOT
BRANCH   5   8
HETATM    8  C   UNL     1     -41.734  54.791 -49.627  1.00  0.00     0.131 C 
BRANCH   8   9
HETATM    9  N   UNL     1     -40.418  54.198 -49.813  1.00  0.00    -0.289 NA
HETATM   10  H   UNL     1     -39.876  54.180 -48.951  1.00  0.00     0.128 HD
BRANCH   9  11
HETATM   11  C   UNL     1     -40.304  52.996 -50.528  1.00  0.00     0.010 A 
HETATM   12  C   UNL     1     -40.095  52.947 -51.916  1.00  0.00     0.055 A 
HETATM   13  C   UNL     1     -39.913  51.709 -52.494  1.00  0.00     0.065 A 
HETATM   14  C   UNL     1     -39.908  50.532 -51.752  1.00  0.00     0.063 A 
HETATM   15  N   UNL     1     -39.697  51.375 -53.827  1.00  0.00    -0.306 N 
HETATM   16  N   UNL     1     -39.694  49.473 -52.626  1.00  0.00    -0.307 N 
HETATM   17  C   UNL     1     -40.074  50.533 -50.392  1.00  0.00     0.034 A 
HETATM   18  C   UNL     1     -39.556  49.983 -53.925  1.00  0.00     0.325 A 
HETATM   19  H   UNL     1     -39.625  48.495 -52.397  1.00  0.00     0.170 HD
HETATM   20  O   UNL     1     -39.351  49.343 -54.940  1.00  0.00    -0.247 OA
HETATM   21  C   UNL     1     -40.257  51.783 -49.784  1.00  0.00     0.026 A 
HETATM   22  H   UNL     1     -39.631  52.000 -54.613  1.00  0.00     0.170 HD
ENDBRANCH   9  11
ENDBRANCH   8   9
ENDBRANCH   5   8
BRANCH   7  23
HETATM   23  O   UNL     1     -41.210  59.182 -51.734  1.00  0.00    -0.353 OA
HETATM   24  C   UNL     1     -40.768  59.451 -50.403  1.00  0.00     0.210 C 
ENDBRANCH   7  23
BRANCH   1  25
HETATM   25  O   UNL     1     -42.843  58.346 -53.953  1.00  0.00    -0.337 OA
BRANCH  25  26
HETATM   26  C   UNL     1     -41.831  58.460 -54.956  1.00  0.00     0.278 C 
BRANCH  26  27
HETATM   27  C   UNL     1     -42.462  58.552 -56.347  1.00  0.00     0.242 C 
HETATM   28  N   UNL     1     -42.567  57.340 -56.999  1.00  0.00    -0.351 N 
HETATM   29  H   UNL     1     -42.376  56.523 -56.425  1.00  0.00     0.163 HD
HETATM   30  O   UNL     1     -42.797  59.629 -56.831  1.00  0.00    -0.271 OA
BRANCH  28  31
HETATM   31  C   UNL     1     -43.179  57.132 -58.318  1.00  0.00     0.022 C 
HETATM   32  C   UNL     1     -43.260  55.637 -58.664  1.00  0.00     0.037 C 
HETATM   33  C   UNL     1     -42.396  57.883 -59.405  1.00  0.00     0.037 C 
HETATM   34  C   UNL     1     -44.613  57.692 -58.271  1.00  0.00     0.037 C 
ENDBRANCH  28  31
ENDBRANCH  26  27
ENDBRANCH  25  26
ENDBRANCH   1  25
TORSDOF 8
ENDMDL
MODEL 9
REMARK VINA RESULT:      -7.1      2.405      3.124
REMARK  8 active torsions:
REMARK  status: ('A' for Active; 'I' for Inactive)
REMARK    1  A    between atoms: C_2  and  N_3 
REMARK       I    between atoms: N_3  and  C_4 
REMARK    2  A    between atoms: C_4  and  C_5 
REMARK    3  A    between atoms: C_5  and  O_6 
REMARK    4  A    between atoms: O_6  and  C_7 
REMARK    5  A    between atoms: C_11  and  C_12 
REMARK    6  A    between atoms: C_12  and  N_13 
REMARK    7  A    between atoms: N_13  and  C_14 
REMARK    8  A    between atoms: C_25  and  O_26 
ROOT
HETATM    1  C   UNL     1     -41.257  58.572 -53.203  1.00  0.00     0.124 A 
HETATM    2  C   UNL     1     -41.813  57.387 -53.703  1.00  0.00     0.070 A 
HETATM    3 CL   UNL     1     -42.180  57.216 -55.384  1.00  0.00    -0.081 Cl
HETATM    4  C   UNL     1     -42.068  56.304 -52.855  1.00  0.00     0.035 A 
HETATM    5  C   UNL     1     -41.794  56.392 -51.483  1.00  0.00    -0.041 A 
HETATM    6  C   UNL     1     -41.236  57.577 -50.981  1.00  0.00     0.048 A 
HETATM    7  C   UNL     1     -40.999  58.663 -51.829  1.00  0.00     0.103 A 
ENDROOT
BRANCH   5   8
HETATM    8  C   UNL     1     -42.065  55.220 -50.569  1.00  0.00     0.131 C 
BRANCH   8   9
HETATM    9  N   UNL     1     -40.817  54.524 -50.299  1.00  0.00    -0.289 NA
HETATM   10  H   UNL     1     -40.585  54.514 -49.308  1.00  0.00     0.128 HD
BRANCH   9  11
HETATM   11  C   UNL     1     -40.584  53.279 -50.903  1.00  0.00     0.010 A 
HETATM   12  C   UNL     1     -40.469  53.111 -52.293  1.00  0.00     0.055 A 
HETATM   13  C   UNL     1     -40.154  51.854 -52.763  1.00  0.00     0.065 A 
HETATM   14  C   UNL     1     -39.930  50.774 -51.915  1.00  0.00     0.063 A 
HETATM   15  N   UNL     1     -39.987  51.412 -54.072  1.00  0.00    -0.306 N 
HETATM   16  N   UNL     1     -39.630  49.667 -52.699  1.00  0.00    -0.307 N 
HETATM   17  C   UNL     1     -39.998  50.897 -50.552  1.00  0.00     0.034 A 
HETATM   18  C   UNL     1     -39.657  50.049 -54.048  1.00  0.00     0.325 A 
HETATM   19  H   UNL     1     -39.407  48.737 -52.385  1.00  0.00     0.170 HD
HETATM   20  O   UNL     1     -39.436  49.338 -55.011  1.00  0.00    -0.247 OA
HETATM   21  C   UNL     1     -40.313  52.169 -50.053  1.00  0.00     0.026 A 
HETATM   22  H   UNL     1     -40.067  51.954 -54.917  1.00  0.00     0.170 HD
ENDBRANCH   9  11
ENDBRANCH   8   9
ENDBRANCH   5   8
BRANCH   7  23
HETATM   23  O   UNL     1     -40.465  59.796 -51.274  1.00  0.00    -0.353 OA
HETATM   24  C   UNL     1     -39.177  59.514 -50.724  1.00  0.00     0.210 C 
ENDBRANCH   7  23
BRANCH   1  25
HETATM   25  O   UNL     1     -41.075  59.610 -54.082  1.00  0.00    -0.337 OA
BRANCH  25  26
HETATM   26  C   UNL     1     -42.176  60.517 -54.158  1.00  0.00     0.278 C 
BRANCH  26  27
HETATM   27  C   UNL     1     -42.683  60.625 -55.598  1.00  0.00     0.242 C 
HETATM   28  N   UNL     1     -41.796  61.231 -56.464  1.00  0.00    -0.351 N 
HETATM   29  H   UNL     1     -40.861  61.377 -56.091  1.00  0.00     0.163 HD
HETATM   30  O   UNL     1     -43.803  60.236 -55.917  1.00  0.00    -0.271 OA
BRANCH  28  31
HETATM   31  C   UNL     1     -42.003  61.415 -57.906  1.00  0.00     0.022 C 
HETATM   32  C   UNL     1     -43.203  62.333 -58.183  1.00  0.00     0.037 C 
HETATM   33  C   UNL     1     -42.204  60.060 -58.603  1.00  0.00     0.037 C 
HETATM   34  C   UNL     1     -40.742  62.083 -58.486  1.00  0.00     0.037 C 
ENDBRANCH  28  31
ENDBRANCH  26  27
ENDBRANCH  25  26
ENDBRANCH   1  25
TORSDOF 8
ENDMDL
MODEL 10
REMARK VINA RESULT:      -7.1      2.859      4.056
REMARK  8 active torsions:
REMARK  status: ('A' for Active; 'I' for Inactive)
REMARK    1  A    between atoms: C_2  and  N_3 
REMARK       I    between atoms: N_3  and  C_4 
REMARK    2  A    between atoms: C_4  and  C_5 
REMARK    3  A    between atoms: C_5  and  O_6 
REMARK    4  A    between atoms: O_6  and  C_7 
REMARK    5  A    between atoms: C_11  and  C_12 
REMARK    6  A    between atoms: C_12  and  N_13 
REMARK    7  A    between atoms: N_13  and  C_14 
REMARK    8  A    between atoms: C_25  and  O_26 
ROOT
HETATM    1  C   UNL     1     -43.951  58.745 -55.329  1.00  0.00     0.124 A 
HETATM    2  C   UNL     1     -42.716  58.235 -55.751  1.00  0.00     0.070 A 
HETATM    3 CL   UNL     1     -42.253  58.286 -57.417  1.00  0.00    -0.081 Cl
HETATM    4  C   UNL     1     -41.817  57.686 -54.830  1.00  0.00     0.035 A 
HETATM    5  C   UNL     1     -42.145  57.616 -53.468  1.00  0.00    -0.041 A 
HETATM    6  C   UNL     1     -43.380  58.128 -53.044  1.00  0.00     0.048 A 
HETATM    7  C   UNL     1     -44.283  58.659 -53.971  1.00  0.00     0.103 A 
ENDROOT
BRANCH   5   8
HETATM    8  C   UNL     1     -41.173  57.028 -52.473  1.00  0.00     0.131 C 
BRANCH   8   9
HETATM    9  N   UNL     1     -41.799  55.900 -51.800  1.00  0.00    -0.289 NA
HETATM   10  H   UNL     1     -42.813  55.914 -51.883  1.00  0.00     0.128 HD
BRANCH   9  11
HETATM   11  C   UNL     1     -41.275  54.613 -51.990  1.00  0.00     0.010 A 
HETATM   12  C   UNL     1     -41.379  53.915 -53.205  1.00  0.00     0.055 A 
HETATM   13  C   UNL     1     -40.751  52.692 -53.298  1.00  0.00     0.065 A 
HETATM   14  C   UNL     1     -40.012  52.150 -52.251  1.00  0.00     0.063 A 
HETATM   15  N   UNL     1     -40.698  51.800 -54.365  1.00  0.00    -0.306 N 
HETATM   16  N   UNL     1     -39.508  50.925 -52.669  1.00  0.00    -0.307 N 
HETATM   17  C   UNL     1     -39.854  52.809 -51.060  1.00  0.00     0.034 A 
HETATM   18  C   UNL     1     -39.924  50.693 -53.988  1.00  0.00     0.325 A 
HETATM   19  H   UNL     1     -38.924  50.293 -52.146  1.00  0.00     0.170 HD
HETATM   20  O   UNL     1     -39.663  49.721 -54.673  1.00  0.00    -0.247 OA
HETATM   21  C   UNL     1     -40.482  54.057 -50.946  1.00  0.00     0.026 A 
HETATM   22  H   UNL     1     -41.119  51.905 -55.273  1.00  0.00     0.170 HD
ENDBRANCH   9  11
ENDBRANCH   8   9
ENDBRANCH   5   8
BRANCH   7  23
HETATM   23  O   UNL     1     -45.477  59.131 -53.494  1.00  0.00    -0.353 OA
HETATM   24  C   UNL     1     -45.296  60.420 -52.904  1.00  0.00     0.210 C 
ENDBRANCH   7  23
BRANCH   1  25
HETATM   25  O   UNL     1     -44.802  59.227 -56.291  1.00  0.00    -0.337 OA
BRANCH  25  26
HETATM   26  C   UNL     1     -45.816  58.305 -56.696  1.00  0.00     0.278 C 
BRANCH  26  27
HETATM   27  C   UNL     1     -45.680  57.978 -58.185  1.00  0.00     0.242 C 
HETATM   28  N   UNL     1     -45.200  56.710 -58.442  1.00  0.00    -0.351 N 
HETATM   29  H   UNL     1     -45.156  56.094 -57.634  1.00  0.00     0.163 HD
HETATM   30  O   UNL     1     -45.944  58.806 -59.052  1.00  0.00    -0.271 OA
BRANCH  28  31
HETATM   31  C   UNL     1     -45.024  56.119 -59.774  1.00  0.00     0.022 C 
HETATM   32  C   UNL     1     -46.345  56.111 -60.559  1.00  0.00     0.037 C 
HETATM   33  C   UNL     1     -44.467  54.691 -59.665  1.00  0.00     0.037 C 
HETATM   34  C   UNL     1     -44.010  56.983 -60.548  1.00  0.00     0.037 C 
ENDBRANCH  28  31
ENDBRANCH  26  27
ENDBRANCH  25  26
ENDBRANCH   1  25
TORSDOF 8
ENDMDL
