MODEL 1
REMARK VINA RESULT:      -7.4      0.000      0.000
REMARK  4 active torsions:
REMARK  status: ('A' for Active; 'I' for Inactive)
REMARK    1  A    between atoms: O_2  and  C_3 
REMARK    2  A    between atoms: C_5  and  N_6 
REMARK    3  A    between atoms: N_6  and  C_7 
REMARK    4  A    between atoms: C_7  and  C_8 
ROOT
HETATM    1  N   UNL     1     -43.272  55.829 -56.272  1.00  0.00    -0.371 N 
HETATM    2  H   UNL     1     -43.577  56.462 -55.542  1.00  0.00     0.161 HD
ENDROOT
BRANCH   1   3
HETATM    3  C   UNL     1     -43.035  56.280 -57.544  1.00  0.00     0.103 A 
HETATM    4  C   UNL     1     -43.619  55.774 -58.708  1.00  0.00     0.085 A 
HETATM    5  C   UNL     1     -43.324  56.328 -59.956  1.00  0.00     0.073 A 
HETATM    6  C   UNL     1     -42.445  57.397 -60.034  1.00  0.00     0.053 A 
HETATM    7  C   UNL     1     -41.889  57.881 -58.860  1.00  0.00     0.092 A 
HETATM    8  N   UNL     1     -42.197  57.323 -57.682  1.00  0.00    -0.352 N 
HETATM    9  H   UNL     1     -41.788  57.706 -56.836  1.00  0.00     0.166 HD
BRANCH   5  10
HETATM   10  O   UNL     1     -43.964  55.736 -61.005  1.00  0.00    -0.356 OA
HETATM   11  C   UNL     1     -45.015  54.820 -60.708  1.00  0.00     0.210 C 
ENDBRANCH   5  10
ENDBRANCH   1   3
BRANCH   1  12
HETATM   12  C   UNL     1     -42.734  54.575 -55.750  1.00  0.00     0.180 C 
BRANCH  12  13
HETATM   13  C   UNL     1     -42.143  54.656 -54.393  1.00  0.00     0.053 A 
HETATM   14  N   UNL     1     -41.358  53.657 -53.839  1.00  0.00    -0.306 N 
HETATM   15  C   UNL     1     -41.003  54.089 -52.564  1.00  0.00     0.133 A 
HETATM   16  C   UNL     1     -40.953  52.430 -54.366  1.00  0.00     0.118 A 
HETATM   17  C   UNL     1     -40.190  53.223 -51.781  1.00  0.00     0.052 A 
HETATM   18  N   UNL     1     -41.510  55.272 -52.297  1.00  0.00    -0.241 NA
HETATM   19  C   UNL     1     -39.797  52.037 -52.284  1.00  0.00     0.024 A 
HETATM   20  C   UNL     1     -40.185  51.614 -53.623  1.00  0.00     0.027 A 
HETATM   21 BR   UNL     1     -39.596  49.960 -54.239  1.00  0.00    -0.050 Br
HETATM   22  C   UNL     1     -42.218  55.625 -53.411  1.00  0.00     0.146 A 
ENDBRANCH  12  13
ENDBRANCH   1  12
TORSDOF 4
ENDMDL
MODEL 2
REMARK VINA RESULT:      -6.9      1.087      1.865
REMARK  4 active torsions:
REMARK  status: ('A' for Active; 'I' for Inactive)
REMARK    1  A    between atoms: O_2  and  C_3 
REMARK    2  A    between atoms: C_5  and  N_6 
REMARK    3  A    between atoms: N_6  and  C_7 
REMARK    4  A    between atoms: C_7  and  C_8 
ROOT
HETATM    1  N   UNL     1     -42.383  55.534 -56.835  1.00  0.00    -0.371 N 
HETATM    2  H   UNL     1     -41.387  55.681 -56.727  1.00  0.00     0.161 HD
ENDROOT
BRANCH   1   3
HETATM    3  C   UNL     1     -43.012  55.807 -58.022  1.00  0.00     0.103 A 
HETATM    4  C   UNL     1     -42.803  56.942 -58.810  1.00  0.00     0.085 A 
HETATM    5  C   UNL     1     -43.481  57.107 -60.021  1.00  0.00     0.073 A 
HETATM    6  C   UNL     1     -44.366  56.128 -60.442  1.00  0.00     0.053 A 
HETATM    7  C   UNL     1     -44.545  55.010 -59.641  1.00  0.00     0.092 A 
HETATM    8  N   UNL     1     -43.876  54.888 -58.487  1.00  0.00    -0.352 N 
HETATM    9  H   UNL     1     -44.014  54.053 -57.927  1.00  0.00     0.166 HD
BRANCH   5  10
HETATM   10  O   UNL     1     -43.181  58.259 -60.685  1.00  0.00    -0.356 OA
HETATM   11  C   UNL     1     -42.198  59.118 -60.114  1.00  0.00     0.210 C 
ENDBRANCH   5  10
ENDBRANCH   1   3
BRANCH   1  12
HETATM   12  C   UNL     1     -42.946  54.658 -55.810  1.00  0.00     0.180 C 
BRANCH  12  13
HETATM   13  C   UNL     1     -42.326  54.778 -54.467  1.00  0.00     0.053 A 
HETATM   14  N   UNL     1     -41.521  53.799 -53.909  1.00  0.00    -0.306 N 
HETATM   15  C   UNL     1     -41.141  54.264 -52.652  1.00  0.00     0.133 A 
HETATM   16  C   UNL     1     -41.116  52.563 -54.416  1.00  0.00     0.118 A 
HETATM   17  C   UNL     1     -40.304  53.423 -51.867  1.00  0.00     0.052 A 
HETATM   18  N   UNL     1     -41.653  55.448 -52.402  1.00  0.00    -0.241 NA
HETATM   19  C   UNL     1     -39.910  52.230 -52.351  1.00  0.00     0.024 A 
HETATM   20  C   UNL     1     -40.323  51.771 -53.671  1.00  0.00     0.027 A 
HETATM   21 BR   UNL     1     -39.733  50.108 -54.260  1.00  0.00    -0.050 Br
HETATM   22  C   UNL     1     -42.388  55.768 -53.507  1.00  0.00     0.146 A 
ENDBRANCH  12  13
ENDBRANCH   1  12
TORSDOF 4
ENDMDL
MODEL 3
REMARK VINA RESULT:      -6.5     14.280     15.629
REMARK  4 active torsions:
REMARK  status: ('A' for Active; 'I' for Inactive)
REMARK    1  A    between atoms: O_2  and  C_3 
REMARK    2  A    between atoms: C_5  and  N_6 
REMARK    3  A    between atoms: N_6  and  C_7 
REMARK    4  A    between atoms: C_7  and  C_8 
ROOT
HETATM    1  N   UNL     1     -34.925  40.761 -56.810  1.00  0.00    -0.371 N 
HETATM    2  H   UNL     1     -33.921  40.868 -56.896  1.00  0.00     0.161 HD
ENDROOT
BRANCH   1   3
HETATM    3  C   UNL     1     -35.741  40.854 -57.908  1.00  0.00     0.103 A 
HETATM    4  C   UNL     1     -36.121  39.789 -58.729  1.00  0.00     0.085 A 
HETATM    5  C   UNL     1     -36.982  39.992 -59.811  1.00  0.00     0.073 A 
HETATM    6  C   UNL     1     -37.464  41.266 -60.065  1.00  0.00     0.053 A 
HETATM    7  C   UNL     1     -37.073  42.300 -59.227  1.00  0.00     0.092 A 
HETATM    8  N   UNL     1     -36.247  42.064 -58.199  1.00  0.00    -0.352 N 
HETATM    9  H   UNL     1     -35.989  42.835 -57.591  1.00  0.00     0.166 HD
BRANCH   5  10
HETATM   10  O   UNL     1     -37.269  38.867 -60.525  1.00  0.00    -0.356 OA
HETATM   11  C   UNL     1     -37.556  39.017 -61.913  1.00  0.00     0.210 C 
ENDBRANCH   5  10
ENDBRANCH   1   3
BRANCH   1  12
HETATM   12  C   UNL     1     -35.325  40.114 -55.563  1.00  0.00     0.180 C 
BRANCH  12  13
HETATM   13  C   UNL     1     -35.440  41.016 -54.391  1.00  0.00     0.053 A 
HETATM   14  N   UNL     1     -34.778  40.800 -53.193  1.00  0.00    -0.306 N 
HETATM   15  C   UNL     1     -35.140  41.842 -52.344  1.00  0.00     0.133 A 
HETATM   16  C   UNL     1     -33.910  39.775 -52.812  1.00  0.00     0.118 A 
HETATM   17  C   UNL     1     -34.588  41.842 -51.033  1.00  0.00     0.052 A 
HETATM   18  N   UNL     1     -35.970  42.676 -52.930  1.00  0.00    -0.241 NA
HETATM   19  C   UNL     1     -33.750  40.856 -50.659  1.00  0.00     0.024 A 
HETATM   20  C   UNL     1     -33.390  39.779 -51.572  1.00  0.00     0.027 A 
HETATM   21 BR   UNL     1     -32.225  38.458 -50.972  1.00  0.00    -0.050 Br
HETATM   22  C   UNL     1     -36.165  42.173 -54.185  1.00  0.00     0.146 A 
ENDBRANCH  12  13
ENDBRANCH   1  12
TORSDOF 4
ENDMDL
MODEL 4
REMARK VINA RESULT:      -6.4      2.160      2.731
REMARK  4 active torsions:
REMARK  status: ('A' for Active; 'I' for Inactive)
REMARK    1  A    between atoms: O_2  and  C_3 
REMARK    2  A    between atoms: C_5  and  N_6 
REMARK    3  A    between atoms: N_6  and  C_7 
REMARK    4  A    between atoms: C_7  and  C_8 
ROOT
HETATM    1  N   UNL     1     -43.399  55.726 -56.119  1.00  0.00    -0.371 N 
HETATM    2  H   UNL     1     -44.168  55.395 -55.549  1.00  0.00     0.161 HD
ENDROOT
BRANCH   1   3
HETATM    3  C   UNL     1     -43.456  56.947 -56.741  1.00  0.00     0.103 A 
HETATM    4  C   UNL     1     -42.407  57.866 -56.823  1.00  0.00     0.085 A 
HETATM    5  C   UNL     1     -42.567  59.075 -57.507  1.00  0.00     0.073 A 
HETATM    6  C   UNL     1     -43.781  59.356 -58.111  1.00  0.00     0.053 A 
HETATM    7  C   UNL     1     -44.799  58.420 -58.017  1.00  0.00     0.092 A 
HETATM    8  N   UNL     1     -44.607  57.273 -57.354  1.00  0.00    -0.352 N 
HETATM    9  H   UNL     1     -45.363  56.597 -57.313  1.00  0.00     0.166 HD
BRANCH   5  10
HETATM   10  O   UNL     1     -41.463  59.875 -57.508  1.00  0.00    -0.356 OA
HETATM   11  C   UNL     1     -41.662  61.279 -57.648  1.00  0.00     0.210 C 
ENDBRANCH   5  10
ENDBRANCH   1   3
BRANCH   1  12
HETATM   12  C   UNL     1     -42.150  55.012 -55.864  1.00  0.00     0.180 C 
BRANCH  12  13
HETATM   13  C   UNL     1     -41.706  55.002 -54.449  1.00  0.00     0.053 A 
HETATM   14  N   UNL     1     -41.086  53.916 -53.851  1.00  0.00    -0.306 N 
HETATM   15  C   UNL     1     -40.832  54.279 -52.531  1.00  0.00     0.133 A 
HETATM   16  C   UNL     1     -40.745  52.668 -54.375  1.00  0.00     0.118 A 
HETATM   17  C   UNL     1     -40.196  53.318 -51.697  1.00  0.00     0.052 A 
HETATM   18  N   UNL     1     -41.249  55.500 -52.278  1.00  0.00    -0.241 NA
HETATM   19  C   UNL     1     -39.866  52.112 -52.196  1.00  0.00     0.024 A 
HETATM   20  C   UNL     1     -40.144  51.762 -53.583  1.00  0.00     0.027 A 
HETATM   21 BR   UNL     1     -39.653  50.073 -54.190  1.00  0.00    -0.050 Br
HETATM   22  C   UNL     1     -41.793  55.948 -53.447  1.00  0.00     0.146 A 
ENDBRANCH  12  13
ENDBRANCH   1  12
TORSDOF 4
ENDMDL
MODEL 5
REMARK VINA RESULT:      -6.2      2.489      3.181
REMARK  4 active torsions:
REMARK  status: ('A' for Active; 'I' for Inactive)
REMARK    1  A    between atoms: O_2  and  C_3 
REMARK    2  A    between atoms: C_5  and  N_6 
REMARK    3  A    between atoms: N_6  and  C_7 
REMARK    4  A    between atoms: C_7  and  C_8 
ROOT
HETATM    1  N   UNL     1     -42.269  55.737 -56.508  1.00  0.00    -0.371 N 
HETATM    2  H   UNL     1     -41.367  55.918 -56.083  1.00  0.00     0.161 HD
ENDROOT
BRANCH   1   3
HETATM    3  C   UNL     1     -42.561  56.201 -57.765  1.00  0.00     0.103 A 
HETATM    4  C   UNL     1     -43.314  55.522 -58.726  1.00  0.00     0.085 A 
HETATM    5  C   UNL     1     -43.575  56.101 -59.971  1.00  0.00     0.073 A 
HETATM    6  C   UNL     1     -43.082  57.366 -60.247  1.00  0.00     0.053 A 
HETATM    7  C   UNL     1     -42.346  58.017 -59.269  1.00  0.00     0.092 A 
HETATM    8  N   UNL     1     -42.118  57.428 -58.088  1.00  0.00    -0.352 N 
HETATM    9  H   UNL     1     -41.589  57.932 -57.383  1.00  0.00     0.166 HD
BRANCH   5  10
HETATM   10  O   UNL     1     -44.321  55.327 -60.810  1.00  0.00    -0.356 OA
HETATM   11  C   UNL     1     -45.712  55.620 -60.921  1.00  0.00     0.210 C 
ENDBRANCH   5  10
ENDBRANCH   1   3
BRANCH   1  12
HETATM   12  C   UNL     1     -42.995  54.645 -55.865  1.00  0.00     0.180 C 
BRANCH  12  13
HETATM   13  C   UNL     1     -42.420  54.174 -54.582  1.00  0.00     0.053 A 
HETATM   14  N   UNL     1     -42.701  54.761 -53.358  1.00  0.00    -0.306 N 
HETATM   15  C   UNL     1     -41.975  54.055 -52.401  1.00  0.00     0.133 A 
HETATM   16  C   UNL     1     -43.523  55.843 -53.042  1.00  0.00     0.118 A 
HETATM   17  C   UNL     1     -42.093  54.475 -51.047  1.00  0.00     0.052 A 
HETATM   18  N   UNL     1     -41.275  53.085 -52.947  1.00  0.00    -0.241 NA
HETATM   19  C   UNL     1     -42.885  55.519 -50.736  1.00  0.00     0.024 A 
HETATM   20  C   UNL     1     -43.632  56.237 -51.760  1.00  0.00     0.027 A 
HETATM   21 BR   UNL     1     -44.702  57.668 -51.241  1.00  0.00    -0.050 Br
HETATM   22  C   UNL     1     -41.536  53.156 -54.285  1.00  0.00     0.146 A 
ENDBRANCH  12  13
ENDBRANCH   1  12
TORSDOF 4
ENDMDL
MODEL 6
REMARK VINA RESULT:      -6.2      1.998      2.573
REMARK  4 active torsions:
REMARK  status: ('A' for Active; 'I' for Inactive)
REMARK    1  A    between atoms: O_2  and  C_3 
REMARK    2  A    between atoms: C_5  and  N_6 
REMARK    3  A    between atoms: N_6  and  C_7 
REMARK    4  A    between atoms: C_7  and  C_8 
ROOT
HETATM    1  N   UNL     1     -42.199  55.030 -55.689  1.00  0.00    -0.371 N 
HETATM    2  H   UNL     1     -42.682  54.240 -55.277  1.00  0.00     0.161 HD
ENDROOT
BRANCH   1   3
HETATM    3  C   UNL     1     -42.862  55.921 -56.494  1.00  0.00     0.103 A 
HETATM    4  C   UNL     1     -43.628  57.001 -56.050  1.00  0.00     0.085 A 
HETATM    5  C   UNL     1     -44.241  57.866 -56.961  1.00  0.00     0.073 A 
HETATM    6  C   UNL     1     -44.079  57.646 -58.319  1.00  0.00     0.053 A 
HETATM    7  C   UNL     1     -43.306  56.569 -58.727  1.00  0.00     0.092 A 
HETATM    8  N   UNL     1     -42.734  55.764 -57.822  1.00  0.00    -0.352 N 
HETATM    9  H   UNL     1     -42.161  54.992 -58.147  1.00  0.00     0.166 HD
BRANCH   5  10
HETATM   10  O   UNL     1     -44.957  58.876 -56.390  1.00  0.00    -0.356 OA
HETATM   11  C   UNL     1     -45.230  58.789 -54.994  1.00  0.00     0.210 C 
ENDBRANCH   5  10
ENDBRANCH   1   3
BRANCH   1  12
HETATM   12  C   UNL     1     -40.932  55.332 -55.028  1.00  0.00     0.180 C 
BRANCH  12  13
HETATM   13  C   UNL     1     -40.858  54.945 -53.598  1.00  0.00     0.053 A 
HETATM   14  N   UNL     1     -40.497  53.679 -53.167  1.00  0.00    -0.306 N 
HETATM   15  C   UNL     1     -40.552  53.700 -51.776  1.00  0.00     0.133 A 
HETATM   16  C   UNL     1     -40.138  52.544 -53.896  1.00  0.00     0.118 A 
HETATM   17  C   UNL     1     -40.225  52.498 -51.088  1.00  0.00     0.052 A 
HETATM   18  N   UNL     1     -40.919  54.879 -51.326  1.00  0.00    -0.241 NA
HETATM   19  C   UNL     1     -39.879  51.400 -51.786  1.00  0.00     0.024 A 
HETATM   20  C   UNL     1     -39.829  51.410 -53.243  1.00  0.00     0.027 A 
HETATM   21 BR   UNL     1     -39.340  49.847 -54.127  1.00  0.00    -0.050 Br
HETATM   22  C   UNL     1     -41.116  55.648 -52.437  1.00  0.00     0.146 A 
ENDBRANCH  12  13
ENDBRANCH   1  12
TORSDOF 4
ENDMDL
MODEL 7
REMARK VINA RESULT:      -6.2      3.308      7.231
REMARK  4 active torsions:
REMARK  status: ('A' for Active; 'I' for Inactive)
REMARK    1  A    between atoms: O_2  and  C_3 
REMARK    2  A    between atoms: C_5  and  N_6 
REMARK    3  A    between atoms: N_6  and  C_7 
REMARK    4  A    between atoms: C_7  and  C_8 
ROOT
HETATM    1  N   UNL     1     -42.140  54.819 -53.930  1.00  0.00    -0.371 N 
HETATM    2  H   UNL     1     -42.846  55.342 -53.426  1.00  0.00     0.161 HD
ENDROOT
BRANCH   1   3
HETATM    3  C   UNL     1     -41.367  53.882 -53.293  1.00  0.00     0.103 A 
HETATM    4  C   UNL     1     -40.652  52.858 -53.920  1.00  0.00     0.085 A 
HETATM    5  C   UNL     1     -39.872  51.970 -53.174  1.00  0.00     0.073 A 
HETATM    6  C   UNL     1     -39.808  52.116 -51.797  1.00  0.00     0.053 A 
HETATM    7  C   UNL     1     -40.523  53.146 -51.207  1.00  0.00     0.092 A 
HETATM    8  N   UNL     1     -41.259  53.977 -51.957  1.00  0.00    -0.352 N 
HETATM    9  H   UNL     1     -41.761  54.733 -51.502  1.00  0.00     0.166 HD
BRANCH   5  10
HETATM   10  O   UNL     1     -39.229  51.022 -53.913  1.00  0.00    -0.356 OA
HETATM   11  C   UNL     1     -39.966  49.863 -54.291  1.00  0.00     0.210 C 
ENDBRANCH   5  10
ENDBRANCH   1   3
BRANCH   1  12
HETATM   12  C   UNL     1     -42.326  54.857 -55.378  1.00  0.00     0.180 C 
BRANCH  12  13
HETATM   13  C   UNL     1     -42.461  56.214 -55.962  1.00  0.00     0.053 A 
HETATM   14  N   UNL     1     -43.008  56.458 -57.211  1.00  0.00    -0.306 N 
HETATM   15  C   UNL     1     -42.954  57.835 -57.409  1.00  0.00     0.133 A 
HETATM   16  C   UNL     1     -43.530  55.574 -58.158  1.00  0.00     0.118 A 
HETATM   17  C   UNL     1     -43.458  58.341 -58.640  1.00  0.00     0.052 A 
HETATM   18  N   UNL     1     -42.416  58.449 -56.379  1.00  0.00    -0.241 NA
HETATM   19  C   UNL     1     -43.962  57.493 -59.556  1.00  0.00     0.024 A 
HETATM   20  C   UNL     1     -44.006  56.056 -59.319  1.00  0.00     0.027 A 
HETATM   21 BR   UNL     1     -44.720  54.958 -60.641  1.00  0.00    -0.050 Br
HETATM   22  C   UNL     1     -42.104  57.462 -55.489  1.00  0.00     0.146 A 
ENDBRANCH  12  13
ENDBRANCH   1  12
TORSDOF 4
ENDMDL
MODEL 8
REMARK VINA RESULT:      -6.1      5.189      7.737
REMARK  4 active torsions:
REMARK  status: ('A' for Active; 'I' for Inactive)
REMARK    1  A    between atoms: O_2  and  C_3 
REMARK    2  A    between atoms: C_5  and  N_6 
REMARK    3  A    between atoms: N_6  and  C_7 
REMARK    4  A    between atoms: C_7  and  C_8 
ROOT
HETATM    1  N   UNL     1     -42.919  54.937 -52.933  1.00  0.00    -0.371 N 
HETATM    2  H   UNL     1     -43.804  54.500 -53.165  1.00  0.00     0.161 HD
ENDROOT
BRANCH   1   3
HETATM    3  C   UNL     1     -41.883  54.201 -52.420  1.00  0.00     0.103 A 
HETATM    4  C   UNL     1     -41.402  54.279 -51.111  1.00  0.00     0.085 A 
HETATM    5  C   UNL     1     -40.352  53.461 -50.684  1.00  0.00     0.073 A 
HETATM    6  C   UNL     1     -39.790  52.560 -51.574  1.00  0.00     0.053 A 
HETATM    7  C   UNL     1     -40.295  52.502 -52.863  1.00  0.00     0.092 A 
HETATM    8  N   UNL     1     -41.303  53.303 -53.234  1.00  0.00    -0.352 N 
HETATM    9  H   UNL     1     -41.664  53.229 -54.180  1.00  0.00     0.166 HD
BRANCH   5  10
HETATM   10  O   UNL     1     -39.985  53.642 -49.383  1.00  0.00    -0.356 OA
HETATM   11  C   UNL     1     -40.801  54.487 -48.575  1.00  0.00     0.210 C 
ENDBRANCH   5  10
ENDBRANCH   1   3
BRANCH   1  12
HETATM   12  C   UNL     1     -42.743  56.241 -53.567  1.00  0.00     0.180 C 
BRANCH  12  13
HETATM   13  C   UNL     1     -43.359  57.382 -52.846  1.00  0.00     0.053 A 
HETATM   14  N   UNL     1     -42.638  58.271 -52.065  1.00  0.00    -0.306 N 
HETATM   15  C   UNL     1     -43.554  59.185 -51.551  1.00  0.00     0.133 A 
HETATM   16  C   UNL     1     -41.272  58.323 -51.781  1.00  0.00     0.118 A 
HETATM   17  C   UNL     1     -43.053  60.210 -50.701  1.00  0.00     0.052 A 
HETATM   18  N   UNL     1     -44.776  58.923 -51.958  1.00  0.00    -0.241 NA
HETATM   19  C   UNL     1     -41.736  60.265 -50.424  1.00  0.00     0.024 A 
HETATM   20  C   UNL     1     -40.802  59.293 -50.977  1.00  0.00     0.027 A 
HETATM   21 BR   UNL     1     -38.999  59.444 -50.541  1.00  0.00    -0.050 Br
HETATM   22  C   UNL     1     -44.667  57.813 -52.748  1.00  0.00     0.146 A 
ENDBRANCH  12  13
ENDBRANCH   1  12
TORSDOF 4
ENDMDL
MODEL 9
REMARK VINA RESULT:      -6.1      4.608      6.047
REMARK  4 active torsions:
REMARK  status: ('A' for Active; 'I' for Inactive)
REMARK    1  A    between atoms: O_2  and  C_3 
REMARK    2  A    between atoms: C_5  and  N_6 
REMARK    3  A    between atoms: N_6  and  C_7 
REMARK    4  A    between atoms: C_7  and  C_8 
ROOT
HETATM    1  N   UNL     1     -42.938  55.946 -53.367  1.00  0.00    -0.371 N 
HETATM    2  H   UNL     1     -43.437  55.065 -53.339  1.00  0.00     0.161 HD
ENDROOT
BRANCH   1   3
HETATM    3  C   UNL     1     -43.325  57.001 -52.582  1.00  0.00     0.103 A 
HETATM    4  C   UNL     1     -42.471  57.963 -52.036  1.00  0.00     0.085 A 
HETATM    5  C   UNL     1     -42.976  59.015 -51.268  1.00  0.00     0.073 A 
HETATM    6  C   UNL     1     -44.343  59.104 -51.054  1.00  0.00     0.053 A 
HETATM    7  C   UNL     1     -45.163  58.138 -51.616  1.00  0.00     0.092 A 
HETATM    8  N   UNL     1     -44.640  57.145 -52.347  1.00  0.00    -0.352 N 
HETATM    9  H   UNL     1     -45.264  56.459 -52.760  1.00  0.00     0.166 HD
BRANCH   5  10
HETATM   10  O   UNL     1     -42.032  59.879 -50.799  1.00  0.00    -0.356 OA
HETATM   11  C   UNL     1     -40.697  59.396 -50.669  1.00  0.00     0.210 C 
ENDBRANCH   5  10
ENDBRANCH   1   3
BRANCH   1  12
HETATM   12  C   UNL     1     -41.608  55.831 -53.960  1.00  0.00     0.180 C 
BRANCH  12  13
HETATM   13  C   UNL     1     -41.012  54.473 -53.916  1.00  0.00     0.053 A 
HETATM   14  N   UNL     1     -40.681  53.822 -52.739  1.00  0.00    -0.306 N 
HETATM   15  C   UNL     1     -40.145  52.589 -53.102  1.00  0.00     0.133 A 
HETATM   16  C   UNL     1     -40.812  54.232 -51.411  1.00  0.00     0.118 A 
HETATM   17  C   UNL     1     -39.718  51.725 -52.055  1.00  0.00     0.052 A 
HETATM   18  N   UNL     1     -40.124  52.438 -54.407  1.00  0.00    -0.241 NA
HETATM   19  C   UNL     1     -39.841  52.116 -50.772  1.00  0.00     0.024 A 
HETATM   20  C   UNL     1     -40.407  53.413 -50.424  1.00  0.00     0.027 A 
HETATM   21 BR   UNL     1     -40.540  53.872 -48.626  1.00  0.00    -0.050 Br
HETATM   22  C   UNL     1     -40.647  53.593 -54.916  1.00  0.00     0.146 A 
ENDBRANCH  12  13
ENDBRANCH   1  12
TORSDOF 4
ENDMDL
MODEL 10
REMARK VINA RESULT:      -6.1     14.301     15.612
REMARK  4 active torsions:
REMARK  status: ('A' for Active; 'I' for Inactive)
REMARK    1  A    between atoms: O_2  and  C_3 
REMARK    2  A    between atoms: C_5  and  N_6 
REMARK    3  A    between atoms: N_6  and  C_7 
REMARK    4  A    between atoms: C_7  and  C_8 
ROOT
HETATM    1  N   UNL     1     -37.356  41.951 -55.706  1.00  0.00    -0.371 N 
HETATM    2  H   UNL     1     -38.170  42.225 -55.169  1.00  0.00     0.161 HD
ENDROOT
BRANCH   1   3
HETATM    3  C   UNL     1     -37.484  41.435 -56.970  1.00  0.00     0.103 A 
HETATM    4  C   UNL     1     -38.033  40.190 -57.287  1.00  0.00     0.085 A 
HETATM    5  C   UNL     1     -38.140  39.773 -58.617  1.00  0.00     0.073 A 
HETATM    6  C   UNL     1     -37.700  40.611 -59.628  1.00  0.00     0.053 A 
HETATM    7  C   UNL     1     -37.168  41.844 -59.281  1.00  0.00     0.092 A 
HETATM    8  N   UNL     1     -37.083  42.208 -57.994  1.00  0.00    -0.352 N 
HETATM    9  H   UNL     1     -36.704  43.121 -57.768  1.00  0.00     0.166 HD
BRANCH   5  10
HETATM   10  O   UNL     1     -38.694  38.538 -58.780  1.00  0.00    -0.356 OA
HETATM   11  C   UNL     1     -39.028  38.130 -60.104  1.00  0.00     0.210 C 
ENDBRANCH   5  10
ENDBRANCH   1   3
BRANCH   1  12
HETATM   12  C   UNL     1     -36.115  42.530 -55.197  1.00  0.00     0.180 C 
BRANCH  12  13
HETATM   13  C   UNL     1     -35.518  41.824 -54.037  1.00  0.00     0.053 A 
HETATM   14  N   UNL     1     -34.350  41.083 -54.112  1.00  0.00    -0.306 N 
HETATM   15  C   UNL     1     -34.119  40.572 -52.837  1.00  0.00     0.133 A 
HETATM   16  C   UNL     1     -33.506  40.833 -55.195  1.00  0.00     0.118 A 
HETATM   17  C   UNL     1     -32.965  39.760 -52.655  1.00  0.00     0.052 A 
HETATM   18  N   UNL     1     -35.055  40.943 -51.992  1.00  0.00    -0.241 NA
HETATM   19  C   UNL     1     -32.147  39.515 -53.696  1.00  0.00     0.024 A 
HETATM   20  C   UNL     1     -32.416  40.065 -55.019  1.00  0.00     0.027 A 
HETATM   21 BR   UNL     1     -31.233  39.676 -56.401  1.00  0.00    -0.050 Br
HETATM   22  C   UNL     1     -35.922  41.706 -52.721  1.00  0.00     0.146 A 
ENDBRANCH  12  13
ENDBRANCH   1  12
TORSDOF 4
ENDMDL
