MODEL 1
REMARK VINA RESULT:      -8.6      0.000      0.000
REMARK  3 active torsions:
REMARK  status: ('A' for Active; 'I' for Inactive)
REMARK    1  A    between atoms: O_2  and  C_3 
REMARK       I    between atoms: N_13  and  C_14 
REMARK       I    between atoms: C_14  and  N_15 
REMARK    2  A    between atoms: N_15  and  C_16 
REMARK    3  A    between atoms: C_22  and  C_23 
ROOT
HETATM    1  C   UNL     1     -44.633  60.342 -50.647  1.00  0.00     0.069 A 
HETATM    2  C   UNL     1     -43.742  60.132 -51.707  1.00  0.00     0.051 A 
HETATM    3  C   UNL     1     -43.786  58.915 -52.422  1.00  0.00     0.002 A 
HETATM    4  C   UNL     1     -44.732  57.953 -52.060  1.00  0.00     0.043 A 
HETATM    5  N   UNL     1     -44.572  56.872 -52.901  1.00  0.00    -0.356 N 
HETATM    6  H   UNL     1     -45.128  56.029 -52.860  1.00  0.00     0.166 HD
HETATM    7  C   UNL     1     -43.527  57.102 -53.756  1.00  0.00     0.045 A 
HETATM    8  C   UNL     1     -43.051  58.379 -53.513  1.00  0.00    -0.019 A 
HETATM    9  C   UNL     1     -41.960  58.973 -54.345  1.00  0.00     0.061 C 
HETATM   10  C   UNL     1     -41.256  57.865 -55.156  1.00  0.00     0.133 C 
HETATM   11  N   UNL     1     -42.229  56.926 -55.754  1.00  0.00    -0.320 N 
HETATM   12  C   UNL     1     -42.615  57.162 -57.063  1.00  0.00     0.319 C 
HETATM   13  N   UNL     1     -43.538  56.280 -57.569  1.00  0.00    -0.338 N 
HETATM   14  O   UNL     1     -42.157  58.086 -57.730  1.00  0.00    -0.247 OA
HETATM   15  C   UNL     1     -43.015  56.127 -54.783  1.00  0.00     0.172 C 
HETATM   16  C   UNL     1     -45.644  58.152 -51.019  1.00  0.00     0.033 A 
HETATM   17  C   UNL     1     -45.573  59.363 -50.323  1.00  0.00     0.039 A 
HETATM   18  H   UNL     1     -43.458  55.344 -57.209  1.00  0.00     0.164 HD
ENDROOT
BRANCH  15  19
HETATM   19  C   UNL     1     -42.167  54.977 -54.226  1.00  0.00    -0.029 A 
HETATM   20  C   UNL     1     -42.162  54.611 -52.866  1.00  0.00     0.012 A 
HETATM   21  C   UNL     1     -41.368  53.555 -52.408  1.00  0.00     0.043 A 
HETATM   22  C   UNL     1     -40.567  52.861 -53.302  1.00  0.00     0.116 A 
HETATM   23  F   UNL     1     -39.802  51.852 -52.860  1.00  0.00    -0.206 F 
HETATM   24  C   UNL     1     -40.540  53.201 -54.646  1.00  0.00     0.043 A 
HETATM   25  C   UNL     1     -41.336  54.253 -55.106  1.00  0.00     0.012 A 
ENDBRANCH  15  19
BRANCH  13  26
HETATM   26  C   UNL     1     -44.064  56.356 -58.920  1.00  0.00     0.086 C 
HETATM   27  C   UNL     1     -44.194  55.014 -59.647  1.00  0.00     0.025 C 
HETATM   28  C   UNL     1     -45.264  55.288 -60.692  1.00  0.00     0.002 C 
HETATM   29  C   UNL     1     -46.274  56.139 -59.939  1.00  0.00     0.002 C 
HETATM   30  C   UNL     1     -45.435  57.039 -59.034  1.00  0.00     0.025 C 
ENDBRANCH  13  26
BRANCH   1  31
HETATM   31  O   UNL     1     -44.687  61.462 -49.862  1.00  0.00    -0.356 OA
HETATM   32  C   UNL     1     -45.304  61.321 -48.588  1.00  0.00     0.210 C 
ENDBRANCH   1  31
TORSDOF 3
ENDMDL
MODEL 2
REMARK VINA RESULT:      -7.7      3.068      5.409
REMARK  3 active torsions:
REMARK  status: ('A' for Active; 'I' for Inactive)
REMARK    1  A    between atoms: O_2  and  C_3 
REMARK       I    between atoms: N_13  and  C_14 
REMARK       I    between atoms: C_14  and  N_15 
REMARK    2  A    between atoms: N_15  and  C_16 
REMARK    3  A    between atoms: C_22  and  C_23 
ROOT
HETATM    1  C   UNL     1     -44.539  61.064 -49.744  1.00  0.00     0.069 A 
HETATM    2  C   UNL     1     -44.934  60.075 -50.653  1.00  0.00     0.051 A 
HETATM    3  C   UNL     1     -43.987  59.540 -51.554  1.00  0.00     0.002 A 
HETATM    4  C   UNL     1     -42.670  60.005 -51.503  1.00  0.00     0.043 A 
HETATM    5  N   UNL     1     -41.953  59.332 -52.470  1.00  0.00    -0.356 N 
HETATM    6  H   UNL     1     -40.970  59.475 -52.654  1.00  0.00     0.166 HD
HETATM    7  C   UNL     1     -42.783  58.488 -53.159  1.00  0.00     0.045 A 
HETATM    8  C   UNL     1     -44.039  58.562 -52.583  1.00  0.00    -0.019 A 
HETATM    9  C   UNL     1     -45.161  57.690 -53.049  1.00  0.00     0.061 C 
HETATM   10  C   UNL     1     -44.808  57.069 -54.417  1.00  0.00     0.133 C 
HETATM   11  N   UNL     1     -43.414  56.580 -54.451  1.00  0.00    -0.320 N 
HETATM   12  C   UNL     1     -43.206  55.238 -54.174  1.00  0.00     0.319 C 
HETATM   13  N   UNL     1     -41.894  54.834 -54.193  1.00  0.00    -0.338 N 
HETATM   14  O   UNL     1     -44.128  54.461 -53.943  1.00  0.00    -0.247 OA
HETATM   15  C   UNL     1     -42.373  57.628 -54.326  1.00  0.00     0.172 C 
HETATM   16  C   UNL     1     -42.251  60.975 -50.589  1.00  0.00     0.033 A 
HETATM   17  C   UNL     1     -43.212  61.494 -49.714  1.00  0.00     0.039 A 
HETATM   18  H   UNL     1     -41.317  55.327 -54.854  1.00  0.00     0.164 HD
ENDROOT
BRANCH  15  19
HETATM   19  C   UNL     1     -42.200  58.372 -55.656  1.00  0.00    -0.029 A 
HETATM   20  C   UNL     1     -42.109  59.774 -55.750  1.00  0.00     0.012 A 
HETATM   21  C   UNL     1     -41.955  60.404 -56.988  1.00  0.00     0.043 A 
HETATM   22  C   UNL     1     -41.897  59.640 -58.145  1.00  0.00     0.116 A 
HETATM   23  F   UNL     1     -41.754  60.246 -59.331  1.00  0.00    -0.206 F 
HETATM   24  C   UNL     1     -41.993  58.258 -58.089  1.00  0.00     0.043 A 
HETATM   25  C   UNL     1     -42.143  57.627 -56.852  1.00  0.00     0.012 A 
ENDBRANCH  15  19
BRANCH  13  26
HETATM   26  C   UNL     1     -41.471  53.469 -53.934  1.00  0.00     0.086 C 
HETATM   27  C   UNL     1     -40.235  53.009 -54.713  1.00  0.00     0.025 C 
HETATM   28  C   UNL     1     -39.686  51.880 -53.855  1.00  0.00     0.002 C 
HETATM   29  C   UNL     1     -39.860  52.403 -52.438  1.00  0.00     0.002 C 
HETATM   30  C   UNL     1     -41.188  53.157 -52.457  1.00  0.00     0.025 C 
ENDBRANCH  13  26
BRANCH   1  31
HETATM   31  O   UNL     1     -45.355  61.679 -48.832  1.00  0.00    -0.356 OA
HETATM   32  C   UNL     1     -45.495  61.043 -47.567  1.00  0.00     0.210 C 
ENDBRANCH   1  31
TORSDOF 3
ENDMDL
MODEL 3
REMARK VINA RESULT:      -7.7      3.237      7.157
REMARK  3 active torsions:
REMARK  status: ('A' for Active; 'I' for Inactive)
REMARK    1  A    between atoms: O_2  and  C_3 
REMARK       I    between atoms: N_13  and  C_14 
REMARK       I    between atoms: C_14  and  N_15 
REMARK    2  A    between atoms: N_15  and  C_16 
REMARK    3  A    between atoms: C_22  and  C_23 
ROOT
HETATM    1  C   UNL     1     -45.419  59.212 -59.789  1.00  0.00     0.069 A 
HETATM    2  C   UNL     1     -44.395  59.135 -58.837  1.00  0.00     0.051 A 
HETATM    3  C   UNL     1     -44.669  58.594 -57.562  1.00  0.00     0.002 A 
HETATM    4  C   UNL     1     -45.960  58.133 -57.288  1.00  0.00     0.043 A 
HETATM    5  N   UNL     1     -45.967  57.658 -55.994  1.00  0.00    -0.356 N 
HETATM    6  H   UNL     1     -46.777  57.265 -55.534  1.00  0.00     0.166 HD
HETATM    7  C   UNL     1     -44.734  57.840 -55.426  1.00  0.00     0.045 A 
HETATM    8  C   UNL     1     -43.897  58.376 -56.390  1.00  0.00    -0.019 A 
HETATM    9  C   UNL     1     -42.446  58.614 -56.115  1.00  0.00     0.061 C 
HETATM   10  C   UNL     1     -42.185  58.554 -54.594  1.00  0.00     0.133 C 
HETATM   11  N   UNL     1     -42.892  57.420 -53.964  1.00  0.00    -0.320 N 
HETATM   12  C   UNL     1     -42.176  56.247 -53.785  1.00  0.00     0.319 C 
HETATM   13  N   UNL     1     -42.879  55.214 -53.219  1.00  0.00    -0.338 N 
HETATM   14  O   UNL     1     -40.993  56.142 -54.098  1.00  0.00    -0.247 OA
HETATM   15  C   UNL     1     -44.372  57.496 -54.006  1.00  0.00     0.172 C 
HETATM   16  C   UNL     1     -46.990  58.182 -58.231  1.00  0.00     0.033 A 
HETATM   17  C   UNL     1     -46.692  58.730 -59.483  1.00  0.00     0.039 A 
HETATM   18  H   UNL     1     -43.582  55.502 -52.559  1.00  0.00     0.164 HD
ENDROOT
BRANCH  15  19
HETATM   19  C   UNL     1     -44.888  58.475 -52.945  1.00  0.00    -0.029 A 
HETATM   20  C   UNL     1     -45.347  59.771 -53.249  1.00  0.00     0.012 A 
HETATM   21  C   UNL     1     -45.805  60.627 -52.244  1.00  0.00     0.043 A 
HETATM   22  C   UNL     1     -45.801  60.201 -50.924  1.00  0.00     0.116 A 
HETATM   23  F   UNL     1     -46.234  61.025 -49.960  1.00  0.00    -0.206 F 
HETATM   24  C   UNL     1     -45.345  58.935 -50.587  1.00  0.00     0.043 A 
HETATM   25  C   UNL     1     -44.892  58.077 -51.592  1.00  0.00     0.012 A 
ENDBRANCH  15  19
BRANCH  13  26
HETATM   26  C   UNL     1     -42.306  53.908 -52.946  1.00  0.00     0.086 C 
HETATM   27  C   UNL     1     -41.505  53.291 -54.096  1.00  0.00     0.025 C 
HETATM   28  C   UNL     1     -40.573  52.320 -53.389  1.00  0.00     0.002 C 
HETATM   29  C   UNL     1     -40.146  53.090 -52.149  1.00  0.00     0.002 C 
HETATM   30  C   UNL     1     -41.393  53.856 -51.712  1.00  0.00     0.025 C 
ENDBRANCH  13  26
BRANCH   1  31
HETATM   31  O   UNL     1     -45.296  59.728 -61.051  1.00  0.00    -0.356 OA
HETATM   32  C   UNL     1     -44.032  60.282 -61.396  1.00  0.00     0.210 C 
ENDBRANCH   1  31
TORSDOF 3
ENDMDL
MODEL 4
REMARK VINA RESULT:      -7.5      3.506      5.837
REMARK  3 active torsions:
REMARK  status: ('A' for Active; 'I' for Inactive)
REMARK    1  A    between atoms: O_2  and  C_3 
REMARK       I    between atoms: N_13  and  C_14 
REMARK       I    between atoms: C_14  and  N_15 
REMARK    2  A    between atoms: N_15  and  C_16 
REMARK    3  A    between atoms: C_22  and  C_23 
ROOT
HETATM    1  C   UNL     1     -41.099  55.114 -49.804  1.00  0.00     0.069 A 
HETATM    2  C   UNL     1     -40.941  56.218 -50.650  1.00  0.00     0.051 A 
HETATM    3  C   UNL     1     -41.941  56.514 -51.602  1.00  0.00     0.002 A 
HETATM    4  C   UNL     1     -43.075  55.700 -51.664  1.00  0.00     0.043 A 
HETATM    5  N   UNL     1     -43.890  56.195 -52.661  1.00  0.00    -0.356 N 
HETATM    6  H   UNL     1     -44.780  55.795 -52.922  1.00  0.00     0.166 HD
HETATM    7  C   UNL     1     -43.289  57.270 -53.259  1.00  0.00     0.045 A 
HETATM    8  C   UNL     1     -42.101  57.519 -52.593  1.00  0.00    -0.019 A 
HETATM    9  C   UNL     1     -41.242  58.691 -52.947  1.00  0.00     0.061 C 
HETATM   10  C   UNL     1     -41.667  59.258 -54.318  1.00  0.00     0.133 C 
HETATM   11  N   UNL     1     -43.138  59.341 -54.440  1.00  0.00    -0.320 N 
HETATM   12  C   UNL     1     -43.731  60.557 -54.138  1.00  0.00     0.319 C 
HETATM   13  N   UNL     1     -45.099  60.582 -54.242  1.00  0.00    -0.338 N 
HETATM   14  O   UNL     1     -43.080  61.547 -53.814  1.00  0.00    -0.247 OA
HETATM   15  C   UNL     1     -43.849  58.041 -54.426  1.00  0.00     0.172 C 
HETATM   16  C   UNL     1     -43.262  54.606 -50.814  1.00  0.00     0.033 A 
HETATM   17  C   UNL     1     -42.252  54.332 -49.887  1.00  0.00     0.039 A 
HETATM   18  H   UNL     1     -45.472  59.983 -54.959  1.00  0.00     0.164 HD
ENDROOT
BRANCH  15  19
HETATM   19  C   UNL     1     -43.723  57.347 -55.787  1.00  0.00    -0.029 A 
HETATM   20  C   UNL     1     -42.969  56.174 -55.989  1.00  0.00     0.012 A 
HETATM   21  C   UNL     1     -42.884  55.582 -57.252  1.00  0.00     0.043 A 
HETATM   22  C   UNL     1     -43.542  56.160 -58.328  1.00  0.00     0.116 A 
HETATM   23  F   UNL     1     -43.455  55.594 -59.539  1.00  0.00    -0.206 F 
HETATM   24  C   UNL     1     -44.284  57.320 -58.166  1.00  0.00     0.043 A 
HETATM   25  C   UNL     1     -44.375  57.910 -56.903  1.00  0.00     0.012 A 
ENDBRANCH  15  19
BRANCH  13  26
HETATM   26  C   UNL     1     -45.903  61.761 -53.974  1.00  0.00     0.086 C 
HETATM   27  C   UNL     1     -46.872  62.160 -55.090  1.00  0.00     0.025 C 
HETATM   28  C   UNL     1     -47.938  62.959 -54.356  1.00  0.00     0.002 C 
HETATM   29  C   UNL     1     -48.136  62.172 -53.070  1.00  0.00     0.002 C 
HETATM   30  C   UNL     1     -46.740  61.684 -52.688  1.00  0.00     0.025 C 
ENDBRANCH  13  26
BRANCH   1  31
HETATM   31  O   UNL     1     -40.203  54.704 -48.853  1.00  0.00    -0.356 OA
HETATM   32  C   UNL     1     -40.593  53.605 -48.038  1.00  0.00     0.210 C 
ENDBRANCH   1  31
TORSDOF 3
ENDMDL
MODEL 5
REMARK VINA RESULT:      -7.3      3.946      8.090
REMARK  3 active torsions:
REMARK  status: ('A' for Active; 'I' for Inactive)
REMARK    1  A    between atoms: O_2  and  C_3 
REMARK       I    between atoms: N_13  and  C_14 
REMARK       I    between atoms: C_14  and  N_15 
REMARK    2  A    between atoms: N_15  and  C_16 
REMARK    3  A    between atoms: C_22  and  C_23 
ROOT
HETATM    1  C   UNL     1     -40.876  54.065 -50.970  1.00  0.00     0.069 A 
HETATM    2  C   UNL     1     -40.768  55.448 -51.164  1.00  0.00     0.051 A 
HETATM    3  C   UNL     1     -41.935  56.213 -51.381  1.00  0.00     0.002 A 
HETATM    4  C   UNL     1     -43.174  55.568 -51.381  1.00  0.00     0.043 A 
HETATM    5  N   UNL     1     -44.142  56.524 -51.609  1.00  0.00    -0.356 N 
HETATM    6  H   UNL     1     -45.133  56.332 -51.662  1.00  0.00     0.166 HD
HETATM    7  C   UNL     1     -43.552  57.745 -51.795  1.00  0.00     0.045 A 
HETATM    8  C   UNL     1     -42.188  57.592 -51.612  1.00  0.00    -0.019 A 
HETATM    9  C   UNL     1     -41.261  58.763 -51.659  1.00  0.00     0.061 C 
HETATM   10  C   UNL     1     -41.976  59.973 -52.298  1.00  0.00     0.133 C 
HETATM   11  N   UNL     1     -43.353  60.126 -51.782  1.00  0.00    -0.320 N 
HETATM   12  C   UNL     1     -43.541  61.007 -50.730  1.00  0.00     0.319 C 
HETATM   13  N   UNL     1     -44.830  61.099 -50.268  1.00  0.00    -0.338 N 
HETATM   14  O   UNL     1     -42.625  61.669 -50.251  1.00  0.00    -0.247 OA
HETATM   15  C   UNL     1     -44.281  59.021 -52.122  1.00  0.00     0.172 C 
HETATM   16  C   UNL     1     -43.305  54.193 -51.168  1.00  0.00     0.033 A 
HETATM   17  C   UNL     1     -42.132  53.458 -50.965  1.00  0.00     0.039 A 
HETATM   18  H   UNL     1     -45.535  60.972 -50.975  1.00  0.00     0.164 HD
ENDROOT
BRANCH  15  19
HETATM   19  C   UNL     1     -44.755  59.148 -53.575  1.00  0.00    -0.029 A 
HETATM   20  C   UNL     1     -44.771  58.068 -54.479  1.00  0.00     0.012 A 
HETATM   21  C   UNL     1     -45.210  58.237 -55.795  1.00  0.00     0.043 A 
HETATM   22  C   UNL     1     -45.628  59.488 -56.224  1.00  0.00     0.116 A 
HETATM   23  F   UNL     1     -46.043  59.649 -57.488  1.00  0.00    -0.206 F 
HETATM   24  C   UNL     1     -45.615  60.575 -55.364  1.00  0.00     0.043 A 
HETATM   25  C   UNL     1     -45.182  60.407 -54.047  1.00  0.00     0.012 A 
ENDBRANCH  15  19
BRANCH  13  26
HETATM   26  C   UNL     1     -45.232  61.968 -49.177  1.00  0.00     0.086 C 
HETATM   27  C   UNL     1     -46.659  62.517 -49.268  1.00  0.00     0.025 C 
HETATM   28  C   UNL     1     -47.001  62.838 -47.822  1.00  0.00     0.002 C 
HETATM   29  C   UNL     1     -46.408  61.666 -47.056  1.00  0.00     0.002 C 
HETATM   30  C   UNL     1     -45.103  61.342 -47.780  1.00  0.00     0.025 C 
ENDBRANCH  13  26
BRANCH   1  31
HETATM   31  O   UNL     1     -39.830  53.205 -50.769  1.00  0.00    -0.356 OA
HETATM   32  C   UNL     1     -39.848  51.991 -51.510  1.00  0.00     0.210 C 
ENDBRANCH   1  31
TORSDOF 3
ENDMDL
MODEL 6
REMARK VINA RESULT:      -7.3      4.063      6.209
REMARK  3 active torsions:
REMARK  status: ('A' for Active; 'I' for Inactive)
REMARK    1  A    between atoms: O_2  and  C_3 
REMARK       I    between atoms: N_13  and  C_14 
REMARK       I    between atoms: C_14  and  N_15 
REMARK    2  A    between atoms: N_15  and  C_16 
REMARK    3  A    between atoms: C_22  and  C_23 
ROOT
HETATM    1  C   UNL     1     -42.218  54.642 -53.267  1.00  0.00     0.069 A 
HETATM    2  C   UNL     1     -43.119  55.656 -53.615  1.00  0.00     0.051 A 
HETATM    3  C   UNL     1     -43.131  56.151 -54.938  1.00  0.00     0.002 A 
HETATM    4  C   UNL     1     -42.248  55.603 -55.871  1.00  0.00     0.043 A 
HETATM    5  N   UNL     1     -42.456  56.249 -57.072  1.00  0.00    -0.356 N 
HETATM    6  H   UNL     1     -41.948  56.050 -57.923  1.00  0.00     0.166 HD
HETATM    7  C   UNL     1     -43.413  57.216 -56.917  1.00  0.00     0.045 A 
HETATM    8  C   UNL     1     -43.882  57.148 -55.617  1.00  0.00    -0.019 A 
HETATM    9  C   UNL     1     -45.004  58.018 -55.148  1.00  0.00     0.061 C 
HETATM   10  C   UNL     1     -45.227  59.171 -56.149  1.00  0.00     0.133 C 
HETATM   11  N   UNL     1     -45.181  58.694 -57.547  1.00  0.00    -0.320 N 
HETATM   12  C   UNL     1     -46.390  58.391 -58.154  1.00  0.00     0.319 C 
HETATM   13  N   UNL     1     -46.298  57.930 -59.443  1.00  0.00    -0.338 N 
HETATM   14  O   UNL     1     -47.468  58.538 -57.585  1.00  0.00    -0.247 OA
HETATM   15  C   UNL     1     -43.869  58.166 -57.993  1.00  0.00     0.172 C 
HETATM   16  C   UNL     1     -41.356  54.576 -55.549  1.00  0.00     0.033 A 
HETATM   17  C   UNL     1     -41.360  54.110 -54.230  1.00  0.00     0.039 A 
HETATM   18  H   UNL     1     -45.532  58.317 -59.969  1.00  0.00     0.164 HD
ENDROOT
BRANCH  15  19
HETATM   19  C   UNL     1     -42.905  59.319 -58.299  1.00  0.00    -0.029 A 
HETATM   20  C   UNL     1     -42.134  59.963 -57.312  1.00  0.00     0.012 A 
HETATM   21  C   UNL     1     -41.271  61.011 -57.643  1.00  0.00     0.043 A 
HETATM   22  C   UNL     1     -41.176  61.433 -58.961  1.00  0.00     0.116 A 
HETATM   23  F   UNL     1     -40.353  62.442 -59.275  1.00  0.00    -0.206 F 
HETATM   24  C   UNL     1     -41.928  60.828 -59.956  1.00  0.00     0.043 A 
HETATM   25  C   UNL     1     -42.788  59.776 -59.627  1.00  0.00     0.012 A 
ENDBRANCH  15  19
BRANCH  13  26
HETATM   26  C   UNL     1     -47.449  57.564 -60.249  1.00  0.00     0.086 C 
HETATM   27  C   UNL     1     -47.906  58.624 -61.256  1.00  0.00     0.025 C 
HETATM   28  C   UNL     1     -48.646  57.809 -62.305  1.00  0.00     0.002 C 
HETATM   29  C   UNL     1     -47.780  56.568 -62.455  1.00  0.00     0.002 C 
HETATM   30  C   UNL     1     -47.284  56.260 -61.044  1.00  0.00     0.025 C 
ENDBRANCH  13  26
BRANCH   1  31
HETATM   31  O   UNL     1     -42.088  54.085 -52.022  1.00  0.00    -0.356 OA
HETATM   32  C   UNL     1     -43.194  54.227 -51.139  1.00  0.00     0.210 C 
ENDBRANCH   1  31
TORSDOF 3
ENDMDL
MODEL 7
REMARK VINA RESULT:      -7.2      3.532      6.162
REMARK  3 active torsions:
REMARK  status: ('A' for Active; 'I' for Inactive)
REMARK    1  A    between atoms: O_2  and  C_3 
REMARK       I    between atoms: N_13  and  C_14 
REMARK       I    between atoms: C_14  and  N_15 
REMARK    2  A    between atoms: N_15  and  C_16 
REMARK    3  A    between atoms: C_22  and  C_23 
ROOT
HETATM    1  C   UNL     1     -40.804  53.256 -50.641  1.00  0.00     0.069 A 
HETATM    2  C   UNL     1     -41.693  53.533 -51.686  1.00  0.00     0.051 A 
HETATM    3  C   UNL     1     -41.875  54.868 -52.110  1.00  0.00     0.002 A 
HETATM    4  C   UNL     1     -41.147  55.880 -51.480  1.00  0.00     0.043 A 
HETATM    5  N   UNL     1     -41.500  57.076 -52.071  1.00  0.00    -0.356 N 
HETATM    6  H   UNL     1     -41.124  57.976 -51.806  1.00  0.00     0.166 HD
HETATM    7  C   UNL     1     -42.457  56.857 -53.025  1.00  0.00     0.045 A 
HETATM    8  C   UNL     1     -42.675  55.492 -53.104  1.00  0.00    -0.019 A 
HETATM    9  C   UNL     1     -43.606  54.911 -54.120  1.00  0.00     0.061 C 
HETATM   10  C   UNL     1     -44.496  56.024 -54.712  1.00  0.00     0.133 C 
HETATM   11  N   UNL     1     -43.715  57.241 -55.019  1.00  0.00    -0.320 N 
HETATM   12  C   UNL     1     -43.258  57.389 -56.319  1.00  0.00     0.319 C 
HETATM   13  N   UNL     1     -42.518  58.521 -56.552  1.00  0.00    -0.338 N 
HETATM   14  O   UNL     1     -43.507  56.575 -57.203  1.00  0.00    -0.247 OA
HETATM   15  C   UNL     1     -43.128  57.928 -53.844  1.00  0.00     0.172 C 
HETATM   16  C   UNL     1     -40.240  55.623 -50.449  1.00  0.00     0.033 A 
HETATM   17  C   UNL     1     -40.086  54.293 -50.044  1.00  0.00     0.039 A 
HETATM   18  H   UNL     1     -42.791  59.317 -56.000  1.00  0.00     0.164 HD
ENDROOT
BRANCH  15  19
HETATM   19  C   UNL     1     -44.200  58.738 -53.107  1.00  0.00    -0.029 A 
HETATM   20  C   UNL     1     -44.662  58.413 -51.816  1.00  0.00     0.012 A 
HETATM   21  C   UNL     1     -45.644  59.183 -51.188  1.00  0.00     0.043 A 
HETATM   22  C   UNL     1     -46.182  60.281 -51.845  1.00  0.00     0.116 A 
HETATM   23  F   UNL     1     -47.128  61.014 -51.243  1.00  0.00    -0.206 F 
HETATM   24  C   UNL     1     -45.758  60.623 -53.120  1.00  0.00     0.043 A 
HETATM   25  C   UNL     1     -44.772  59.856 -53.747  1.00  0.00     0.012 A 
ENDBRANCH  15  19
BRANCH  13  26
HETATM   26  C   UNL     1     -41.955  58.860 -57.847  1.00  0.00     0.086 C 
HETATM   27  C   UNL     1     -42.914  58.725 -59.033  1.00  0.00     0.025 C 
HETATM   28  C   UNL     1     -42.318  59.665 -60.069  1.00  0.00     0.002 C 
HETATM   29  C   UNL     1     -41.885  60.864 -59.242  1.00  0.00     0.002 C 
HETATM   30  C   UNL     1     -41.359  60.273 -57.935  1.00  0.00     0.025 C 
ENDBRANCH  13  26
BRANCH   1  31
HETATM   31  O   UNL     1     -40.547  52.016 -50.120  1.00  0.00    -0.356 OA
HETATM   32  C   UNL     1     -39.860  51.098 -50.963  1.00  0.00     0.210 C 
ENDBRANCH   1  31
TORSDOF 3
ENDMDL
MODEL 8
REMARK VINA RESULT:      -7.1      3.535      7.445
REMARK  3 active torsions:
REMARK  status: ('A' for Active; 'I' for Inactive)
REMARK    1  A    between atoms: O_2  and  C_3 
REMARK       I    between atoms: N_13  and  C_14 
REMARK       I    between atoms: C_14  and  N_15 
REMARK    2  A    between atoms: N_15  and  C_16 
REMARK    3  A    between atoms: C_22  and  C_23 
ROOT
HETATM    1  C   UNL     1     -40.852  53.193 -53.539  1.00  0.00     0.069 A 
HETATM    2  C   UNL     1     -40.618  54.538 -53.228  1.00  0.00     0.051 A 
HETATM    3  C   UNL     1     -41.444  55.536 -53.790  1.00  0.00     0.002 A 
HETATM    4  C   UNL     1     -42.486  55.150 -54.636  1.00  0.00     0.043 A 
HETATM    5  N   UNL     1     -43.135  56.296 -55.047  1.00  0.00    -0.356 N 
HETATM    6  H   UNL     1     -43.932  56.309 -55.669  1.00  0.00     0.166 HD
HETATM    7  C   UNL     1     -42.511  57.395 -54.521  1.00  0.00     0.045 A 
HETATM    8  C   UNL     1     -41.488  56.953 -53.700  1.00  0.00    -0.019 A 
HETATM    9  C   UNL     1     -40.663  57.910 -52.901  1.00  0.00     0.061 C 
HETATM   10  C   UNL     1     -40.867  59.346 -53.429  1.00  0.00     0.133 C 
HETATM   11  N   UNL     1     -42.292  59.629 -53.701  1.00  0.00    -0.320 N 
HETATM   12  C   UNL     1     -43.014  60.262 -52.702  1.00  0.00     0.319 C 
HETATM   13  N   UNL     1     -44.338  60.483 -52.989  1.00  0.00    -0.338 N 
HETATM   14  O   UNL     1     -42.506  60.612 -51.641  1.00  0.00    -0.247 OA
HETATM   15  C   UNL     1     -42.899  58.826 -54.789  1.00  0.00     0.172 C 
HETATM   16  C   UNL     1     -42.749  53.812 -54.943  1.00  0.00     0.033 A 
HETATM   17  C   UNL     1     -41.911  52.846 -54.379  1.00  0.00     0.039 A 
HETATM   18  H   UNL     1     -44.529  60.656 -53.962  1.00  0.00     0.164 HD
ENDROOT
BRANCH  15  19
HETATM   19  C   UNL     1     -42.475  59.372 -56.158  1.00  0.00    -0.029 A 
HETATM   20  C   UNL     1     -42.137  58.545 -57.247  1.00  0.00     0.012 A 
HETATM   21  C   UNL     1     -41.753  59.093 -58.474  1.00  0.00     0.043 A 
HETATM   22  C   UNL     1     -41.695  60.470 -58.624  1.00  0.00     0.116 A 
HETATM   23  F   UNL     1     -41.321  60.994 -59.800  1.00  0.00    -0.206 F 
HETATM   24  C   UNL     1     -42.011  61.313 -57.569  1.00  0.00     0.043 A 
HETATM   25  C   UNL     1     -42.399  60.767 -56.343  1.00  0.00     0.012 A 
ENDBRANCH  15  19
BRANCH  13  26
HETATM   26  C   UNL     1     -45.259  61.135 -52.076  1.00  0.00     0.086 C 
HETATM   27  C   UNL     1     -45.285  62.664 -52.154  1.00  0.00     0.025 C 
HETATM   28  C   UNL     1     -46.659  63.017 -51.607  1.00  0.00     0.002 C 
HETATM   29  C   UNL     1     -47.558  61.952 -52.215  1.00  0.00     0.002 C 
HETATM   30  C   UNL     1     -46.719  60.675 -52.205  1.00  0.00     0.025 C 
ENDBRANCH  13  26
BRANCH   1  31
HETATM   31  O   UNL     1     -40.120  52.130 -53.081  1.00  0.00    -0.356 OA
HETATM   32  C   UNL     1     -39.851  51.089 -54.012  1.00  0.00     0.210 C 
ENDBRANCH   1  31
TORSDOF 3
ENDMDL
MODEL 9
REMARK VINA RESULT:      -7.0      4.383      6.256
REMARK  3 active torsions:
REMARK  status: ('A' for Active; 'I' for Inactive)
REMARK    1  A    between atoms: O_2  and  C_3 
REMARK       I    between atoms: N_13  and  C_14 
REMARK       I    between atoms: C_14  and  N_15 
REMARK    2  A    between atoms: N_15  and  C_16 
REMARK    3  A    between atoms: C_22  and  C_23 
ROOT
HETATM    1  C   UNL     1     -42.446  58.414 -52.810  1.00  0.00     0.069 A 
HETATM    2  C   UNL     1     -42.837  59.173 -53.919  1.00  0.00     0.051 A 
HETATM    3  C   UNL     1     -43.885  58.710 -54.745  1.00  0.00     0.002 A 
HETATM    4  C   UNL     1     -44.517  57.507 -54.422  1.00  0.00     0.043 A 
HETATM    5  N   UNL     1     -45.493  57.281 -55.369  1.00  0.00    -0.356 N 
HETATM    6  H   UNL     1     -46.105  56.476 -55.378  1.00  0.00     0.166 HD
HETATM    7  C   UNL     1     -45.471  58.281 -56.304  1.00  0.00     0.045 A 
HETATM    8  C   UNL     1     -44.516  59.205 -55.918  1.00  0.00    -0.019 A 
HETATM    9  C   UNL     1     -44.304  60.471 -56.684  1.00  0.00     0.061 C 
HETATM   10  C   UNL     1     -44.978  60.365 -58.069  1.00  0.00     0.133 C 
HETATM   11  N   UNL     1     -46.324  59.761 -57.974  1.00  0.00    -0.320 N 
HETATM   12  C   UNL     1     -47.403  60.628 -57.897  1.00  0.00     0.319 C 
HETATM   13  N   UNL     1     -48.630  60.024 -57.787  1.00  0.00    -0.338 N 
HETATM   14  O   UNL     1     -47.273  61.848 -57.938  1.00  0.00    -0.247 OA
HETATM   15  C   UNL     1     -46.353  58.350 -57.523  1.00  0.00     0.172 C 
HETATM   16  C   UNL     1     -44.156  56.745 -53.307  1.00  0.00     0.033 A 
HETATM   17  C   UNL     1     -43.110  57.223 -52.512  1.00  0.00     0.039 A 
HETATM   18  H   UNL     1     -48.703  59.140 -58.263  1.00  0.00     0.164 HD
ENDROOT
BRANCH  15  19
HETATM   19  C   UNL     1     -45.956  57.413 -58.671  1.00  0.00    -0.029 A 
HETATM   20  C   UNL     1     -44.641  56.949 -58.868  1.00  0.00     0.012 A 
HETATM   21  C   UNL     1     -44.330  56.098 -59.932  1.00  0.00     0.043 A 
HETATM   22  C   UNL     1     -45.327  55.708 -60.814  1.00  0.00     0.116 A 
HETATM   23  F   UNL     1     -45.026  54.897 -61.837  1.00  0.00    -0.206 F 
HETATM   24  C   UNL     1     -46.631  56.154 -60.655  1.00  0.00     0.043 A 
HETATM   25  C   UNL     1     -46.944  57.001 -59.589  1.00  0.00     0.012 A 
ENDBRANCH  15  19
BRANCH  13  26
HETATM   26  C   UNL     1     -49.880  60.757 -57.698  1.00  0.00     0.086 C 
HETATM   27  C   UNL     1     -50.618  60.955 -59.025  1.00  0.00     0.025 C 
HETATM   28  C   UNL     1     -52.060  61.165 -58.593  1.00  0.00     0.002 C 
HETATM   29  C   UNL     1     -52.237  60.153 -57.472  1.00  0.00     0.002 C 
HETATM   30  C   UNL     1     -50.905  60.157 -56.724  1.00  0.00     0.025 C 
ENDBRANCH  13  26
BRANCH   1  31
HETATM   31  O   UNL     1     -41.438  58.734 -51.940  1.00  0.00    -0.356 OA
HETATM   32  C   UNL     1     -41.274  57.886 -50.810  1.00  0.00     0.210 C 
ENDBRANCH   1  31
TORSDOF 3
ENDMDL
MODEL 10
REMARK VINA RESULT:      -6.9      3.780      8.066
REMARK  3 active torsions:
REMARK  status: ('A' for Active; 'I' for Inactive)
REMARK    1  A    between atoms: O_2  and  C_3 
REMARK       I    between atoms: N_13  and  C_14 
REMARK       I    between atoms: C_14  and  N_15 
REMARK    2  A    between atoms: N_15  and  C_16 
REMARK    3  A    between atoms: C_22  and  C_23 
ROOT
HETATM    1  C   UNL     1     -41.145  53.355 -54.217  1.00  0.00     0.069 A 
HETATM    2  C   UNL     1     -40.678  54.580 -53.727  1.00  0.00     0.051 A 
HETATM    3  C   UNL     1     -41.506  55.721 -53.802  1.00  0.00     0.002 A 
HETATM    4  C   UNL     1     -42.783  55.592 -54.354  1.00  0.00     0.043 A 
HETATM    5  N   UNL     1     -43.384  56.833 -54.311  1.00  0.00    -0.356 N 
HETATM    6  H   UNL     1     -44.316  57.028 -54.648  1.00  0.00     0.166 HD
HETATM    7  C   UNL     1     -42.512  57.751 -53.788  1.00  0.00     0.045 A 
HETATM    8  C   UNL     1     -41.358  57.082 -53.421  1.00  0.00    -0.019 A 
HETATM    9  C   UNL     1     -40.235  57.788 -52.732  1.00  0.00     0.061 C 
HETATM   10  C   UNL     1     -40.410  59.315 -52.875  1.00  0.00     0.133 C 
HETATM   11  N   UNL     1     -41.811  59.726 -52.643  1.00  0.00    -0.320 N 
HETATM   12  C   UNL     1     -42.143  60.153 -51.366  1.00  0.00     0.319 C 
HETATM   13  N   UNL     1     -43.458  60.502 -51.191  1.00  0.00    -0.338 N 
HETATM   14  O   UNL     1     -41.318  60.228 -50.460  1.00  0.00    -0.247 OA
HETATM   15  C   UNL     1     -42.790  59.223 -53.635  1.00  0.00     0.172 C 
HETATM   16  C   UNL     1     -43.277  54.374 -54.830  1.00  0.00     0.033 A 
HETATM   17  C   UNL     1     -42.432  53.262 -54.750  1.00  0.00     0.039 A 
HETATM   18  H   UNL     1     -43.895  60.901 -52.005  1.00  0.00     0.164 HD
ENDROOT
BRANCH  15  19
HETATM   19  C   UNL     1     -42.710  60.042 -54.929  1.00  0.00    -0.029 A 
HETATM   20  C   UNL     1     -42.110  59.562 -56.109  1.00  0.00     0.012 A 
HETATM   21  C   UNL     1     -42.060  60.349 -57.263  1.00  0.00     0.043 A 
HETATM   22  C   UNL     1     -42.600  61.627 -57.246  1.00  0.00     0.116 A 
HETATM   23  F   UNL     1     -42.546  62.382 -58.352  1.00  0.00    -0.206 F 
HETATM   24  C   UNL     1     -43.189  62.134 -56.098  1.00  0.00     0.043 A 
HETATM   25  C   UNL     1     -43.244  61.346 -54.946  1.00  0.00     0.012 A 
ENDBRANCH  15  19
BRANCH  13  26
HETATM   26  C   UNL     1     -44.001  60.978 -49.930  1.00  0.00     0.086 C 
HETATM   27  C   UNL     1     -43.861  62.483 -49.685  1.00  0.00     0.025 C 
HETATM   28  C   UNL     1     -44.974  62.777 -48.692  1.00  0.00     0.002 C 
HETATM   29  C   UNL     1     -46.130  61.933 -49.205  1.00  0.00     0.002 C 
HETATM   30  C   UNL     1     -45.483  60.643 -49.706  1.00  0.00     0.025 C 
ENDBRANCH  13  26
BRANCH   1  31
HETATM   31  O   UNL     1     -40.443  52.179 -54.224  1.00  0.00    -0.356 OA
HETATM   32  C   UNL     1     -39.788  51.818 -53.013  1.00  0.00     0.210 C 
ENDBRANCH   1  31
TORSDOF 3
ENDMDL
