MODEL 1
REMARK VINA RESULT:      -7.8      0.000      0.000
REMARK  6 active torsions:
REMARK  status: ('A' for Active; 'I' for Inactive)
REMARK    1  A    between atoms: C_3  and  N_4 
REMARK       I    between atoms: N_4  and  C_5 
REMARK       I    between atoms: C_5  and  N_6 
REMARK    2  A    between atoms: N_6  and  C_7 
REMARK    3  A    between atoms: C_7  and  C_8 
REMARK    4  A    between atoms: C_8  and  N_9 
REMARK    5  A    between atoms: C_8  and  C_13 
REMARK    6  A    between atoms: C_20  and  C_21 
ROOT
HETATM    1  N   UNL     1     -41.459  55.570 -55.589  1.00  0.00    -0.309 N 
HETATM    2  C   UNL     1     -42.493  55.200 -56.409  1.00  0.00     0.320 C 
HETATM    3  N   UNL     1     -42.486  55.896 -57.593  1.00  0.00    -0.340 N 
HETATM    4  O   UNL     1     -43.360  54.362 -56.188  1.00  0.00    -0.247 OA
HETATM    5  H   UNL     1     -41.180  56.538 -55.690  1.00  0.00     0.170 HD
HETATM    6  H   UNL     1     -41.781  56.616 -57.695  1.00  0.00     0.164 HD
ENDROOT
BRANCH   1   7
HETATM    7  C   UNL     1     -41.161  55.012 -54.322  1.00  0.00     0.043 A 
HETATM    8  C   UNL     1     -41.253  55.683 -53.091  1.00  0.00    -0.035 A 
HETATM    9  C   UNL     1     -41.777  57.080 -52.920  1.00  0.00     0.050 C 
HETATM   10  C   UNL     1     -40.871  54.999 -51.921  1.00  0.00     0.010 A 
HETATM   11  C   UNL     1     -40.462  53.663 -51.957  1.00  0.00     0.016 A 
HETATM   12  C   UNL     1     -40.430  52.968 -53.167  1.00  0.00     0.019 A 
HETATM   13  C   UNL     1     -40.791  53.654 -54.336  1.00  0.00     0.046 A 
BRANCH  12  14
HETATM   14  C   UNL     1     -40.027  51.568 -53.255  1.00  0.00     0.179 A 
HETATM   15  O   UNL     1     -40.053  50.987 -54.496  1.00  0.00    -0.302 OA
HETATM   16  C   UNL     1     -39.634  49.709 -54.275  1.00  0.00     0.163 A 
HETATM   17  C   UNL     1     -39.379  49.573 -52.934  1.00  0.00     0.144 A 
HETATM   18  N   UNL     1     -39.630  50.759 -52.289  1.00  0.00    -0.234 NA
ENDBRANCH  12  14
ENDBRANCH   1   7
BRANCH   3  19
HETATM   19  C   UNL     1     -43.627  55.947 -58.509  1.00  0.00     0.164 C 
BRANCH  19  20
HETATM   20  C   UNL     1     -43.374  56.613 -59.902  1.00  0.00     0.261 C 
BRANCH  20  21
HETATM   21  N   UNL     1     -44.608  56.556 -60.802  1.00  0.00    -0.067 N 
HETATM   22  H   UNL     1     -44.290  56.964 -61.706  1.00  0.00     0.280 HD
HETATM   23  C   UNL     1     -45.091  55.184 -61.162  1.00  0.00     0.270 C 
HETATM   24  C   UNL     1     -45.721  57.433 -60.330  1.00  0.00     0.270 C 
ENDBRANCH  20  21
BRANCH  20  25
HETATM   25  C   UNL     1     -42.832  57.999 -59.736  1.00  0.00     0.085 A 
HETATM   26  O   UNL     1     -42.970  58.566 -58.500  1.00  0.00    -0.325 OA
HETATM   27  C   UNL     1     -42.412  59.801 -58.562  1.00  0.00     0.142 A 
HETATM   28  C   UNL     1     -41.924  60.044 -59.824  1.00  0.00     0.027 A 
HETATM   29  C   UNL     1     -42.194  58.880 -60.586  1.00  0.00     0.037 A 
ENDBRANCH  20  25
ENDBRANCH  19  20
ENDBRANCH   3  19
TORSDOF 6
ENDMDL
MODEL 2
REMARK VINA RESULT:      -7.7      1.329      2.587
REMARK  6 active torsions:
REMARK  status: ('A' for Active; 'I' for Inactive)
REMARK    1  A    between atoms: C_3  and  N_4 
REMARK       I    between atoms: N_4  and  C_5 
REMARK       I    between atoms: C_5  and  N_6 
REMARK    2  A    between atoms: N_6  and  C_7 
REMARK    3  A    between atoms: C_7  and  C_8 
REMARK    4  A    between atoms: C_8  and  N_9 
REMARK    5  A    between atoms: C_8  and  C_13 
REMARK    6  A    between atoms: C_20  and  C_21 
ROOT
HETATM    1  N   UNL     1     -41.432  56.041 -54.579  1.00  0.00    -0.309 N 
HETATM    2  C   UNL     1     -42.650  56.177 -55.192  1.00  0.00     0.320 C 
HETATM    3  N   UNL     1     -42.586  57.003 -56.288  1.00  0.00    -0.340 N 
HETATM    4  O   UNL     1     -43.713  55.661 -54.867  1.00  0.00    -0.247 OA
HETATM    5  H   UNL     1     -40.841  56.860 -54.654  1.00  0.00     0.170 HD
HETATM    6  H   UNL     1     -41.696  57.446 -56.474  1.00  0.00     0.164 HD
ENDROOT
BRANCH   1   7
HETATM    7  C   UNL     1     -41.152  55.227 -53.456  1.00  0.00     0.043 A 
HETATM    8  C   UNL     1     -41.240  55.628 -52.112  1.00  0.00    -0.035 A 
HETATM    9  C   UNL     1     -41.742  56.969 -51.655  1.00  0.00     0.050 C 
HETATM   10  C   UNL     1     -40.877  54.709 -51.109  1.00  0.00     0.010 A 
HETATM   11  C   UNL     1     -40.491  53.403 -51.422  1.00  0.00     0.016 A 
HETATM   12  C   UNL     1     -40.463  52.975 -52.750  1.00  0.00     0.019 A 
HETATM   13  C   UNL     1     -40.804  53.895 -53.751  1.00  0.00     0.046 A 
BRANCH  12  14
HETATM   14  C   UNL     1     -40.083  51.616 -53.126  1.00  0.00     0.179 A 
HETATM   15  O   UNL     1     -40.252  51.261 -54.439  1.00  0.00    -0.302 OA
HETATM   16  C   UNL     1     -39.821  49.970 -54.493  1.00  0.00     0.163 A 
HETATM   17  C   UNL     1     -39.418  49.605 -53.235  1.00  0.00     0.144 A 
HETATM   18  N   UNL     1     -39.586  50.656 -52.368  1.00  0.00    -0.234 NA
ENDBRANCH  12  14
ENDBRANCH   1   7
BRANCH   3  19
HETATM   19  C   UNL     1     -43.766  57.580 -56.937  1.00  0.00     0.164 C 
BRANCH  19  20
HETATM   20  C   UNL     1     -43.668  57.814 -58.480  1.00  0.00     0.261 C 
BRANCH  20  21
HETATM   21  N   UNL     1     -42.266  58.242 -58.912  1.00  0.00    -0.067 N 
HETATM   22  H   UNL     1     -41.626  57.666 -58.325  1.00  0.00     0.280 HD
HETATM   23  C   UNL     1     -41.884  57.903 -60.321  1.00  0.00     0.270 C 
HETATM   24  C   UNL     1     -41.955  59.664 -58.576  1.00  0.00     0.270 C 
ENDBRANCH  20  21
BRANCH  20  25
HETATM   25  C   UNL     1     -44.175  56.621 -59.229  1.00  0.00     0.085 A 
HETATM   26  O   UNL     1     -43.736  55.399 -58.803  1.00  0.00    -0.325 OA
HETATM   27  C   UNL     1     -44.314  54.466 -59.601  1.00  0.00     0.142 A 
HETATM   28  C   UNL     1     -45.112  55.069 -60.544  1.00  0.00     0.027 A 
HETATM   29  C   UNL     1     -45.024  56.463 -60.306  1.00  0.00     0.037 A 
ENDBRANCH  20  25
ENDBRANCH  19  20
ENDBRANCH   3  19
TORSDOF 6
ENDMDL
MODEL 3
REMARK VINA RESULT:      -7.4      1.735      2.209
REMARK  6 active torsions:
REMARK  status: ('A' for Active; 'I' for Inactive)
REMARK    1  A    between atoms: C_3  and  N_4 
REMARK       I    between atoms: N_4  and  C_5 
REMARK       I    between atoms: C_5  and  N_6 
REMARK    2  A    between atoms: N_6  and  C_7 
REMARK    3  A    between atoms: C_7  and  C_8 
REMARK    4  A    between atoms: C_8  and  N_9 
REMARK    5  A    between atoms: C_8  and  C_13 
REMARK    6  A    between atoms: C_20  and  C_21 
ROOT
HETATM    1  N   UNL     1     -42.339  56.335 -55.681  1.00  0.00    -0.309 N 
HETATM    2  C   UNL     1     -42.773  55.750 -56.841  1.00  0.00     0.320 C 
HETATM    3  N   UNL     1     -42.495  56.521 -57.943  1.00  0.00    -0.340 N 
HETATM    4  O   UNL     1     -43.346  54.673 -56.967  1.00  0.00    -0.247 OA
HETATM    5  H   UNL     1     -42.359  57.347 -55.699  1.00  0.00     0.170 HD
HETATM    6  H   UNL     1     -42.074  57.425 -57.772  1.00  0.00     0.164 HD
ENDROOT
BRANCH   1   7
HETATM    7  C   UNL     1     -42.431  55.779 -54.382  1.00  0.00     0.043 A 
HETATM    8  C   UNL     1     -43.308  56.205 -53.370  1.00  0.00    -0.035 A 
HETATM    9  C   UNL     1     -44.358  57.266 -53.543  1.00  0.00     0.050 C 
HETATM   10  C   UNL     1     -43.240  55.577 -52.112  1.00  0.00     0.010 A 
HETATM   11  C   UNL     1     -42.367  54.512 -51.873  1.00  0.00     0.016 A 
HETATM   12  C   UNL     1     -41.540  54.038 -52.892  1.00  0.00     0.019 A 
HETATM   13  C   UNL     1     -41.591  54.676 -54.140  1.00  0.00     0.046 A 
BRANCH  12  14
HETATM   14  C   UNL     1     -40.623  52.918 -52.699  1.00  0.00     0.179 A 
HETATM   15  O   UNL     1     -40.191  52.262 -53.822  1.00  0.00    -0.302 OA
HETATM   16  C   UNL     1     -39.366  51.290 -53.344  1.00  0.00     0.163 A 
HETATM   17  C   UNL     1     -39.334  51.396 -51.977  1.00  0.00     0.144 A 
HETATM   18  N   UNL     1     -40.135  52.433 -51.571  1.00  0.00    -0.234 NA
ENDBRANCH  12  14
ENDBRANCH   1   7
BRANCH   3  19
HETATM   19  C   UNL     1     -43.112  56.311 -59.254  1.00  0.00     0.164 C 
BRANCH  19  20
HETATM   20  C   UNL     1     -44.538  56.920 -59.460  1.00  0.00     0.261 C 
BRANCH  20  21
HETATM   21  N   UNL     1     -45.615  55.842 -59.579  1.00  0.00    -0.067 N 
HETATM   22  H   UNL     1     -45.962  55.713 -58.605  1.00  0.00     0.280 HD
HETATM   23  C   UNL     1     -46.835  56.221 -60.362  1.00  0.00     0.270 C 
HETATM   24  C   UNL     1     -45.074  54.514 -59.997  1.00  0.00     0.270 C 
ENDBRANCH  20  21
BRANCH  20  25
HETATM   25  C   UNL     1     -44.838  57.936 -58.401  1.00  0.00     0.085 A 
HETATM   26  O   UNL     1     -44.021  59.029 -58.353  1.00  0.00    -0.325 OA
HETATM   27  C   UNL     1     -44.466  59.817 -57.341  1.00  0.00     0.142 A 
HETATM   28  C   UNL     1     -45.554  59.242 -56.729  1.00  0.00     0.027 A 
HETATM   29  C   UNL     1     -45.797  58.024 -57.412  1.00  0.00     0.037 A 
ENDBRANCH  20  25
ENDBRANCH  19  20
ENDBRANCH   3  19
TORSDOF 6
ENDMDL
MODEL 4
REMARK VINA RESULT:      -7.3      2.045      2.386
REMARK  6 active torsions:
REMARK  status: ('A' for Active; 'I' for Inactive)
REMARK    1  A    between atoms: C_3  and  N_4 
REMARK       I    between atoms: N_4  and  C_5 
REMARK       I    between atoms: C_5  and  N_6 
REMARK    2  A    between atoms: N_6  and  C_7 
REMARK    3  A    between atoms: C_7  and  C_8 
REMARK    4  A    between atoms: C_8  and  N_9 
REMARK    5  A    between atoms: C_8  and  C_13 
REMARK    6  A    between atoms: C_20  and  C_21 
ROOT
HETATM    1  N   UNL     1     -44.126  55.947 -53.969  1.00  0.00    -0.309 N 
HETATM    2  C   UNL     1     -43.773  56.904 -54.884  1.00  0.00     0.320 C 
HETATM    3  N   UNL     1     -44.747  57.093 -55.834  1.00  0.00    -0.340 N 
HETATM    4  O   UNL     1     -42.737  57.557 -54.922  1.00  0.00    -0.247 OA
HETATM    5  H   UNL     1     -44.716  55.217 -54.346  1.00  0.00     0.170 HD
HETATM    6  H   UNL     1     -45.555  56.484 -55.786  1.00  0.00     0.164 HD
ENDROOT
BRANCH   1   7
HETATM    7  C   UNL     1     -43.365  55.552 -52.842  1.00  0.00     0.043 A 
HETATM    8  C   UNL     1     -43.468  56.102 -51.554  1.00  0.00    -0.035 A 
HETATM    9  C   UNL     1     -44.477  57.138 -51.147  1.00  0.00     0.050 C 
HETATM   10  C   UNL     1     -42.600  55.630 -50.549  1.00  0.00     0.010 A 
HETATM   11  C   UNL     1     -41.691  54.598 -50.796  1.00  0.00     0.016 A 
HETATM   12  C   UNL     1     -41.627  54.001 -52.056  1.00  0.00     0.019 A 
HETATM   13  C   UNL     1     -42.476  54.484 -53.063  1.00  0.00     0.046 A 
BRANCH  12  14
HETATM   14  C   UNL     1     -40.707  52.909 -52.359  1.00  0.00     0.179 A 
HETATM   15  O   UNL     1     -40.113  52.279 -51.297  1.00  0.00    -0.302 OA
HETATM   16  C   UNL     1     -39.328  51.326 -51.871  1.00  0.00     0.163 A 
HETATM   17  C   UNL     1     -39.476  51.418 -53.232  1.00  0.00     0.144 A 
HETATM   18  N   UNL     1     -40.354  52.427 -53.537  1.00  0.00    -0.234 NA
ENDBRANCH  12  14
ENDBRANCH   1   7
BRANCH   3  19
HETATM   19  C   UNL     1     -44.521  57.801 -57.096  1.00  0.00     0.164 C 
BRANCH  19  20
HETATM   20  C   UNL     1     -43.880  56.972 -58.257  1.00  0.00     0.261 C 
BRANCH  20  21
HETATM   21  N   UNL     1     -44.899  56.071 -58.953  1.00  0.00    -0.067 N 
HETATM   22  H   UNL     1     -45.507  55.720 -58.183  1.00  0.00     0.280 HD
HETATM   23  C   UNL     1     -45.845  56.756 -59.892  1.00  0.00     0.270 C 
HETATM   24  C   UNL     1     -44.285  54.856 -59.570  1.00  0.00     0.270 C 
ENDBRANCH  20  21
BRANCH  20  25
HETATM   25  C   UNL     1     -43.145  57.870 -59.205  1.00  0.00     0.085 A 
HETATM   26  O   UNL     1     -43.426  59.204 -59.125  1.00  0.00    -0.325 OA
HETATM   27  C   UNL     1     -42.656  59.830 -60.051  1.00  0.00     0.142 A 
HETATM   28  C   UNL     1     -41.891  58.916 -60.735  1.00  0.00     0.027 A 
HETATM   29  C   UNL     1     -42.205  57.647 -60.190  1.00  0.00     0.037 A 
ENDBRANCH  20  25
ENDBRANCH  19  20
ENDBRANCH   3  19
TORSDOF 6
ENDMDL
MODEL 5
REMARK VINA RESULT:      -7.2      1.952      8.959
REMARK  6 active torsions:
REMARK  status: ('A' for Active; 'I' for Inactive)
REMARK    1  A    between atoms: C_3  and  N_4 
REMARK       I    between atoms: N_4  and  C_5 
REMARK       I    between atoms: C_5  and  N_6 
REMARK    2  A    between atoms: N_6  and  C_7 
REMARK    3  A    between atoms: C_7  and  C_8 
REMARK    4  A    between atoms: C_8  and  N_9 
REMARK    5  A    between atoms: C_8  and  C_13 
REMARK    6  A    between atoms: C_20  and  C_21 
ROOT
HETATM    1  N   UNL     1     -42.251  55.650 -57.376  1.00  0.00    -0.309 N 
HETATM    2  C   UNL     1     -42.680  55.667 -56.075  1.00  0.00     0.320 C 
HETATM    3  N   UNL     1     -42.026  54.737 -55.305  1.00  0.00    -0.340 N 
HETATM    4  O   UNL     1     -43.536  56.390 -55.579  1.00  0.00    -0.247 OA
HETATM    5  H   UNL     1     -41.952  54.739 -57.699  1.00  0.00     0.170 HD
HETATM    6  H   UNL     1     -41.372  54.129 -55.781  1.00  0.00     0.164 HD
ENDROOT
BRANCH   1   7
HETATM    7  C   UNL     1     -42.690  56.513 -58.409  1.00  0.00     0.043 A 
HETATM    8  C   UNL     1     -43.602  56.176 -59.423  1.00  0.00    -0.035 A 
HETATM    9  C   UNL     1     -44.330  54.864 -59.513  1.00  0.00     0.050 C 
HETATM   10  C   UNL     1     -43.899  57.136 -60.409  1.00  0.00     0.010 A 
HETATM   11  C   UNL     1     -43.353  58.422 -60.364  1.00  0.00     0.016 A 
HETATM   12  C   UNL     1     -42.497  58.787 -59.324  1.00  0.00     0.019 A 
HETATM   13  C   UNL     1     -42.184  57.825 -58.352  1.00  0.00     0.046 A 
BRANCH  12  14
HETATM   14  C   UNL     1     -41.914  60.122 -59.222  1.00  0.00     0.179 A 
HETATM   15  O   UNL     1     -41.270  60.435 -58.054  1.00  0.00    -0.302 OA
HETATM   16  C   UNL     1     -40.837  61.713 -58.244  1.00  0.00     0.163 A 
HETATM   17  C   UNL     1     -41.231  62.112 -59.496  1.00  0.00     0.144 A 
HETATM   18  N   UNL     1     -41.917  61.096 -60.114  1.00  0.00    -0.234 NA
ENDBRANCH  12  14
ENDBRANCH   1   7
BRANCH   3  19
HETATM   19  C   UNL     1     -42.490  54.311 -53.983  1.00  0.00     0.164 C 
BRANCH  19  20
HETATM   20  C   UNL     1     -41.386  54.069 -52.901  1.00  0.00     0.261 C 
BRANCH  20  21
HETATM   21  N   UNL     1     -41.927  54.219 -51.480  1.00  0.00    -0.067 N 
HETATM   22  H   UNL     1     -41.533  53.405 -50.963  1.00  0.00     0.280 HD
HETATM   23  C   UNL     1     -41.441  55.415 -50.718  1.00  0.00     0.270 C 
HETATM   24  C   UNL     1     -43.412  54.071 -51.396  1.00  0.00     0.270 C 
ENDBRANCH  20  21
BRANCH  20  25
HETATM   25  C   UNL     1     -40.698  52.759 -53.131  1.00  0.00     0.085 A 
HETATM   26  O   UNL     1     -40.967  52.125 -54.311  1.00  0.00    -0.325 OA
HETATM   27  C   UNL     1     -40.244  50.976 -54.323  1.00  0.00     0.142 A 
HETATM   28  C   UNL     1     -39.520  50.855 -53.161  1.00  0.00     0.027 A 
HETATM   29  C   UNL     1     -39.811  52.006 -52.387  1.00  0.00     0.037 A 
ENDBRANCH  20  25
ENDBRANCH  19  20
ENDBRANCH   3  19
TORSDOF 6
ENDMDL
MODEL 6
REMARK VINA RESULT:      -7.2      2.698      8.839
REMARK  6 active torsions:
REMARK  status: ('A' for Active; 'I' for Inactive)
REMARK    1  A    between atoms: C_3  and  N_4 
REMARK       I    between atoms: N_4  and  C_5 
REMARK       I    between atoms: C_5  and  N_6 
REMARK    2  A    between atoms: N_6  and  C_7 
REMARK    3  A    between atoms: C_7  and  C_8 
REMARK    4  A    between atoms: C_8  and  N_9 
REMARK    5  A    between atoms: C_8  and  C_13 
REMARK    6  A    between atoms: C_20  and  C_21 
ROOT
HETATM    1  N   UNL     1     -43.585  56.079 -56.546  1.00  0.00    -0.309 N 
HETATM    2  C   UNL     1     -42.811  55.266 -55.760  1.00  0.00     0.320 C 
HETATM    3  N   UNL     1     -43.467  54.877 -54.619  1.00  0.00    -0.340 N 
HETATM    4  O   UNL     1     -41.666  54.887 -55.977  1.00  0.00    -0.247 OA
HETATM    5  H   UNL     1     -44.235  56.656 -56.027  1.00  0.00     0.170 HD
HETATM    6  H   UNL     1     -44.388  55.268 -54.466  1.00  0.00     0.164 HD
ENDROOT
BRANCH   1   7
HETATM    7  C   UNL     1     -43.220  56.612 -57.807  1.00  0.00     0.043 A 
HETATM    8  C   UNL     1     -43.377  55.965 -59.044  1.00  0.00    -0.035 A 
HETATM    9  C   UNL     1     -44.049  54.634 -59.230  1.00  0.00     0.050 C 
HETATM   10  C   UNL     1     -42.916  56.612 -60.206  1.00  0.00     0.010 A 
HETATM   11  C   UNL     1     -42.365  57.896 -60.156  1.00  0.00     0.016 A 
HETATM   12  C   UNL     1     -42.265  58.573 -58.940  1.00  0.00     0.019 A 
HETATM   13  C   UNL     1     -42.705  57.921 -57.779  1.00  0.00     0.046 A 
BRANCH  12  14
HETATM   14  C   UNL     1     -41.713  59.921 -58.838  1.00  0.00     0.179 A 
HETATM   15  O   UNL     1     -41.696  60.678 -59.980  1.00  0.00    -0.302 OA
HETATM   16  C   UNL     1     -41.141  61.859 -59.589  1.00  0.00     0.163 A 
HETATM   17  C   UNL     1     -40.849  61.768 -58.252  1.00  0.00     0.144 A 
HETATM   18  N   UNL     1     -41.215  60.532 -57.778  1.00  0.00    -0.234 NA
ENDBRANCH  12  14
ENDBRANCH   1   7
BRANCH   3  19
HETATM   19  C   UNL     1     -42.795  54.285 -53.460  1.00  0.00     0.164 C 
BRANCH  19  20
HETATM   20  C   UNL     1     -42.615  55.208 -52.211  1.00  0.00     0.261 C 
BRANCH  20  21
HETATM   21  N   UNL     1     -43.932  55.438 -51.469  1.00  0.00    -0.067 N 
HETATM   22  H   UNL     1     -44.669  55.239 -52.178  1.00  0.00     0.280 HD
HETATM   23  C   UNL     1     -44.226  54.486 -50.350  1.00  0.00     0.270 C 
HETATM   24  C   UNL     1     -44.136  56.860 -51.060  1.00  0.00     0.270 C 
ENDBRANCH  20  21
BRANCH  20  25
HETATM   25  C   UNL     1     -41.525  54.692 -51.323  1.00  0.00     0.085 A 
HETATM   26  O   UNL     1     -41.147  53.393 -51.511  1.00  0.00    -0.325 OA
HETATM   27  C   UNL     1     -40.153  53.133 -50.624  1.00  0.00     0.142 A 
HETATM   28  C   UNL     1     -39.892  54.244 -49.859  1.00  0.00     0.027 A 
HETATM   29  C   UNL     1     -40.777  55.255 -50.308  1.00  0.00     0.037 A 
ENDBRANCH  20  25
ENDBRANCH  19  20
ENDBRANCH   3  19
TORSDOF 6
ENDMDL
MODEL 7
REMARK VINA RESULT:      -7.0      2.520      8.218
REMARK  6 active torsions:
REMARK  status: ('A' for Active; 'I' for Inactive)
REMARK    1  A    between atoms: C_3  and  N_4 
REMARK       I    between atoms: N_4  and  C_5 
REMARK       I    between atoms: C_5  and  N_6 
REMARK    2  A    between atoms: N_6  and  C_7 
REMARK    3  A    between atoms: C_7  and  C_8 
REMARK    4  A    between atoms: C_8  and  N_9 
REMARK    5  A    between atoms: C_8  and  C_13 
REMARK    6  A    between atoms: C_20  and  C_21 
ROOT
HETATM    1  N   UNL     1     -43.640  56.103 -56.520  1.00  0.00    -0.309 N 
HETATM    2  C   UNL     1     -42.877  55.315 -55.698  1.00  0.00     0.320 C 
HETATM    3  N   UNL     1     -43.558  54.941 -54.566  1.00  0.00    -0.340 N 
HETATM    4  O   UNL     1     -41.722  54.946 -55.878  1.00  0.00    -0.247 OA
HETATM    5  H   UNL     1     -44.309  56.682 -56.029  1.00  0.00     0.170 HD
HETATM    6  H   UNL     1     -44.487  55.324 -54.444  1.00  0.00     0.164 HD
ENDROOT
BRANCH   1   7
HETATM    7  C   UNL     1     -43.249  56.615 -57.781  1.00  0.00     0.043 A 
HETATM    8  C   UNL     1     -43.385  55.949 -59.011  1.00  0.00    -0.035 A 
HETATM    9  C   UNL     1     -44.058  54.618 -59.189  1.00  0.00     0.050 C 
HETATM   10  C   UNL     1     -42.899  56.577 -60.174  1.00  0.00     0.010 A 
HETATM   11  C   UNL     1     -42.344  57.859 -60.134  1.00  0.00     0.016 A 
HETATM   12  C   UNL     1     -42.265  58.555 -58.927  1.00  0.00     0.019 A 
HETATM   13  C   UNL     1     -42.729  57.922 -57.764  1.00  0.00     0.046 A 
BRANCH  12  14
HETATM   14  C   UNL     1     -41.710  59.902 -58.834  1.00  0.00     0.179 A 
HETATM   15  O   UNL     1     -41.694  60.652 -59.982  1.00  0.00    -0.302 OA
HETATM   16  C   UNL     1     -41.135  61.834 -59.600  1.00  0.00     0.163 A 
HETATM   17  C   UNL     1     -40.841  61.751 -58.263  1.00  0.00     0.144 A 
HETATM   18  N   UNL     1     -41.208  60.520 -57.780  1.00  0.00    -0.234 NA
ENDBRANCH  12  14
ENDBRANCH   1   7
BRANCH   3  19
HETATM   19  C   UNL     1     -42.908  54.380 -53.379  1.00  0.00     0.164 C 
BRANCH  19  20
HETATM   20  C   UNL     1     -42.546  55.389 -52.240  1.00  0.00     0.261 C 
BRANCH  20  21
HETATM   21  N   UNL     1     -41.454  54.849 -51.316  1.00  0.00    -0.067 N 
HETATM   22  H   UNL     1     -40.749  55.615 -51.270  1.00  0.00     0.280 HD
HETATM   23  C   UNL     1     -41.856  54.627 -49.890  1.00  0.00     0.270 C 
HETATM   24  C   UNL     1     -40.735  53.669 -51.883  1.00  0.00     0.270 C 
ENDBRANCH  20  21
BRANCH  20  25
HETATM   25  C   UNL     1     -42.220  56.735 -52.809  1.00  0.00     0.085 A 
HETATM   26  O   UNL     1     -43.274  57.571 -53.046  1.00  0.00    -0.325 OA
HETATM   27  C   UNL     1     -42.765  58.726 -53.545  1.00  0.00     0.142 A 
HETATM   28  C   UNL     1     -41.397  58.643 -53.644  1.00  0.00     0.027 A 
HETATM   29  C   UNL     1     -41.040  57.356 -53.169  1.00  0.00     0.037 A 
ENDBRANCH  20  25
ENDBRANCH  19  20
ENDBRANCH   3  19
TORSDOF 6
ENDMDL
MODEL 8
REMARK VINA RESULT:      -6.9      2.431      3.441
REMARK  6 active torsions:
REMARK  status: ('A' for Active; 'I' for Inactive)
REMARK    1  A    between atoms: C_3  and  N_4 
REMARK       I    between atoms: N_4  and  C_5 
REMARK       I    between atoms: C_5  and  N_6 
REMARK    2  A    between atoms: N_6  and  C_7 
REMARK    3  A    between atoms: C_7  and  C_8 
REMARK    4  A    between atoms: C_8  and  N_9 
REMARK    5  A    between atoms: C_8  and  C_13 
REMARK    6  A    between atoms: C_20  and  C_21 
ROOT
HETATM    1  N   UNL     1     -44.475  56.151 -54.262  1.00  0.00    -0.309 N 
HETATM    2  C   UNL     1     -44.509  57.419 -54.780  1.00  0.00     0.320 C 
HETATM    3  N   UNL     1     -45.475  57.554 -55.747  1.00  0.00    -0.340 N 
HETATM    4  O   UNL     1     -43.801  58.371 -54.475  1.00  0.00    -0.247 OA
HETATM    5  H   UNL     1     -44.739  55.430 -54.922  1.00  0.00     0.170 HD
HETATM    6  H   UNL     1     -45.990  56.719 -55.998  1.00  0.00     0.164 HD
ENDROOT
BRANCH   1   7
HETATM    7  C   UNL     1     -43.628  55.699 -53.221  1.00  0.00     0.043 A 
HETATM    8  C   UNL     1     -43.608  56.199 -51.909  1.00  0.00    -0.035 A 
HETATM    9  C   UNL     1     -44.557  57.236 -51.377  1.00  0.00     0.050 C 
HETATM   10  C   UNL     1     -42.667  55.674 -51.002  1.00  0.00     0.010 A 
HETATM   11  C   UNL     1     -41.803  54.637 -51.366  1.00  0.00     0.016 A 
HETATM   12  C   UNL     1     -41.860  54.089 -52.648  1.00  0.00     0.019 A 
HETATM   13  C   UNL     1     -42.783  54.625 -53.558  1.00  0.00     0.046 A 
BRANCH  12  14
HETATM   14  C   UNL     1     -40.991  52.994 -53.071  1.00  0.00     0.179 A 
HETATM   15  O   UNL     1     -40.145  52.469 -52.130  1.00  0.00    -0.302 OA
HETATM   16  C   UNL     1     -39.476  51.487 -52.795  1.00  0.00     0.163 A 
HETATM   17  C   UNL     1     -39.936  51.461 -54.087  1.00  0.00     0.144 A 
HETATM   18  N   UNL     1     -40.900  52.422 -54.258  1.00  0.00    -0.234 NA
ENDBRANCH  12  14
ENDBRANCH   1   7
BRANCH   3  19
HETATM   19  C   UNL     1     -45.530  58.677 -56.685  1.00  0.00     0.164 C 
BRANCH  19  20
HETATM   20  C   UNL     1     -44.459  58.687 -57.825  1.00  0.00     0.261 C 
BRANCH  20  21
HETATM   21  N   UNL     1     -43.173  59.399 -57.403  1.00  0.00    -0.067 N 
HETATM   22  H   UNL     1     -42.814  58.836 -56.603  1.00  0.00     0.280 HD
HETATM   23  C   UNL     1     -42.057  59.379 -58.402  1.00  0.00     0.270 C 
HETATM   24  C   UNL     1     -43.410  60.770 -56.860  1.00  0.00     0.270 C 
ENDBRANCH  20  21
BRANCH  20  25
HETATM   25  C   UNL     1     -44.220  57.301 -58.339  1.00  0.00     0.085 A 
HETATM   26  O   UNL     1     -43.358  56.522 -57.620  1.00  0.00    -0.325 OA
HETATM   27  C   UNL     1     -43.292  55.318 -58.245  1.00  0.00     0.142 A 
HETATM   28  C   UNL     1     -44.091  55.314 -59.362  1.00  0.00     0.027 A 
HETATM   29  C   UNL     1     -44.693  56.595 -59.427  1.00  0.00     0.037 A 
ENDBRANCH  20  25
ENDBRANCH  19  20
ENDBRANCH   3  19
TORSDOF 6
ENDMDL
MODEL 9
REMARK VINA RESULT:      -6.9      1.928      8.719
REMARK  6 active torsions:
REMARK  status: ('A' for Active; 'I' for Inactive)
REMARK    1  A    between atoms: C_3  and  N_4 
REMARK       I    between atoms: N_4  and  C_5 
REMARK       I    between atoms: C_5  and  N_6 
REMARK    2  A    between atoms: N_6  and  C_7 
REMARK    3  A    between atoms: C_7  and  C_8 
REMARK    4  A    between atoms: C_8  and  N_9 
REMARK    5  A    between atoms: C_8  and  C_13 
REMARK    6  A    between atoms: C_20  and  C_21 
ROOT
HETATM    1  N   UNL     1     -41.933  56.307 -55.816  1.00  0.00    -0.309 N 
HETATM    2  C   UNL     1     -42.406  55.534 -54.788  1.00  0.00     0.320 C 
HETATM    3  N   UNL     1     -41.404  54.828 -54.170  1.00  0.00    -0.340 N 
HETATM    4  O   UNL     1     -43.566  55.429 -54.404  1.00  0.00    -0.247 OA
HETATM    5  H   UNL     1     -41.125  55.916 -56.285  1.00  0.00     0.170 HD
HETATM    6  H   UNL     1     -40.476  54.910 -54.567  1.00  0.00     0.164 HD
ENDROOT
BRANCH   1   7
HETATM    7  C   UNL     1     -42.700  57.185 -56.620  1.00  0.00     0.043 A 
HETATM    8  C   UNL     1     -42.777  58.579 -56.463  1.00  0.00    -0.035 A 
HETATM    9  C   UNL     1     -41.977  59.370 -55.468  1.00  0.00     0.050 C 
HETATM   10  C   UNL     1     -43.628  59.306 -57.318  1.00  0.00     0.010 A 
HETATM   11  C   UNL     1     -44.343  58.679 -58.343  1.00  0.00     0.016 A 
HETATM   12  C   UNL     1     -44.221  57.304 -58.548  1.00  0.00     0.019 A 
HETATM   13  C   UNL     1     -43.390  56.575 -57.684  1.00  0.00     0.046 A 
BRANCH  12  14
HETATM   14  C   UNL     1     -44.933  56.606 -59.614  1.00  0.00     0.179 A 
HETATM   15  O   UNL     1     -44.243  55.639 -60.298  1.00  0.00    -0.302 OA
HETATM   16  C   UNL     1     -45.140  55.170 -61.208  1.00  0.00     0.163 A 
HETATM   17  C   UNL     1     -46.313  55.860 -61.042  1.00  0.00     0.144 A 
HETATM   18  N   UNL     1     -46.177  56.773 -60.026  1.00  0.00    -0.234 NA
ENDBRANCH  12  14
ENDBRANCH   1   7
BRANCH   3  19
HETATM   19  C   UNL     1     -41.645  53.699 -53.270  1.00  0.00     0.164 C 
BRANCH  19  20
HETATM   20  C   UNL     1     -40.417  53.186 -52.449  1.00  0.00     0.261 C 
BRANCH  20  21
HETATM   21  N   UNL     1     -40.620  53.350 -50.943  1.00  0.00    -0.067 N 
HETATM   22  H   UNL     1     -40.662  52.375 -50.578  1.00  0.00     0.280 HD
HETATM   23  C   UNL     1     -39.483  53.978 -50.194  1.00  0.00     0.270 C 
HETATM   24  C   UNL     1     -41.931  53.973 -50.590  1.00  0.00     0.270 C 
ENDBRANCH  20  21
BRANCH  20  25
HETATM   25  C   UNL     1     -40.063  51.786 -52.844  1.00  0.00     0.085 A 
HETATM   26  O   UNL     1     -39.774  50.918 -51.829  1.00  0.00    -0.325 OA
HETATM   27  C   UNL     1     -39.493  49.718 -52.397  1.00  0.00     0.142 A 
HETATM   28  C   UNL     1     -39.587  49.802 -53.765  1.00  0.00     0.027 A 
HETATM   29  C   UNL     1     -39.955  51.138 -54.059  1.00  0.00     0.037 A 
ENDBRANCH  20  25
ENDBRANCH  19  20
ENDBRANCH   3  19
TORSDOF 6
ENDMDL
MODEL 10
REMARK VINA RESULT:      -6.8      1.979      2.843
REMARK  6 active torsions:
REMARK  status: ('A' for Active; 'I' for Inactive)
REMARK    1  A    between atoms: C_3  and  N_4 
REMARK       I    between atoms: N_4  and  C_5 
REMARK       I    between atoms: C_5  and  N_6 
REMARK    2  A    between atoms: N_6  and  C_7 
REMARK    3  A    between atoms: C_7  and  C_8 
REMARK    4  A    between atoms: C_8  and  N_9 
REMARK    5  A    between atoms: C_8  and  C_13 
REMARK    6  A    between atoms: C_20  and  C_21 
ROOT
HETATM    1  N   UNL     1     -42.683  55.983 -53.927  1.00  0.00    -0.309 N 
HETATM    2  C   UNL     1     -42.289  57.152 -54.524  1.00  0.00     0.320 C 
HETATM    3  N   UNL     1     -43.265  57.668 -55.341  1.00  0.00    -0.340 N 
HETATM    4  O   UNL     1     -41.215  57.730 -54.399  1.00  0.00    -0.247 OA
HETATM    5  H   UNL     1     -43.323  55.432 -54.485  1.00  0.00     0.170 HD
HETATM    6  H   UNL     1     -44.107  57.117 -55.450  1.00  0.00     0.164 HD
ENDROOT
BRANCH   1   7
HETATM    7  C   UNL     1     -41.929  55.228 -52.996  1.00  0.00     0.043 A 
HETATM    8  C   UNL     1     -41.627  55.618 -51.681  1.00  0.00    -0.035 A 
HETATM    9  C   UNL     1     -42.143  56.866 -51.022  1.00  0.00     0.050 C 
HETATM   10  C   UNL     1     -40.821  54.771 -50.896  1.00  0.00     0.010 A 
HETATM   11  C   UNL     1     -40.371  53.539 -51.378  1.00  0.00     0.016 A 
HETATM   12  C   UNL     1     -40.720  53.114 -52.660  1.00  0.00     0.019 A 
HETATM   13  C   UNL     1     -41.506  53.965 -53.451  1.00  0.00     0.046 A 
BRANCH  12  14
HETATM   14  C   UNL     1     -40.288  51.829 -53.204  1.00  0.00     0.179 A 
HETATM   15  O   UNL     1     -39.775  50.917 -52.319  1.00  0.00    -0.302 OA
HETATM   16  C   UNL     1     -39.467  49.839 -53.093  1.00  0.00     0.163 A 
HETATM   17  C   UNL     1     -39.800  50.140 -54.389  1.00  0.00     0.144 A 
HETATM   18  N   UNL     1     -40.322  51.407 -54.455  1.00  0.00    -0.234 NA
ENDBRANCH  12  14
ENDBRANCH   1   7
BRANCH   3  19
HETATM   19  C   UNL     1     -43.017  58.711 -56.339  1.00  0.00     0.164 C 
BRANCH  19  20
HETATM   20  C   UNL     1     -43.306  58.333 -57.829  1.00  0.00     0.261 C 
BRANCH  20  21
HETATM   21  N   UNL     1     -42.491  57.124 -58.286  1.00  0.00    -0.067 N 
HETATM   22  H   UNL     1     -41.650  57.129 -57.671  1.00  0.00     0.280 HD
HETATM   23  C   UNL     1     -43.119  55.784 -58.046  1.00  0.00     0.270 C 
HETATM   24  C   UNL     1     -41.974  57.256 -59.681  1.00  0.00     0.270 C 
ENDBRANCH  20  21
BRANCH  20  25
HETATM   25  C   UNL     1     -44.777  58.170 -58.058  1.00  0.00     0.085 A 
HETATM   26  O   UNL     1     -45.570  58.147 -56.946  1.00  0.00    -0.325 OA
HETATM   27  C   UNL     1     -46.851  58.002 -57.372  1.00  0.00     0.142 A 
HETATM   28  C   UNL     1     -46.894  57.922 -58.744  1.00  0.00     0.027 A 
HETATM   29  C   UNL     1     -45.553  58.030 -59.191  1.00  0.00     0.037 A 
ENDBRANCH  20  25
ENDBRANCH  19  20
ENDBRANCH   3  19
TORSDOF 6
ENDMDL
