MODEL 1
REMARK VINA RESULT:      -8.5      0.000      0.000
REMARK  3 active torsions:
REMARK  status: ('A' for Active; 'I' for Inactive)
REMARK    1  A    between atoms: C_4  and  C_5 
REMARK    2  A    between atoms: C_14  and  C_15 
REMARK       I    between atoms: C_15  and  N_16 
REMARK    3  A    between atoms: N_16  and  C_17 
ROOT
HETATM    1  C   UNL     1     -40.909  56.973 -53.377  1.00  0.00     0.222 C 
HETATM    2  N   UNL     1     -41.491  58.293 -53.601  1.00  0.00    -0.090 N 
HETATM    3  C   UNL     1     -42.389  58.588 -54.586  1.00  0.00     0.735 A 
HETATM    4  N   UNL     1     -42.669  59.866 -54.516  1.00  0.00     0.030 NA
HETATM    5  N   UNL     1     -41.889  60.365 -53.488  1.00  0.00     0.033 NA
HETATM    6  N   UNL     1     -41.140  59.411 -52.943  1.00  0.00     0.012 NA
HETATM    7  N   UNL     1     -42.768  57.620 -55.446  1.00  0.00    -0.191 N 
HETATM    8  C   UNL     1     -42.162  56.366 -55.483  1.00  0.00     0.037 C 
HETATM    9  C   UNL     1     -42.488  55.527 -56.693  1.00  0.00     0.070 C 
HETATM   10  C   UNL     1     -41.285  56.016 -54.507  1.00  0.00     0.064 C 
HETATM   11  H   UNL     1     -43.359  57.880 -56.232  1.00  0.00     0.184 HD
ENDROOT
BRANCH  10  12
HETATM   12  C   UNL     1     -40.503  54.749 -54.484  1.00  0.00     0.256 C 
HETATM   13  N   UNL     1     -40.946  53.831 -53.560  1.00  0.00    -0.323 N 
HETATM   14  H   UNL     1     -41.704  54.115 -52.952  1.00  0.00     0.169 HD
HETATM   15  O   UNL     1     -39.540  54.649 -55.235  1.00  0.00    -0.267 OA
BRANCH  13  16
HETATM   16  C   UNL     1     -40.498  52.502 -53.399  1.00  0.00     0.035 A 
HETATM   17  C   UNL     1     -40.603  51.517 -54.382  1.00  0.00     0.029 A 
HETATM   18  C   UNL     1     -40.168  50.211 -54.130  1.00  0.00     0.002 A 
HETATM   19  C   UNL     1     -39.629  49.878 -52.891  1.00  0.00     0.000 A 
HETATM   20  C   UNL     1     -39.516  50.852 -51.903  1.00  0.00     0.002 A 
HETATM   21  C   UNL     1     -39.943  52.159 -52.158  1.00  0.00     0.029 A 
ENDBRANCH  13  16
ENDBRANCH  10  12
BRANCH   1  22
HETATM   22  C   UNL     1     -41.305  56.491 -52.013  1.00  0.00     0.083 A 
HETATM   23  O   UNL     1     -42.450  55.750 -51.920  1.00  0.00    -0.317 OA
HETATM   24  C   UNL     1     -42.647  55.479 -50.601  1.00  0.00     0.049 A 
HETATM   25  C   UNL     1     -43.880  54.744 -50.254  1.00  0.00     0.076 C 
HETATM   26  C   UNL     1     -41.614  55.997 -49.851  1.00  0.00     0.035 A 
HETATM   27  C   UNL     1     -40.744  56.644 -50.760  1.00  0.00     0.038 A 
ENDBRANCH   1  22
TORSDOF 3
ENDMDL
MODEL 2
REMARK VINA RESULT:      -8.3      2.009      3.904
REMARK  3 active torsions:
REMARK  status: ('A' for Active; 'I' for Inactive)
REMARK    1  A    between atoms: C_4  and  C_5 
REMARK    2  A    between atoms: C_14  and  C_15 
REMARK       I    between atoms: C_15  and  N_16 
REMARK    3  A    between atoms: N_16  and  C_17 
ROOT
HETATM    1  C   UNL     1     -43.627  56.803 -52.942  1.00  0.00     0.222 C 
HETATM    2  N   UNL     1     -44.009  58.124 -52.451  1.00  0.00    -0.090 N 
HETATM    3  C   UNL     1     -43.438  58.747 -51.379  1.00  0.00     0.735 A 
HETATM    4  N   UNL     1     -44.046  59.895 -51.201  1.00  0.00     0.030 NA
HETATM    5  N   UNL     1     -45.035  59.948 -52.166  1.00  0.00     0.033 NA
HETATM    6  N   UNL     1     -45.039  58.850 -52.916  1.00  0.00     0.012 NA
HETATM    7  N   UNL     1     -42.467  58.115 -50.687  1.00  0.00    -0.191 N 
HETATM    8  C   UNL     1     -42.128  56.783 -50.911  1.00  0.00     0.037 C 
HETATM    9  C   UNL     1     -41.255  56.153 -49.854  1.00  0.00     0.070 C 
HETATM   10  C   UNL     1     -42.646  56.131 -51.983  1.00  0.00     0.064 C 
HETATM   11  H   UNL     1     -42.125  58.551 -49.834  1.00  0.00     0.184 HD
ENDROOT
BRANCH  10  12
HETATM   12  C   UNL     1     -42.437  54.686 -52.280  1.00  0.00     0.256 C 
HETATM   13  N   UNL     1     -41.182  54.386 -52.758  1.00  0.00    -0.323 N 
HETATM   14  H   UNL     1     -40.552  55.161 -52.921  1.00  0.00     0.169 HD
HETATM   15  O   UNL     1     -43.378  53.920 -52.116  1.00  0.00    -0.267 OA
BRANCH  13  16
HETATM   16  C   UNL     1     -40.648  53.101 -52.997  1.00  0.00     0.035 A 
HETATM   17  C   UNL     1     -40.762  52.421 -54.211  1.00  0.00     0.029 A 
HETATM   18  C   UNL     1     -40.236  51.133 -54.357  1.00  0.00     0.002 A 
HETATM   19  C   UNL     1     -39.596  50.511 -53.288  1.00  0.00     0.000 A 
HETATM   20  C   UNL     1     -39.473  51.180 -52.073  1.00  0.00     0.002 A 
HETATM   21  C   UNL     1     -39.991  52.471 -51.931  1.00  0.00     0.029 A 
ENDBRANCH  13  16
ENDBRANCH  10  12
BRANCH   1  22
HETATM   22  C   UNL     1     -43.113  56.935 -54.346  1.00  0.00     0.083 A 
HETATM   23  O   UNL     1     -43.561  56.028 -55.264  1.00  0.00    -0.317 OA
HETATM   24  C   UNL     1     -42.925  56.294 -56.437  1.00  0.00     0.049 A 
HETATM   25  C   UNL     1     -43.203  55.379 -57.562  1.00  0.00     0.076 C 
HETATM   26  C   UNL     1     -42.108  57.395 -56.293  1.00  0.00     0.035 A 
HETATM   27  C   UNL     1     -42.234  57.814 -54.948  1.00  0.00     0.038 A 
ENDBRANCH   1  22
TORSDOF 3
ENDMDL
MODEL 3
REMARK VINA RESULT:      -8.2     15.371     17.811
REMARK  3 active torsions:
REMARK  status: ('A' for Active; 'I' for Inactive)
REMARK    1  A    between atoms: C_4  and  C_5 
REMARK    2  A    between atoms: C_14  and  C_15 
REMARK       I    between atoms: C_15  and  N_16 
REMARK    3  A    between atoms: N_16  and  C_17 
ROOT
HETATM    1  C   UNL     1     -32.906  40.522 -51.644  1.00  0.00     0.222 C 
HETATM    2  N   UNL     1     -32.370  39.952 -50.411  1.00  0.00    -0.090 N 
HETATM    3  C   UNL     1     -33.124  39.372 -49.432  1.00  0.00     0.735 A 
HETATM    4  N   UNL     1     -32.324  39.004 -48.462  1.00  0.00     0.030 NA
HETATM    5  N   UNL     1     -31.059  39.409 -48.846  1.00  0.00     0.033 NA
HETATM    6  N   UNL     1     -31.084  40.020 -50.027  1.00  0.00     0.012 NA
HETATM    7  N   UNL     1     -34.466  39.328 -49.571  1.00  0.00    -0.191 N 
HETATM    8  C   UNL     1     -35.140  39.995 -50.592  1.00  0.00     0.037 C 
HETATM    9  C   UNL     1     -36.635  40.098 -50.418  1.00  0.00     0.070 C 
HETATM   10  C   UNL     1     -34.433  40.561 -51.604  1.00  0.00     0.064 C 
HETATM   11  H   UNL     1     -35.018  38.984 -48.789  1.00  0.00     0.184 HD
ENDROOT
BRANCH  10  12
HETATM   12  C   UNL     1     -35.025  41.378 -52.699  1.00  0.00     0.256 C 
HETATM   13  N   UNL     1     -35.206  40.692 -53.878  1.00  0.00    -0.323 N 
HETATM   14  H   UNL     1     -34.871  39.738 -53.914  1.00  0.00     0.169 HD
HETATM   15  O   UNL     1     -35.257  42.560 -52.478  1.00  0.00    -0.267 OA
BRANCH  13  16
HETATM   16  C   UNL     1     -35.863  41.155 -55.039  1.00  0.00     0.035 A 
HETATM   17  C   UNL     1     -37.247  41.129 -55.216  1.00  0.00     0.029 A 
HETATM   18  C   UNL     1     -37.819  41.572 -56.414  1.00  0.00     0.002 A 
HETATM   19  C   UNL     1     -37.011  42.039 -57.447  1.00  0.00     0.000 A 
HETATM   20  C   UNL     1     -35.629  42.073 -57.281  1.00  0.00     0.002 A 
HETATM   21  C   UNL     1     -35.059  41.639 -56.080  1.00  0.00     0.029 A 
ENDBRANCH  13  16
ENDBRANCH  10  12
BRANCH   1  22
HETATM   22  C   UNL     1     -32.346  39.767 -52.814  1.00  0.00     0.083 A 
HETATM   23  O   UNL     1     -32.147  40.466 -53.971  1.00  0.00    -0.317 OA
HETATM   24  C   UNL     1     -31.701  39.581 -54.903  1.00  0.00     0.049 A 
HETATM   25  C   UNL     1     -31.489  40.107 -56.266  1.00  0.00     0.076 C 
HETATM   26  C   UNL     1     -31.565  38.330 -54.342  1.00  0.00     0.035 A 
HETATM   27  C   UNL     1     -31.974  38.449 -52.993  1.00  0.00     0.038 A 
ENDBRANCH   1  22
TORSDOF 3
ENDMDL
MODEL 4
REMARK VINA RESULT:      -8.0      2.591      5.761
REMARK  3 active torsions:
REMARK  status: ('A' for Active; 'I' for Inactive)
REMARK    1  A    between atoms: C_4  and  C_5 
REMARK    2  A    between atoms: C_14  and  C_15 
REMARK       I    between atoms: C_15  and  N_16 
REMARK    3  A    between atoms: N_16  and  C_17 
ROOT
HETATM    1  C   UNL     1     -42.404  55.105 -51.640  1.00  0.00     0.222 C 
HETATM    2  N   UNL     1     -41.671  54.485 -50.540  1.00  0.00    -0.090 N 
HETATM    3  C   UNL     1     -40.627  53.619 -50.694  1.00  0.00     0.735 A 
HETATM    4  N   UNL     1     -40.234  53.234 -49.505  1.00  0.00     0.030 NA
HETATM    5  N   UNL     1     -41.090  53.851 -48.611  1.00  0.00     0.033 NA
HETATM    6  N   UNL     1     -41.995  54.594 -49.241  1.00  0.00     0.012 NA
HETATM    7  N   UNL     1     -40.234  53.273 -51.938  1.00  0.00    -0.191 N 
HETATM    8  C   UNL     1     -40.950  53.627 -53.080  1.00  0.00     0.037 C 
HETATM    9  C   UNL     1     -40.551  52.902 -54.342  1.00  0.00     0.070 C 
HETATM   10  C   UNL     1     -41.978  54.508 -52.980  1.00  0.00     0.064 C 
HETATM   11  H   UNL     1     -39.522  52.553 -52.033  1.00  0.00     0.184 HD
ENDROOT
BRANCH  10  12
HETATM   12  C   UNL     1     -42.877  54.893 -54.103  1.00  0.00     0.256 C 
HETATM   13  N   UNL     1     -42.347  55.841 -54.948  1.00  0.00    -0.323 N 
HETATM   14  H   UNL     1     -41.444  56.227 -54.702  1.00  0.00     0.169 HD
HETATM   15  O   UNL     1     -43.988  54.381 -54.157  1.00  0.00    -0.267 OA
BRANCH  13  16
HETATM   16  C   UNL     1     -42.898  56.301 -56.164  1.00  0.00     0.035 A 
HETATM   17  C   UNL     1     -43.499  57.551 -56.325  1.00  0.00     0.029 A 
HETATM   18  C   UNL     1     -44.056  57.918 -57.555  1.00  0.00     0.002 A 
HETATM   19  C   UNL     1     -44.022  57.037 -58.632  1.00  0.00     0.000 A 
HETATM   20  C   UNL     1     -43.423  55.789 -58.485  1.00  0.00     0.002 A 
HETATM   21  C   UNL     1     -42.859  55.426 -57.258  1.00  0.00     0.029 A 
ENDBRANCH  13  16
ENDBRANCH  10  12
BRANCH   1  22
HETATM   22  C   UNL     1     -42.240  56.594 -51.556  1.00  0.00     0.083 A 
HETATM   23  O   UNL     1     -40.975  57.074 -51.364  1.00  0.00    -0.317 OA
HETATM   24  C   UNL     1     -41.070  58.427 -51.256  1.00  0.00     0.049 A 
HETATM   25  C   UNL     1     -39.820  59.156 -50.966  1.00  0.00     0.076 C 
HETATM   26  C   UNL     1     -42.379  58.825 -51.426  1.00  0.00     0.035 A 
HETATM   27  C   UNL     1     -43.133  57.645 -51.627  1.00  0.00     0.038 A 
ENDBRANCH   1  22
TORSDOF 3
ENDMDL
MODEL 5
REMARK VINA RESULT:      -7.9      1.707      2.285
REMARK  3 active torsions:
REMARK  status: ('A' for Active; 'I' for Inactive)
REMARK    1  A    between atoms: C_4  and  C_5 
REMARK    2  A    between atoms: C_14  and  C_15 
REMARK       I    between atoms: C_15  and  N_16 
REMARK    3  A    between atoms: N_16  and  C_17 
ROOT
HETATM    1  C   UNL     1     -41.322  57.406 -54.619  1.00  0.00     0.222 C 
HETATM    2  N   UNL     1     -42.160  58.375 -55.320  1.00  0.00    -0.090 N 
HETATM    3  C   UNL     1     -43.309  58.066 -55.989  1.00  0.00     0.735 A 
HETATM    4  N   UNL     1     -43.780  59.165 -56.525  1.00  0.00     0.030 NA
HETATM    5  N   UNL     1     -42.870  60.156 -56.205  1.00  0.00     0.033 NA
HETATM    6  N   UNL     1     -41.857  59.672 -55.493  1.00  0.00     0.012 NA
HETATM    7  N   UNL     1     -43.714  56.780 -56.047  1.00  0.00    -0.191 N 
HETATM    8  C   UNL     1     -42.929  55.722 -55.595  1.00  0.00     0.037 C 
HETATM    9  C   UNL     1     -43.392  54.349 -56.016  1.00  0.00     0.070 C 
HETATM   10  C   UNL     1     -41.793  55.980 -54.898  1.00  0.00     0.064 C 
HETATM   11  H   UNL     1     -44.516  56.555 -56.632  1.00  0.00     0.184 HD
ENDROOT
BRANCH  10  12
HETATM   12  C   UNL     1     -40.822  54.945 -54.445  1.00  0.00     0.256 C 
HETATM   13  N   UNL     1     -41.287  54.147 -53.426  1.00  0.00    -0.323 N 
HETATM   14  H   UNL     1     -42.197  54.368 -53.042  1.00  0.00     0.169 HD
HETATM   15  O   UNL     1     -39.717  54.918 -54.971  1.00  0.00    -0.267 OA
BRANCH  13  16
HETATM   16  C   UNL     1     -40.656  53.005 -52.884  1.00  0.00     0.035 A 
HETATM   17  C   UNL     1     -40.178  51.940 -53.648  1.00  0.00     0.029 A 
HETATM   18  C   UNL     1     -39.597  50.826 -53.031  1.00  0.00     0.002 A 
HETATM   19  C   UNL     1     -39.495  50.766 -51.644  1.00  0.00     0.000 A 
HETATM   20  C   UNL     1     -39.967  51.823 -50.871  1.00  0.00     0.002 A 
HETATM   21  C   UNL     1     -40.538  52.940 -51.489  1.00  0.00     0.029 A 
ENDBRANCH  13  16
ENDBRANCH  10  12
BRANCH   1  22
HETATM   22  C   UNL     1     -41.283  57.761 -53.161  1.00  0.00     0.083 A 
HETATM   23  O   UNL     1     -40.239  58.533 -52.734  1.00  0.00    -0.317 OA
HETATM   24  C   UNL     1     -40.369  58.675 -51.387  1.00  0.00     0.049 A 
HETATM   25  C   UNL     1     -39.298  59.418 -50.694  1.00  0.00     0.076 C 
HETATM   26  C   UNL     1     -41.513  58.041 -50.952  1.00  0.00     0.035 A 
HETATM   27  C   UNL     1     -42.107  57.457 -52.096  1.00  0.00     0.038 A 
ENDBRANCH   1  22
TORSDOF 3
ENDMDL
MODEL 6
REMARK VINA RESULT:      -7.7      2.003      2.543
REMARK  3 active torsions:
REMARK  status: ('A' for Active; 'I' for Inactive)
REMARK    1  A    between atoms: C_4  and  C_5 
REMARK    2  A    between atoms: C_14  and  C_15 
REMARK       I    between atoms: C_15  and  N_16 
REMARK    3  A    between atoms: N_16  and  C_17 
ROOT
HETATM    1  C   UNL     1     -42.158  57.402 -54.505  1.00  0.00     0.222 C 
HETATM    2  N   UNL     1     -42.114  58.573 -55.376  1.00  0.00    -0.090 N 
HETATM    3  C   UNL     1     -42.545  58.593 -56.671  1.00  0.00     0.735 A 
HETATM    4  N   UNL     1     -42.325  59.788 -57.158  1.00  0.00     0.030 NA
HETATM    5  N   UNL     1     -41.708  60.498 -56.144  1.00  0.00     0.033 NA
HETATM    6  N   UNL     1     -41.546  59.748 -55.058  1.00  0.00     0.012 NA
HETATM    7  N   UNL     1     -43.029  57.460 -57.223  1.00  0.00    -0.191 N 
HETATM    8  C   UNL     1     -42.960  56.223 -56.588  1.00  0.00     0.037 C 
HETATM    9  C   UNL     1     -43.257  55.030 -57.463  1.00  0.00     0.070 C 
HETATM   10  C   UNL     1     -42.566  56.157 -55.290  1.00  0.00     0.064 C 
HETATM   11  H   UNL     1     -43.252  57.468 -58.216  1.00  0.00     0.184 HD
ENDROOT
BRANCH  10  12
HETATM   12  C   UNL     1     -42.360  54.893 -54.529  1.00  0.00     0.256 C 
HETATM   13  N   UNL     1     -41.046  54.493 -54.449  1.00  0.00    -0.323 N 
HETATM   14  H   UNL     1     -40.363  55.043 -54.954  1.00  0.00     0.169 HD
HETATM   15  O   UNL     1     -43.345  54.316 -54.087  1.00  0.00    -0.267 OA
BRANCH  13  16
HETATM   16  C   UNL     1     -40.528  53.422 -53.689  1.00  0.00     0.035 A 
HETATM   17  C   UNL     1     -40.176  52.182 -54.225  1.00  0.00     0.029 A 
HETATM   18  C   UNL     1     -39.703  51.158 -53.397  1.00  0.00     0.002 A 
HETATM   19  C   UNL     1     -39.583  51.363 -52.025  1.00  0.00     0.000 A 
HETATM   20  C   UNL     1     -39.928  52.597 -51.479  1.00  0.00     0.002 A 
HETATM   21  C   UNL     1     -40.392  53.622 -52.308  1.00  0.00     0.029 A 
ENDBRANCH  13  16
ENDBRANCH  10  12
BRANCH   1  22
HETATM   22  C   UNL     1     -43.046  57.701 -53.332  1.00  0.00     0.083 A 
HETATM   23  O   UNL     1     -44.045  58.613 -53.521  1.00  0.00    -0.317 OA
HETATM   24  C   UNL     1     -44.675  58.774 -52.325  1.00  0.00     0.049 A 
HETATM   25  C   UNL     1     -45.753  59.782 -52.276  1.00  0.00     0.076 C 
HETATM   26  C   UNL     1     -44.120  57.937 -51.382  1.00  0.00     0.035 A 
HETATM   27  C   UNL     1     -43.074  57.239 -52.031  1.00  0.00     0.038 A 
ENDBRANCH   1  22
TORSDOF 3
ENDMDL
MODEL 7
REMARK VINA RESULT:      -7.4      2.399      3.678
REMARK  3 active torsions:
REMARK  status: ('A' for Active; 'I' for Inactive)
REMARK    1  A    between atoms: C_4  and  C_5 
REMARK    2  A    between atoms: C_14  and  C_15 
REMARK       I    between atoms: C_15  and  N_16 
REMARK    3  A    between atoms: N_16  and  C_17 
ROOT
HETATM    1  C   UNL     1     -42.361  57.925 -54.017  1.00  0.00     0.222 C 
HETATM    2  N   UNL     1     -42.154  58.694 -55.240  1.00  0.00    -0.090 N 
HETATM    3  C   UNL     1     -42.366  58.217 -56.502  1.00  0.00     0.735 A 
HETATM    4  N   UNL     1     -42.047  59.159 -57.355  1.00  0.00     0.030 NA
HETATM    5  N   UNL     1     -41.593  60.218 -56.591  1.00  0.00     0.033 NA
HETATM    6  N   UNL     1     -41.625  59.928 -55.294  1.00  0.00     0.012 NA
HETATM    7  N   UNL     1     -42.772  56.940 -56.665  1.00  0.00    -0.191 N 
HETATM    8  C   UNL     1     -42.829  56.028 -55.615  1.00  0.00     0.037 C 
HETATM    9  C   UNL     1     -42.999  54.585 -56.022  1.00  0.00     0.070 C 
HETATM   10  C   UNL     1     -42.655  56.461 -54.340  1.00  0.00     0.064 C 
HETATM   11  H   UNL     1     -42.828  56.572 -57.612  1.00  0.00     0.184 HD
ENDROOT
BRANCH  10  12
HETATM   12  C   UNL     1     -42.599  55.576 -53.143  1.00  0.00     0.256 C 
HETATM   13  N   UNL     1     -41.358  55.504 -52.555  1.00  0.00    -0.323 N 
HETATM   14  H   UNL     1     -40.600  55.995 -53.012  1.00  0.00     0.169 HD
HETATM   15  O   UNL     1     -43.617  54.977 -52.818  1.00  0.00    -0.267 OA
BRANCH  13  16
HETATM   16  C   UNL     1     -41.027  54.862 -51.342  1.00  0.00     0.035 A 
HETATM   17  C   UNL     1     -40.522  53.564 -51.257  1.00  0.00     0.029 A 
HETATM   18  C   UNL     1     -40.253  52.985 -50.012  1.00  0.00     0.002 A 
HETATM   19  C   UNL     1     -40.494  53.697 -48.840  1.00  0.00     0.000 A 
HETATM   20  C   UNL     1     -40.995  54.994 -48.911  1.00  0.00     0.002 A 
HETATM   21  C   UNL     1     -41.254  55.575 -50.157  1.00  0.00     0.029 A 
ENDBRANCH  13  16
ENDBRANCH  10  12
BRANCH   1  22
HETATM   22  C   UNL     1     -43.424  58.593 -53.195  1.00  0.00     0.083 A 
HETATM   23  O   UNL     1     -43.010  59.381 -52.158  1.00  0.00    -0.317 OA
HETATM   24  C   UNL     1     -44.126  59.827 -51.521  1.00  0.00     0.049 A 
HETATM   25  C   UNL     1     -43.914  60.645 -50.310  1.00  0.00     0.076 C 
HETATM   26  C   UNL     1     -45.254  59.373 -52.169  1.00  0.00     0.035 A 
HETATM   27  C   UNL     1     -44.804  58.583 -53.252  1.00  0.00     0.038 A 
ENDBRANCH   1  22
TORSDOF 3
ENDMDL
MODEL 8
REMARK VINA RESULT:      -7.2      2.905      4.407
REMARK  3 active torsions:
REMARK  status: ('A' for Active; 'I' for Inactive)
REMARK    1  A    between atoms: C_4  and  C_5 
REMARK    2  A    between atoms: C_14  and  C_15 
REMARK       I    between atoms: C_15  and  N_16 
REMARK    3  A    between atoms: N_16  and  C_17 
ROOT
HETATM    1  C   UNL     1     -42.126  58.593 -56.314  1.00  0.00     0.222 C 
HETATM    2  N   UNL     1     -41.898  59.521 -57.417  1.00  0.00    -0.090 N 
HETATM    3  C   UNL     1     -42.245  59.282 -58.716  1.00  0.00     0.735 A 
HETATM    4  N   UNL     1     -41.863  60.306 -59.438  1.00  0.00     0.030 NA
HETATM    5  N   UNL     1     -41.232  61.169 -58.559  1.00  0.00     0.033 NA
HETATM    6  N   UNL     1     -41.222  60.678 -57.324  1.00  0.00     0.012 NA
HETATM    7  N   UNL     1     -42.819  58.104 -59.040  1.00  0.00    -0.191 N 
HETATM    8  C   UNL     1     -42.928  57.047 -58.141  1.00  0.00     0.037 C 
HETATM    9  C   UNL     1     -43.303  55.718 -58.749  1.00  0.00     0.070 C 
HETATM   10  C   UNL     1     -42.623  57.245 -56.832  1.00  0.00     0.064 C 
HETATM   11  H   UNL     1     -42.979  57.904 -60.025  1.00  0.00     0.184 HD
ENDROOT
BRANCH  10  12
HETATM   12  C   UNL     1     -42.607  56.178 -55.794  1.00  0.00     0.256 C 
HETATM   13  N   UNL     1     -41.366  55.623 -55.577  1.00  0.00    -0.323 N 
HETATM   14  H   UNL     1     -40.609  55.937 -56.171  1.00  0.00     0.169 HD
HETATM   15  O   UNL     1     -43.667  55.867 -55.267  1.00  0.00    -0.267 OA
BRANCH  13  16
HETATM   16  C   UNL     1     -41.013  54.696 -54.572  1.00  0.00     0.035 A 
HETATM   17  C   UNL     1     -41.098  54.956 -53.204  1.00  0.00     0.029 A 
HETATM   18  C   UNL     1     -40.692  53.996 -52.270  1.00  0.00     0.002 A 
HETATM   19  C   UNL     1     -40.192  52.770 -52.698  1.00  0.00     0.000 A 
HETATM   20  C   UNL     1     -40.104  52.497 -54.060  1.00  0.00     0.002 A 
HETATM   21  C   UNL     1     -40.519  53.453 -54.992  1.00  0.00     0.029 A 
ENDBRANCH  13  16
ENDBRANCH  10  12
BRANCH   1  22
HETATM   22  C   UNL     1     -43.044  59.238 -55.317  1.00  0.00     0.083 A 
HETATM   23  O   UNL     1     -44.136  59.896 -55.807  1.00  0.00    -0.317 OA
HETATM   24  C   UNL     1     -44.782  60.450 -54.746  1.00  0.00     0.049 A 
HETATM   25  C   UNL     1     -45.964  61.281 -55.051  1.00  0.00     0.076 C 
HETATM   26  C   UNL     1     -44.141  60.113 -53.573  1.00  0.00     0.035 A 
HETATM   27  C   UNL     1     -43.025  59.326 -53.939  1.00  0.00     0.038 A 
ENDBRANCH   1  22
TORSDOF 3
ENDMDL
MODEL 9
REMARK VINA RESULT:      -6.9      2.535      4.904
REMARK  3 active torsions:
REMARK  status: ('A' for Active; 'I' for Inactive)
REMARK    1  A    between atoms: C_4  and  C_5 
REMARK    2  A    between atoms: C_14  and  C_15 
REMARK       I    between atoms: C_15  and  N_16 
REMARK    3  A    between atoms: N_16  and  C_17 
ROOT
HETATM    1  C   UNL     1     -44.271  58.148 -55.569  1.00  0.00     0.222 C 
HETATM    2  N   UNL     1     -44.835  59.493 -55.498  1.00  0.00    -0.090 N 
HETATM    3  C   UNL     1     -44.590  60.384 -54.493  1.00  0.00     0.735 A 
HETATM    4  N   UNL     1     -45.282  61.470 -54.730  1.00  0.00     0.030 NA
HETATM    5  N   UNL     1     -45.995  61.214 -55.887  1.00  0.00     0.033 NA
HETATM    6  N   UNL     1     -45.750  59.990 -56.346  1.00  0.00     0.012 NA
HETATM    7  N   UNL     1     -43.795  60.018 -53.465  1.00  0.00    -0.191 N 
HETATM    8  C   UNL     1     -43.339  58.714 -53.293  1.00  0.00     0.037 C 
HETATM    9  C   UNL     1     -42.731  58.415 -51.944  1.00  0.00     0.070 C 
HETATM   10  C   UNL     1     -43.532  57.800 -54.278  1.00  0.00     0.064 C 
HETATM   11  H   UNL     1     -43.704  60.657 -52.678  1.00  0.00     0.184 HD
ENDROOT
BRANCH  10  12
HETATM   12  C   UNL     1     -43.179  56.357 -54.178  1.00  0.00     0.256 C 
HETATM   13  N   UNL     1     -41.826  56.112 -54.121  1.00  0.00    -0.323 N 
HETATM   14  H   UNL     1     -41.207  56.908 -54.213  1.00  0.00     0.169 HD
HETATM   15  O   UNL     1     -44.087  55.536 -54.194  1.00  0.00    -0.267 OA
BRANCH  13  16
HETATM   16  C   UNL     1     -41.195  54.870 -53.890  1.00  0.00     0.035 A 
HETATM   17  C   UNL     1     -40.700  54.045 -54.900  1.00  0.00     0.029 A 
HETATM   18  C   UNL     1     -40.120  52.810 -54.591  1.00  0.00     0.002 A 
HETATM   19  C   UNL     1     -40.036  52.387 -53.267  1.00  0.00     0.000 A 
HETATM   20  C   UNL     1     -40.523  53.202 -52.249  1.00  0.00     0.002 A 
HETATM   21  C   UNL     1     -41.094  54.440 -52.559  1.00  0.00     0.029 A 
ENDBRANCH  13  16
ENDBRANCH  10  12
BRANCH   1  22
HETATM   22  C   UNL     1     -43.425  58.039 -56.804  1.00  0.00     0.083 A 
HETATM   23  O   UNL     1     -43.676  56.991 -57.644  1.00  0.00    -0.317 OA
HETATM   24  C   UNL     1     -42.761  57.053 -58.649  1.00  0.00     0.049 A 
HETATM   25  C   UNL     1     -42.797  55.962 -59.644  1.00  0.00     0.076 C 
HETATM   26  C   UNL     1     -41.956  58.160 -58.489  1.00  0.00     0.035 A 
HETATM   27  C   UNL     1     -42.387  58.801 -57.304  1.00  0.00     0.038 A 
ENDBRANCH   1  22
TORSDOF 3
ENDMDL
MODEL 10
REMARK VINA RESULT:      -6.8      2.603      6.436
REMARK  3 active torsions:
REMARK  status: ('A' for Active; 'I' for Inactive)
REMARK    1  A    between atoms: C_4  and  C_5 
REMARK    2  A    between atoms: C_14  and  C_15 
REMARK       I    between atoms: C_15  and  N_16 
REMARK    3  A    between atoms: N_16  and  C_17 
ROOT
HETATM    1  C   UNL     1     -42.483  55.205 -53.251  1.00  0.00     0.222 C 
HETATM    2  N   UNL     1     -41.466  54.258 -53.700  1.00  0.00    -0.090 N 
HETATM    3  C   UNL     1     -40.810  54.334 -54.895  1.00  0.00     0.735 A 
HETATM    4  N   UNL     1     -39.998  53.309 -54.983  1.00  0.00     0.030 NA
HETATM    5  N   UNL     1     -40.199  52.573 -53.829  1.00  0.00     0.033 NA
HETATM    6  N   UNL     1     -41.122  53.133 -53.053  1.00  0.00     0.012 NA
HETATM    7  N   UNL     1     -41.116  55.328 -55.755  1.00  0.00    -0.191 N 
HETATM    8  C   UNL     1     -42.191  56.191 -55.556  1.00  0.00     0.037 C 
HETATM    9  C   UNL     1     -42.577  57.028 -56.751  1.00  0.00     0.070 C 
HETATM   10  C   UNL     1     -42.855  56.174 -54.372  1.00  0.00     0.064 C 
HETATM   11  H   UNL     1     -40.691  55.311 -56.679  1.00  0.00     0.184 HD
ENDROOT
BRANCH  10  12
HETATM   12  C   UNL     1     -44.073  56.976 -54.070  1.00  0.00     0.256 C 
HETATM   13  N   UNL     1     -43.817  58.173 -53.443  1.00  0.00    -0.323 N 
HETATM   14  H   UNL     1     -42.856  58.368 -53.192  1.00  0.00     0.169 HD
HETATM   15  O   UNL     1     -45.164  56.502 -54.360  1.00  0.00    -0.267 OA
BRANCH  13  16
HETATM   16  C   UNL     1     -44.744  59.198 -53.155  1.00  0.00     0.035 A 
HETATM   17  C   UNL     1     -45.095  60.208 -54.051  1.00  0.00     0.029 A 
HETATM   18  C   UNL     1     -45.996  61.211 -53.676  1.00  0.00     0.002 A 
HETATM   19  C   UNL     1     -46.549  61.216 -52.398  1.00  0.00     0.000 A 
HETATM   20  C   UNL     1     -46.209  60.211 -51.496  1.00  0.00     0.002 A 
HETATM   21  C   UNL     1     -45.316  59.204 -51.875  1.00  0.00     0.029 A 
ENDBRANCH  13  16
ENDBRANCH  10  12
BRANCH   1  22
HETATM   22  C   UNL     1     -42.002  55.878 -51.999  1.00  0.00     0.083 A 
HETATM   23  O   UNL     1     -41.342  57.066 -52.141  1.00  0.00    -0.317 OA
HETATM   24  C   UNL     1     -40.947  57.458 -50.899  1.00  0.00     0.049 A 
HETATM   25  C   UNL     1     -40.140  58.692 -50.821  1.00  0.00     0.076 C 
HETATM   26  C   UNL     1     -41.390  56.557 -49.955  1.00  0.00     0.035 A 
HETATM   27  C   UNL     1     -42.076  55.542 -50.661  1.00  0.00     0.038 A 
ENDBRANCH   1  22
TORSDOF 3
ENDMDL
