MODEL 1
REMARK VINA RESULT:      -7.9      0.000      0.000
REMARK  6 active torsions:
REMARK  status: ('A' for Active; 'I' for Inactive)
REMARK    1  A    between atoms: C_2  and  C_3 
REMARK    2  A    between atoms: C_3  and  O_4 
REMARK    3  A    between atoms: O_4  and  C_5 
REMARK    4  A    between atoms: C_8  and  C_9 
REMARK    5  A    between atoms: C_9  and  N_10 
REMARK       I    between atoms: N_10  and  C_11 
REMARK       I    between atoms: C_11  and  N_12 
REMARK    6  A    between atoms: N_12  and  C_13 
ROOT
HETATM    1  N   UNL     1     -43.877  56.171 -55.101  1.00  0.00    -0.339 N 
HETATM    2  C   UNL     1     -43.309  56.791 -56.180  1.00  0.00     0.316 C 
HETATM    3  N   UNL     1     -43.897  56.419 -57.362  1.00  0.00    -0.338 N 
HETATM    4  O   UNL     1     -42.359  57.556 -56.101  1.00  0.00    -0.247 OA
HETATM    5  H   UNL     1     -44.704  55.611 -55.238  1.00  0.00     0.164 HD
HETATM    6  H   UNL     1     -44.879  56.194 -57.312  1.00  0.00     0.164 HD
ENDROOT
BRANCH   1   7
HETATM    7  C   UNL     1     -43.451  56.478 -53.756  1.00  0.00     0.164 C 
BRANCH   7   8
HETATM    8  C   UNL     1     -42.590  55.390 -53.183  1.00  0.00    -0.021 A 
HETATM    9  C   UNL     1     -42.431  54.182 -53.854  1.00  0.00     0.128 A 
HETATM   10  N   UNL     1     -41.641  53.170 -53.426  1.00  0.00    -0.235 NA
HETATM   11  C   UNL     1     -40.962  53.368 -52.269  1.00  0.00     0.186 A 
HETATM   12  C   UNL     1     -41.065  54.535 -51.516  1.00  0.00     0.087 A 
HETATM   13  C   UNL     1     -41.892  55.557 -51.983  1.00  0.00     0.038 A 
HETATM   14 CL   UNL     1     -40.200  54.769 -50.044  1.00  0.00    -0.080 Cl
BRANCH  11  15
HETATM   15  O   UNL     1     -40.119  52.375 -51.810  1.00  0.00    -0.333 OA
BRANCH  15  16
HETATM   16  C   UNL     1     -39.336  51.754 -52.832  1.00  0.00     0.181 C 
BRANCH  16  17
HETATM   17  C   UNL     1     -39.942  50.377 -53.151  1.00  0.00     0.002 C 
HETATM   18  C   UNL     1     -39.593  49.373 -52.056  1.00  0.00     0.011 C 
HETATM   19  C   UNL     1     -39.477  49.861 -54.515  1.00  0.00     0.011 C 
ENDBRANCH  16  17
ENDBRANCH  15  16
ENDBRANCH  11  15
ENDBRANCH   7   8
ENDBRANCH   1   7
BRANCH   3  20
HETATM   20  C   UNL     1     -43.424  56.991 -58.627  1.00  0.00     0.090 C 
HETATM   21  C   UNL     1     -44.390  58.082 -59.171  1.00  0.00     0.067 C 
HETATM   22  C   UNL     1     -45.493  57.476 -59.965  1.00  0.00    -0.013 A 
HETATM   23  C   UNL     1     -45.475  56.179 -60.422  1.00  0.00     0.035 A 
HETATM   24  C   UNL     1     -46.696  58.006 -60.460  1.00  0.00     0.148 A 
HETATM   25  N   UNL     1     -46.617  56.004 -61.141  1.00  0.00    -0.282 N 
HETATM   26  C   UNL     1     -44.422  55.167 -60.175  1.00  0.00     0.061 C 
HETATM   27  H   UNL     1     -46.938  55.179 -61.638  1.00  0.00     0.189 HD
HETATM   28  N   UNL     1     -47.388  57.107 -61.168  1.00  0.00    -0.187 NA
HETATM   29  C   UNL     1     -43.150  55.869 -59.662  1.00  0.00     0.031 C 
ENDBRANCH   3  20
TORSDOF 6
ENDMDL
MODEL 2
REMARK VINA RESULT:      -7.8      1.769      2.299
REMARK  6 active torsions:
REMARK  status: ('A' for Active; 'I' for Inactive)
REMARK    1  A    between atoms: C_2  and  C_3 
REMARK    2  A    between atoms: C_3  and  O_4 
REMARK    3  A    between atoms: O_4  and  C_5 
REMARK    4  A    between atoms: C_8  and  C_9 
REMARK    5  A    between atoms: C_9  and  N_10 
REMARK       I    between atoms: N_10  and  C_11 
REMARK       I    between atoms: C_11  and  N_12 
REMARK    6  A    between atoms: N_12  and  C_13 
ROOT
HETATM    1  N   UNL     1     -44.781  56.669 -54.360  1.00  0.00    -0.339 N 
HETATM    2  C   UNL     1     -44.947  57.746 -55.186  1.00  0.00     0.316 C 
HETATM    3  N   UNL     1     -45.466  57.391 -56.406  1.00  0.00    -0.338 N 
HETATM    4  O   UNL     1     -44.627  58.888 -54.888  1.00  0.00    -0.247 OA
HETATM    5  H   UNL     1     -45.136  55.771 -54.650  1.00  0.00     0.164 HD
HETATM    6  H   UNL     1     -46.093  56.600 -56.401  1.00  0.00     0.164 HD
ENDROOT
BRANCH   1   7
HETATM    7  C   UNL     1     -44.312  56.836 -53.005  1.00  0.00     0.164 C 
BRANCH   7   8
HETATM    8  C   UNL     1     -43.104  55.992 -52.726  1.00  0.00    -0.021 A 
HETATM    9  C   UNL     1     -42.809  55.579 -51.430  1.00  0.00     0.128 A 
HETATM   10  N   UNL     1     -41.765  54.783 -51.101  1.00  0.00    -0.235 NA
HETATM   11  C   UNL     1     -40.968  54.365 -52.116  1.00  0.00     0.186 A 
HETATM   12  C   UNL     1     -41.170  54.734 -53.444  1.00  0.00     0.087 A 
HETATM   13  C   UNL     1     -42.253  55.559 -53.747  1.00  0.00     0.038 A 
HETATM   14 CL   UNL     1     -40.145  54.198 -54.721  1.00  0.00    -0.080 Cl
BRANCH  11  15
HETATM   15  O   UNL     1     -39.909  53.525 -51.832  1.00  0.00    -0.333 OA
BRANCH  15  16
HETATM   16  C   UNL     1     -40.280  52.327 -51.147  1.00  0.00     0.181 C 
BRANCH  16  17
HETATM   17  C   UNL     1     -39.414  51.169 -51.671  1.00  0.00     0.002 C 
HETATM   18  C   UNL     1     -39.643  50.963 -53.165  1.00  0.00     0.011 C 
HETATM   19  C   UNL     1     -39.688  49.872 -50.906  1.00  0.00     0.011 C 
ENDBRANCH  16  17
ENDBRANCH  15  16
ENDBRANCH  11  15
ENDBRANCH   7   8
ENDBRANCH   1   7
BRANCH   3  20
HETATM   20  C   UNL     1     -45.721  58.418 -57.420  1.00  0.00     0.090 C 
HETATM   21  C   UNL     1     -46.925  58.049 -58.334  1.00  0.00     0.067 C 
HETATM   22  C   UNL     1     -46.497  57.176 -59.461  1.00  0.00    -0.013 A 
HETATM   23  C   UNL     1     -45.183  56.992 -59.822  1.00  0.00     0.035 A 
HETATM   24  C   UNL     1     -47.227  56.421 -60.394  1.00  0.00     0.148 A 
HETATM   25  N   UNL     1     -45.190  56.176 -60.912  1.00  0.00    -0.282 N 
HETATM   26  C   UNL     1     -43.992  57.565 -59.154  1.00  0.00     0.061 C 
HETATM   27  H   UNL     1     -44.404  55.836 -61.458  1.00  0.00     0.189 HD
HETATM   28  N   UNL     1     -46.430  55.803 -61.274  1.00  0.00    -0.187 NA
HETATM   29  C   UNL     1     -44.431  58.717 -58.227  1.00  0.00     0.031 C 
ENDBRANCH   3  20
TORSDOF 6
ENDMDL
MODEL 3
REMARK VINA RESULT:      -7.5      2.097      2.693
REMARK  6 active torsions:
REMARK  status: ('A' for Active; 'I' for Inactive)
REMARK    1  A    between atoms: C_2  and  C_3 
REMARK    2  A    between atoms: C_3  and  O_4 
REMARK    3  A    between atoms: O_4  and  C_5 
REMARK    4  A    between atoms: C_8  and  C_9 
REMARK    5  A    between atoms: C_9  and  N_10 
REMARK       I    between atoms: N_10  and  C_11 
REMARK       I    between atoms: C_11  and  N_12 
REMARK    6  A    between atoms: N_12  and  C_13 
ROOT
HETATM    1  N   UNL     1     -42.725  57.634 -53.713  1.00  0.00    -0.339 N 
HETATM    2  C   UNL     1     -43.629  57.933 -54.695  1.00  0.00     0.316 C 
HETATM    3  N   UNL     1     -43.039  58.533 -55.778  1.00  0.00    -0.338 N 
HETATM    4  O   UNL     1     -44.831  57.730 -54.597  1.00  0.00    -0.247 OA
HETATM    5  H   UNL     1     -41.742  57.764 -53.896  1.00  0.00     0.164 HD
HETATM    6  H   UNL     1     -42.090  58.251 -55.973  1.00  0.00     0.164 HD
ENDROOT
BRANCH   1   7
HETATM    7  C   UNL     1     -43.130  56.935 -52.516  1.00  0.00     0.164 C 
BRANCH   7   8
HETATM    8  C   UNL     1     -42.325  55.687 -52.301  1.00  0.00    -0.021 A 
HETATM    9  C   UNL     1     -42.374  54.643 -53.219  1.00  0.00     0.128 A 
HETATM   10  N   UNL     1     -41.649  53.504 -53.120  1.00  0.00    -0.235 NA
HETATM   11  C   UNL     1     -40.819  53.396 -52.053  1.00  0.00     0.186 A 
HETATM   12  C   UNL     1     -40.709  54.379 -51.071  1.00  0.00     0.087 A 
HETATM   13  C   UNL     1     -41.475  55.537 -51.201  1.00  0.00     0.038 A 
HETATM   14 CL   UNL     1     -39.654  54.223 -49.717  1.00  0.00    -0.080 Cl
BRANCH  11  15
HETATM   15  O   UNL     1     -40.035  52.266 -51.927  1.00  0.00    -0.333 OA
BRANCH  15  16
HETATM   16  C   UNL     1     -39.545  51.754 -53.168  1.00  0.00     0.181 C 
BRANCH  16  17
HETATM   17  C   UNL     1     -40.058  50.315 -53.346  1.00  0.00     0.002 C 
HETATM   18  C   UNL     1     -39.564  49.426 -52.208  1.00  0.00     0.011 C 
HETATM   19  C   UNL     1     -39.637  49.732 -54.698  1.00  0.00     0.011 C 
ENDBRANCH  16  17
ENDBRANCH  15  16
ENDBRANCH  11  15
ENDBRANCH   7   8
ENDBRANCH   1   7
BRANCH   3  20
HETATM   20  C   UNL     1     -43.854  58.919 -56.935  1.00  0.00     0.090 C 
HETATM   21  C   UNL     1     -44.289  57.686 -57.778  1.00  0.00     0.067 C 
HETATM   22  C   UNL     1     -43.238  57.309 -58.762  1.00  0.00    -0.013 A 
HETATM   23  C   UNL     1     -42.184  58.127 -59.097  1.00  0.00     0.035 A 
HETATM   24  C   UNL     1     -43.070  56.172 -59.570  1.00  0.00     0.148 A 
HETATM   25  N   UNL     1     -41.470  57.470 -60.052  1.00  0.00    -0.282 N 
HETATM   26  C   UNL     1     -41.881  59.460 -58.527  1.00  0.00     0.061 C 
HETATM   27  H   UNL     1     -40.635  57.772 -60.544  1.00  0.00     0.189 HD
HETATM   28  N   UNL     1     -41.987  56.264 -60.349  1.00  0.00    -0.187 NA
HETATM   29  C   UNL     1     -43.122  59.991 -57.783  1.00  0.00     0.031 C 
ENDBRANCH   3  20
TORSDOF 6
ENDMDL
MODEL 4
REMARK VINA RESULT:      -7.3      2.774      3.515
REMARK  6 active torsions:
REMARK  status: ('A' for Active; 'I' for Inactive)
REMARK    1  A    between atoms: C_2  and  C_3 
REMARK    2  A    between atoms: C_3  and  O_4 
REMARK    3  A    between atoms: O_4  and  C_5 
REMARK    4  A    between atoms: C_8  and  C_9 
REMARK    5  A    between atoms: C_9  and  N_10 
REMARK       I    between atoms: N_10  and  C_11 
REMARK       I    between atoms: C_11  and  N_12 
REMARK    6  A    between atoms: N_12  and  C_13 
ROOT
HETATM    1  N   UNL     1     -42.463  58.337 -55.884  1.00  0.00    -0.339 N 
HETATM    2  C   UNL     1     -42.330  58.475 -57.238  1.00  0.00     0.316 C 
HETATM    3  N   UNL     1     -42.941  57.457 -57.926  1.00  0.00    -0.338 N 
HETATM    4  O   UNL     1     -41.700  59.378 -57.771  1.00  0.00    -0.247 OA
HETATM    5  H   UNL     1     -43.058  57.609 -55.522  1.00  0.00     0.164 HD
HETATM    6  H   UNL     1     -43.763  57.067 -57.491  1.00  0.00     0.164 HD
ENDROOT
BRANCH   1   7
HETATM    7  C   UNL     1     -41.951  59.340 -54.979  1.00  0.00     0.164 C 
BRANCH   7   8
HETATM    8  C   UNL     1     -41.695  58.779 -53.612  1.00  0.00    -0.021 A 
HETATM    9  C   UNL     1     -42.457  57.721 -53.124  1.00  0.00     0.128 A 
HETATM   10  N   UNL     1     -42.262  57.131 -51.921  1.00  0.00    -0.235 NA
HETATM   11  C   UNL     1     -41.248  57.611 -51.159  1.00  0.00     0.186 A 
HETATM   12  C   UNL     1     -40.438  58.675 -51.552  1.00  0.00     0.087 A 
HETATM   13  C   UNL     1     -40.670  59.264 -52.795  1.00  0.00     0.038 A 
HETATM   14 CL   UNL     1     -39.157  59.277 -50.568  1.00  0.00    -0.080 Cl
BRANCH  11  15
HETATM   15  O   UNL     1     -40.991  57.020 -49.938  1.00  0.00    -0.333 OA
BRANCH  15  16
HETATM   16  C   UNL     1     -41.452  55.671 -49.834  1.00  0.00     0.181 C 
BRANCH  16  17
HETATM   17  C   UNL     1     -40.239  54.748 -49.628  1.00  0.00     0.002 C 
HETATM   18  C   UNL     1     -40.160  53.712 -50.746  1.00  0.00     0.011 C 
HETATM   19  C   UNL     1     -40.286  54.055 -48.263  1.00  0.00     0.011 C 
ENDBRANCH  16  17
ENDBRANCH  15  16
ENDBRANCH  11  15
ENDBRANCH   7   8
ENDBRANCH   1   7
BRANCH   3  20
HETATM   20  C   UNL     1     -42.909  57.443 -59.392  1.00  0.00     0.090 C 
HETATM   21  C   UNL     1     -44.136  58.174 -60.009  1.00  0.00     0.067 C 
HETATM   22  C   UNL     1     -45.306  57.262 -60.118  1.00  0.00    -0.013 A 
HETATM   23  C   UNL     1     -45.217  55.895 -59.996  1.00  0.00     0.035 A 
HETATM   24  C   UNL     1     -46.663  57.502 -60.395  1.00  0.00     0.148 A 
HETATM   25  N   UNL     1     -46.470  55.403 -60.202  1.00  0.00    -0.282 N 
HETATM   26  C   UNL     1     -43.998  55.110 -59.694  1.00  0.00     0.061 C 
HETATM   27  H   UNL     1     -46.784  54.438 -60.202  1.00  0.00     0.189 HD
HETATM   28  N   UNL     1     -47.375  56.370 -60.436  1.00  0.00    -0.187 NA
HETATM   29  C   UNL     1     -42.754  55.993 -59.918  1.00  0.00     0.031 C 
ENDBRANCH   3  20
TORSDOF 6
ENDMDL
MODEL 5
REMARK VINA RESULT:      -7.3     15.195     16.841
REMARK  6 active torsions:
REMARK  status: ('A' for Active; 'I' for Inactive)
REMARK    1  A    between atoms: C_2  and  C_3 
REMARK    2  A    between atoms: C_3  and  O_4 
REMARK    3  A    between atoms: O_4  and  C_5 
REMARK    4  A    between atoms: C_8  and  C_9 
REMARK    5  A    between atoms: C_9  and  N_10 
REMARK       I    between atoms: N_10  and  C_11 
REMARK       I    between atoms: C_11  and  N_12 
REMARK    6  A    between atoms: N_12  and  C_13 
ROOT
HETATM    1  N   UNL     1     -37.875  41.070 -58.657  1.00  0.00    -0.339 N 
HETATM    2  C   UNL     1     -37.604  39.996 -59.458  1.00  0.00     0.316 C 
HETATM    3  N   UNL     1     -38.702  39.192 -59.639  1.00  0.00    -0.338 N 
HETATM    4  O   UNL     1     -36.499  39.755 -59.923  1.00  0.00    -0.247 OA
HETATM    5  H   UNL     1     -38.827  41.241 -58.373  1.00  0.00     0.164 HD
HETATM    6  H   UNL     1     -39.594  39.663 -59.634  1.00  0.00     0.164 HD
ENDROOT
BRANCH   1   7
HETATM    7  C   UNL     1     -36.873  42.077 -58.398  1.00  0.00     0.164 C 
BRANCH   7   8
HETATM    8  C   UNL     1     -36.151  41.825 -57.107  1.00  0.00    -0.021 A 
HETATM    9  C   UNL     1     -36.797  41.995 -55.886  1.00  0.00     0.128 A 
HETATM   10  N   UNL     1     -36.230  41.749 -54.682  1.00  0.00    -0.235 NA
HETATM   11  C   UNL     1     -34.951  41.300 -54.686  1.00  0.00     0.186 A 
HETATM   12  C   UNL     1     -34.214  41.111 -55.853  1.00  0.00     0.087 A 
HETATM   13  C   UNL     1     -34.826  41.379 -57.077  1.00  0.00     0.038 A 
HETATM   14 CL   UNL     1     -32.586  40.545 -55.841  1.00  0.00    -0.080 Cl
BRANCH  11  15
HETATM   15  O   UNL     1     -34.342  41.004 -53.482  1.00  0.00    -0.333 OA
BRANCH  15  16
HETATM   16  C   UNL     1     -35.006  41.552 -52.342  1.00  0.00     0.181 C 
BRANCH  16  17
HETATM   17  C   UNL     1     -34.159  41.265 -51.091  1.00  0.00     0.002 C 
HETATM   18  C   UNL     1     -32.750  40.831 -51.487  1.00  0.00     0.011 C 
HETATM   19  C   UNL     1     -34.812  40.205 -50.200  1.00  0.00     0.011 C 
ENDBRANCH  16  17
ENDBRANCH  15  16
ENDBRANCH  11  15
ENDBRANCH   7   8
ENDBRANCH   1   7
BRANCH   3  20
HETATM   20  C   UNL     1     -38.601  37.994 -60.478  1.00  0.00     0.090 C 
HETATM   21  C   UNL     1     -39.352  38.164 -61.830  1.00  0.00     0.067 C 
HETATM   22  C   UNL     1     -40.796  37.831 -61.689  1.00  0.00    -0.013 A 
HETATM   23  C   UNL     1     -41.318  37.161 -60.607  1.00  0.00     0.035 A 
HETATM   24  C   UNL     1     -41.896  38.035 -62.539  1.00  0.00     0.148 A 
HETATM   25  N   UNL     1     -42.646  36.998 -60.854  1.00  0.00    -0.282 N 
HETATM   26  C   UNL     1     -40.580  36.708 -59.405  1.00  0.00     0.061 C 
HETATM   27  H   UNL     1     -43.349  36.537 -60.284  1.00  0.00     0.189 HD
HETATM   28  N   UNL     1     -43.027  37.536 -62.027  1.00  0.00    -0.187 NA
HETATM   29  C   UNL     1     -39.066  36.740 -59.693  1.00  0.00     0.031 C 
ENDBRANCH   3  20
TORSDOF 6
ENDMDL
MODEL 6
REMARK VINA RESULT:      -6.9     15.080     17.299
REMARK  6 active torsions:
REMARK  status: ('A' for Active; 'I' for Inactive)
REMARK    1  A    between atoms: C_2  and  C_3 
REMARK    2  A    between atoms: C_3  and  O_4 
REMARK    3  A    between atoms: O_4  and  C_5 
REMARK    4  A    between atoms: C_8  and  C_9 
REMARK    5  A    between atoms: C_9  and  N_10 
REMARK       I    between atoms: N_10  and  C_11 
REMARK       I    between atoms: C_11  and  N_12 
REMARK    6  A    between atoms: N_12  and  C_13 
ROOT
HETATM    1  N   UNL     1     -36.661  40.241 -52.410  1.00  0.00    -0.339 N 
HETATM    2  C   UNL     1     -36.544  41.367 -53.177  1.00  0.00     0.316 C 
HETATM    3  N   UNL     1     -36.457  41.077 -54.515  1.00  0.00    -0.338 N 
HETATM    4  O   UNL     1     -36.480  42.499 -52.718  1.00  0.00    -0.247 OA
HETATM    5  H   UNL     1     -36.781  39.350 -52.864  1.00  0.00     0.164 HD
HETATM    6  H   UNL     1     -36.957  40.255 -54.819  1.00  0.00     0.164 HD
ENDROOT
BRANCH   1   7
HETATM    7  C   UNL     1     -36.836  40.329 -50.979  1.00  0.00     0.164 C 
BRANCH   7   8
HETATM    8  C   UNL     1     -35.648  39.789 -50.238  1.00  0.00    -0.021 A 
HETATM    9  C   UNL     1     -35.815  38.916 -49.167  1.00  0.00     0.128 A 
HETATM   10  N   UNL     1     -34.797  38.353 -48.475  1.00  0.00    -0.235 NA
HETATM   11  C   UNL     1     -33.539  38.667 -48.871  1.00  0.00     0.186 A 
HETATM   12  C   UNL     1     -33.266  39.541 -49.921  1.00  0.00     0.087 A 
HETATM   13  C   UNL     1     -34.339  40.108 -50.610  1.00  0.00     0.038 A 
HETATM   14 CL   UNL     1     -31.660  39.933 -50.408  1.00  0.00    -0.080 Cl
BRANCH  11  15
HETATM   15  O   UNL     1     -32.468  38.091 -48.215  1.00  0.00    -0.333 OA
BRANCH  15  16
HETATM   16  C   UNL     1     -32.574  38.117 -46.790  1.00  0.00     0.181 C 
BRANCH  16  17
HETATM   17  C   UNL     1     -31.252  38.642 -46.206  1.00  0.00     0.002 C 
HETATM   18  C   UNL     1     -31.422  38.994 -44.730  1.00  0.00     0.011 C 
HETATM   19  C   UNL     1     -30.734  39.853 -46.986  1.00  0.00     0.011 C 
ENDBRANCH  16  17
ENDBRANCH  15  16
ENDBRANCH  11  15
ENDBRANCH   7   8
ENDBRANCH   1   7
BRANCH   3  20
HETATM   20  C   UNL     1     -36.335  42.164 -55.492  1.00  0.00     0.090 C 
HETATM   21  C   UNL     1     -37.519  42.176 -56.502  1.00  0.00     0.067 C 
HETATM   22  C   UNL     1     -37.266  41.249 -57.639  1.00  0.00    -0.013 A 
HETATM   23  C   UNL     1     -36.031  40.713 -57.920  1.00  0.00     0.035 A 
HETATM   24  C   UNL     1     -38.102  40.758 -58.655  1.00  0.00     0.148 A 
HETATM   25  N   UNL     1     -36.179  39.964 -59.047  1.00  0.00    -0.282 N 
HETATM   26  C   UNL     1     -34.783  40.908 -57.146  1.00  0.00     0.061 C 
HETATM   27  H   UNL     1     -35.480  39.432 -59.555  1.00  0.00     0.189 HD
HETATM   28  N   UNL     1     -37.443  39.966 -59.509  1.00  0.00    -0.187 NA
HETATM   29  C   UNL     1     -34.955  42.110 -56.196  1.00  0.00     0.031 C 
ENDBRANCH   3  20
TORSDOF 6
ENDMDL
MODEL 7
REMARK VINA RESULT:      -6.9      3.118      3.880
REMARK  6 active torsions:
REMARK  status: ('A' for Active; 'I' for Inactive)
REMARK    1  A    between atoms: C_2  and  C_3 
REMARK    2  A    between atoms: C_3  and  O_4 
REMARK    3  A    between atoms: O_4  and  C_5 
REMARK    4  A    between atoms: C_8  and  C_9 
REMARK    5  A    between atoms: C_9  and  N_10 
REMARK       I    between atoms: N_10  and  C_11 
REMARK       I    between atoms: C_11  and  N_12 
REMARK    6  A    between atoms: N_12  and  C_13 
ROOT
HETATM    1  N   UNL     1     -41.293  59.297 -53.903  1.00  0.00    -0.339 N 
HETATM    2  C   UNL     1     -42.291  59.982 -54.540  1.00  0.00     0.316 C 
HETATM    3  N   UNL     1     -41.920  60.390 -55.797  1.00  0.00    -0.338 N 
HETATM    4  O   UNL     1     -43.372  60.239 -54.030  1.00  0.00    -0.247 OA
HETATM    5  H   UNL     1     -40.458  59.060 -54.415  1.00  0.00     0.164 HD
HETATM    6  H   UNL     1     -41.273  59.785 -56.280  1.00  0.00     0.164 HD
ENDROOT
BRANCH   1   7
HETATM    7  C   UNL     1     -41.503  58.720 -52.596  1.00  0.00     0.164 C 
BRANCH   7   8
HETATM    8  C   UNL     1     -41.284  57.236 -52.601  1.00  0.00    -0.021 A 
HETATM    9  C   UNL     1     -41.523  56.479 -51.457  1.00  0.00     0.128 A 
HETATM   10  N   UNL     1     -41.391  55.133 -51.391  1.00  0.00    -0.235 NA
HETATM   11  C   UNL     1     -41.007  54.498 -52.526  1.00  0.00     0.186 A 
HETATM   12  C   UNL     1     -40.731  55.166 -53.717  1.00  0.00     0.087 A 
HETATM   13  C   UNL     1     -40.872  56.553 -53.749  1.00  0.00     0.038 A 
HETATM   14 CL   UNL     1     -40.238  54.344 -55.149  1.00  0.00    -0.080 Cl
BRANCH  11  15
HETATM   15  O   UNL     1     -40.890  53.121 -52.515  1.00  0.00    -0.333 OA
BRANCH  15  16
HETATM   16  C   UNL     1     -39.940  52.624 -51.570  1.00  0.00     0.181 C 
BRANCH  16  17
HETATM   17  C   UNL     1     -39.297  51.349 -52.140  1.00  0.00     0.002 C 
HETATM   18  C   UNL     1     -39.823  51.067 -53.545  1.00  0.00     0.011 C 
HETATM   19  C   UNL     1     -39.538  50.142 -51.230  1.00  0.00     0.011 C 
ENDBRANCH  16  17
ENDBRANCH  15  16
ENDBRANCH  11  15
ENDBRANCH   7   8
ENDBRANCH   1   7
BRANCH   3  20
HETATM   20  C   UNL     1     -42.867  61.133 -56.634  1.00  0.00     0.090 C 
HETATM   21  C   UNL     1     -43.873  60.190 -57.354  1.00  0.00     0.067 C 
HETATM   22  C   UNL     1     -43.304  59.667 -58.626  1.00  0.00    -0.013 A 
HETATM   23  C   UNL     1     -42.188  60.195 -59.232  1.00  0.00     0.035 A 
HETATM   24  C   UNL     1     -43.721  58.642 -59.492  1.00  0.00     0.148 A 
HETATM   25  N   UNL     1     -42.003  59.496 -60.385  1.00  0.00    -0.282 N 
HETATM   26  C   UNL     1     -41.348  61.306 -58.727  1.00  0.00     0.061 C 
HETATM   27  H   UNL     1     -41.287  59.614 -61.094  1.00  0.00     0.189 HD
HETATM   28  N   UNL     1     -42.923  58.530 -60.560  1.00  0.00    -0.187 NA
HETATM   29  C   UNL     1     -42.110  62.060 -57.620  1.00  0.00     0.031 C 
ENDBRANCH   3  20
TORSDOF 6
ENDMDL
MODEL 8
REMARK VINA RESULT:      -6.9      7.972     11.138
REMARK  6 active torsions:
REMARK  status: ('A' for Active; 'I' for Inactive)
REMARK    1  A    between atoms: C_2  and  C_3 
REMARK    2  A    between atoms: C_3  and  O_4 
REMARK    3  A    between atoms: O_4  and  C_5 
REMARK    4  A    between atoms: C_8  and  C_9 
REMARK    5  A    between atoms: C_9  and  N_10 
REMARK       I    between atoms: N_10  and  C_11 
REMARK       I    between atoms: C_11  and  N_12 
REMARK    6  A    between atoms: N_12  and  C_13 
ROOT
HETATM    1  N   UNL     1     -44.406  60.343 -49.838  1.00  0.00    -0.339 N 
HETATM    2  C   UNL     1     -43.362  60.139 -50.696  1.00  0.00     0.316 C 
HETATM    3  N   UNL     1     -42.953  58.829 -50.713  1.00  0.00    -0.338 N 
HETATM    4  O   UNL     1     -42.825  61.030 -51.339  1.00  0.00    -0.247 OA
HETATM    5  H   UNL     1     -44.842  59.548 -49.399  1.00  0.00     0.164 HD
HETATM    6  H   UNL     1     -43.674  58.142 -50.552  1.00  0.00     0.164 HD
ENDROOT
BRANCH   1   7
HETATM    7  C   UNL     1     -45.032  61.639 -49.723  1.00  0.00     0.164 C 
BRANCH   7   8
HETATM    8  C   UNL     1     -45.065  62.118 -48.301  1.00  0.00    -0.021 A 
HETATM    9  C   UNL     1     -45.306  63.457 -48.008  1.00  0.00     0.128 A 
HETATM   10  N   UNL     1     -45.393  63.960 -46.754  1.00  0.00    -0.235 NA
HETATM   11  C   UNL     1     -45.241  63.085 -45.730  1.00  0.00     0.186 A 
HETATM   12  C   UNL     1     -44.983  61.729 -45.919  1.00  0.00     0.087 A 
HETATM   13  C   UNL     1     -44.894  61.244 -47.223  1.00  0.00     0.038 A 
HETATM   14 CL   UNL     1     -44.786  60.630 -44.605  1.00  0.00    -0.080 Cl
BRANCH  11  15
HETATM   15  O   UNL     1     -45.354  63.547 -44.433  1.00  0.00    -0.333 OA
BRANCH  15  16
HETATM   16  C   UNL     1     -44.321  64.455 -44.044  1.00  0.00     0.181 C 
BRANCH  16  17
HETATM   17  C   UNL     1     -43.858  64.098 -42.621  1.00  0.00     0.002 C 
HETATM   18  C   UNL     1     -42.941  62.878 -42.647  1.00  0.00     0.011 C 
HETATM   19  C   UNL     1     -45.047  63.851 -41.689  1.00  0.00     0.011 C 
ENDBRANCH  16  17
ENDBRANCH  15  16
ENDBRANCH  11  15
ENDBRANCH   7   8
ENDBRANCH   1   7
BRANCH   3  20
HETATM   20  C   UNL     1     -41.846  58.420 -51.584  1.00  0.00     0.090 C 
HETATM   21  C   UNL     1     -42.337  57.565 -52.788  1.00  0.00     0.067 C 
HETATM   22  C   UNL     1     -42.453  56.129 -52.417  1.00  0.00    -0.013 A 
HETATM   23  C   UNL     1     -41.898  55.592 -51.278  1.00  0.00     0.035 A 
HETATM   24  C   UNL     1     -43.046  55.034 -53.067  1.00  0.00     0.148 A 
HETATM   25  N   UNL     1     -42.168  54.258 -51.305  1.00  0.00    -0.282 N 
HETATM   26  C   UNL     1     -41.154  56.322 -50.226  1.00  0.00     0.061 C 
HETATM   27  H   UNL     1     -41.905  53.541 -50.637  1.00  0.00     0.189 HD
HETATM   28  N   UNL     1     -42.882  53.895 -52.386  1.00  0.00    -0.187 NA
HETATM   29  C   UNL     1     -40.741  57.708 -50.761  1.00  0.00     0.031 C 
ENDBRANCH   3  20
TORSDOF 6
ENDMDL
MODEL 9
REMARK VINA RESULT:      -6.9     15.297     18.725
REMARK  6 active torsions:
REMARK  status: ('A' for Active; 'I' for Inactive)
REMARK    1  A    between atoms: C_2  and  C_3 
REMARK    2  A    between atoms: C_3  and  O_4 
REMARK    3  A    between atoms: O_4  and  C_5 
REMARK    4  A    between atoms: C_8  and  C_9 
REMARK    5  A    between atoms: C_9  and  N_10 
REMARK       I    between atoms: N_10  and  C_11 
REMARK       I    between atoms: C_11  and  N_12 
REMARK    6  A    between atoms: N_12  and  C_13 
ROOT
HETATM    1  N   UNL     1     -34.838  41.663 -54.559  1.00  0.00    -0.339 N 
HETATM    2  C   UNL     1     -35.204  41.808 -53.250  1.00  0.00     0.316 C 
HETATM    3  N   UNL     1     -34.541  40.934 -52.426  1.00  0.00    -0.338 N 
HETATM    4  O   UNL     1     -36.056  42.596 -52.865  1.00  0.00    -0.247 OA
HETATM    5  H   UNL     1     -34.076  41.045 -54.789  1.00  0.00     0.164 HD
HETATM    6  H   UNL     1     -33.605  40.687 -52.711  1.00  0.00     0.164 HD
ENDROOT
BRANCH   1   7
HETATM    7  C   UNL     1     -35.368  42.535 -55.581  1.00  0.00     0.164 C 
BRANCH   7   8
HETATM    8  C   UNL     1     -36.245  41.794 -56.546  1.00  0.00    -0.021 A 
HETATM    9  C   UNL     1     -36.971  40.680 -56.135  1.00  0.00     0.128 A 
HETATM   10  N   UNL     1     -37.816  39.984 -56.931  1.00  0.00    -0.235 NA
HETATM   11  C   UNL     1     -37.957  40.420 -58.207  1.00  0.00     0.186 A 
HETATM   12  C   UNL     1     -37.265  41.516 -58.719  1.00  0.00     0.087 A 
HETATM   13  C   UNL     1     -36.398  42.208 -57.873  1.00  0.00     0.038 A 
HETATM   14 CL   UNL     1     -37.451  42.054 -60.345  1.00  0.00    -0.080 Cl
BRANCH  11  15
HETATM   15  O   UNL     1     -38.833  39.760 -59.047  1.00  0.00    -0.333 OA
BRANCH  15  16
HETATM   16  C   UNL     1     -38.611  38.351 -59.132  1.00  0.00     0.181 C 
BRANCH  16  17
HETATM   17  C   UNL     1     -38.947  37.882 -60.557  1.00  0.00     0.002 C 
HETATM   18  C   UNL     1     -38.192  38.718 -61.587  1.00  0.00     0.011 C 
HETATM   19  C   UNL     1     -40.453  37.937 -60.827  1.00  0.00     0.011 C 
ENDBRANCH  16  17
ENDBRANCH  15  16
ENDBRANCH  11  15
ENDBRANCH   7   8
ENDBRANCH   1   7
BRANCH   3  20
HETATM   20  C   UNL     1     -34.800  40.950 -50.982  1.00  0.00     0.090 C 
HETATM   21  C   UNL     1     -33.503  40.719 -50.155  1.00  0.00     0.067 C 
HETATM   22  C   UNL     1     -33.220  39.267 -49.993  1.00  0.00    -0.013 A 
HETATM   23  C   UNL     1     -34.142  38.280 -50.256  1.00  0.00     0.035 A 
HETATM   24  C   UNL     1     -32.086  38.575 -49.534  1.00  0.00     0.148 A 
HETATM   25  N   UNL     1     -33.543  37.097 -49.949  1.00  0.00    -0.282 N 
HETATM   26  C   UNL     1     -35.515  38.467 -50.776  1.00  0.00     0.061 C 
HETATM   27  H   UNL     1     -33.923  36.157 -50.004  1.00  0.00     0.189 HD
HETATM   28  N   UNL     1     -32.279  37.251 -49.516  1.00  0.00    -0.187 NA
HETATM   29  C   UNL     1     -35.924  39.946 -50.620  1.00  0.00     0.031 C 
ENDBRANCH   3  20
TORSDOF 6
ENDMDL
MODEL 10
REMARK VINA RESULT:      -6.7      3.168      4.124
REMARK  6 active torsions:
REMARK  status: ('A' for Active; 'I' for Inactive)
REMARK    1  A    between atoms: C_2  and  C_3 
REMARK    2  A    between atoms: C_3  and  O_4 
REMARK    3  A    between atoms: O_4  and  C_5 
REMARK    4  A    between atoms: C_8  and  C_9 
REMARK    5  A    between atoms: C_9  and  N_10 
REMARK       I    between atoms: N_10  and  C_11 
REMARK       I    between atoms: C_11  and  N_12 
REMARK    6  A    between atoms: N_12  and  C_13 
ROOT
HETATM    1  N   UNL     1     -42.241  56.167 -56.608  1.00  0.00    -0.339 N 
HETATM    2  C   UNL     1     -43.049  57.270 -56.649  1.00  0.00     0.316 C 
HETATM    3  N   UNL     1     -42.364  58.402 -57.013  1.00  0.00    -0.338 N 
HETATM    4  O   UNL     1     -44.235  57.255 -56.352  1.00  0.00    -0.247 OA
HETATM    5  H   UNL     1     -41.292  56.243 -56.938  1.00  0.00     0.164 HD
HETATM    6  H   UNL     1     -41.592  58.262 -57.648  1.00  0.00     0.164 HD
ENDROOT
BRANCH   1   7
HETATM    7  C   UNL     1     -42.780  54.860 -56.314  1.00  0.00     0.164 C 
BRANCH   7   8
HETATM    8  C   UNL     1     -42.356  54.374 -54.959  1.00  0.00    -0.021 A 
HETATM    9  C   UNL     1     -41.091  53.829 -54.763  1.00  0.00     0.128 A 
HETATM   10  N   UNL     1     -40.618  53.408 -53.567  1.00  0.00    -0.235 NA
HETATM   11  C   UNL     1     -41.444  53.542 -52.499  1.00  0.00     0.186 A 
HETATM   12  C   UNL     1     -42.733  54.062 -52.594  1.00  0.00     0.087 A 
HETATM   13  C   UNL     1     -43.191  54.482 -53.843  1.00  0.00     0.038 A 
HETATM   14 CL   UNL     1     -43.771  54.220 -51.228  1.00  0.00    -0.080 Cl
BRANCH  11  15
HETATM   15  O   UNL     1     -40.992  53.155 -51.252  1.00  0.00    -0.333 OA
BRANCH  15  16
HETATM   16  C   UNL     1     -39.756  53.760 -50.865  1.00  0.00     0.181 C 
BRANCH  16  17
HETATM   17  C   UNL     1     -39.977  54.546 -49.562  1.00  0.00     0.002 C 
HETATM   18  C   UNL     1     -40.559  53.638 -48.482  1.00  0.00     0.011 C 
HETATM   19  C   UNL     1     -40.885  55.759 -49.784  1.00  0.00     0.011 C 
ENDBRANCH  16  17
ENDBRANCH  15  16
ENDBRANCH  11  15
ENDBRANCH   7   8
ENDBRANCH   1   7
BRANCH   3  20
HETATM   20  C   UNL     1     -43.071  59.682 -57.119  1.00  0.00     0.090 C 
HETATM   21  C   UNL     1     -43.932  59.768 -58.412  1.00  0.00     0.067 C 
HETATM   22  C   UNL     1     -43.118  60.228 -59.570  1.00  0.00    -0.013 A 
HETATM   23  C   UNL     1     -41.875  60.803 -59.443  1.00  0.00     0.035 A 
HETATM   24  C   UNL     1     -43.377  60.252 -60.951  1.00  0.00     0.148 A 
HETATM   25  N   UNL     1     -41.470  61.134 -60.700  1.00  0.00    -0.282 N 
HETATM   26  C   UNL     1     -41.122  61.016 -58.186  1.00  0.00     0.061 C 
HETATM   27  H   UNL     1     -40.610  61.587 -60.994  1.00  0.00     0.189 HD
HETATM   28  N   UNL     1     -42.368  60.794 -61.642  1.00  0.00    -0.187 NA
HETATM   29  C   UNL     1     -42.077  60.865 -56.986  1.00  0.00     0.031 C 
ENDBRANCH   3  20
TORSDOF 6
ENDMDL
