MODEL 1
REMARK VINA RESULT:      -7.6      0.000      0.000
REMARK  8 active torsions:
REMARK  status: ('A' for Active; 'I' for Inactive)
REMARK    1  A    between atoms: C_3  and  C_4 
REMARK    2  A    between atoms: C_4  and  C_5 
REMARK       I    between atoms: C_5  and  N_6 
REMARK    3  A    between atoms: N_6  and  C_7 
REMARK    4  A    between atoms: C_14  and  N_15 
REMARK       I    between atoms: N_15  and  C_16 
REMARK    5  A    between atoms: C_16  and  C_17 
REMARK    6  A    between atoms: C_26  and  C_27 
REMARK    7  A    between atoms: C_27  and  O_28 
REMARK    8  A    between atoms: C_30  and  O_31 
ROOT
HETATM    1  C   UNL     1     -40.854  58.440 -50.508  1.00  0.00     0.216 C 
HETATM    2  C   UNL     1     -40.966  57.024 -50.144  1.00  0.00    -0.098 C 
HETATM    3  C   UNL     1     -41.056  55.867 -49.833  1.00  0.00     0.014 C 
ENDROOT
BRANCH   1   4
HETATM    4  N   UNL     1     -41.395  58.674 -51.820  1.00  0.00    -0.351 N 
HETATM    5  C   UNL     1     -40.612  59.031 -52.884  1.00  0.00     0.219 C 
HETATM    6  O   UNL     1     -39.392  59.157 -52.824  1.00  0.00    -0.274 OA
HETATM    7  H   UNL     1     -42.405  58.817 -51.881  1.00  0.00     0.163 HD
BRANCH   5   8
HETATM    8  C   UNL     1     -41.359  59.233 -54.192  1.00  0.00     0.114 C 
BRANCH   8   9
HETATM    9  C   UNL     1     -42.839  58.806 -54.090  1.00  0.00     0.056 C 
HETATM   10  C   UNL     1     -43.914  59.551 -55.034  1.00  0.00    -0.030 C 
HETATM   11  C   UNL     1     -45.114  59.890 -54.080  1.00  0.00     0.016 C 
HETATM   12  C   UNL     1     -44.514  58.673 -56.227  1.00  0.00     0.012 C 
HETATM   13  C   UNL     1     -43.453  60.928 -55.588  1.00  0.00     0.013 C 
HETATM   14  C   UNL     1     -45.000  57.285 -55.736  1.00  0.00     0.055 C 
HETATM   15  C   UNL     1     -43.659  58.640 -57.562  1.00  0.00     0.008 C 
HETATM   16  C   UNL     1     -43.960  56.645 -54.898  1.00  0.00     0.012 A 
HETATM   17  C   UNL     1     -42.980  57.299 -54.184  1.00  0.00     0.056 A 
HETATM   18  S   UNL     1     -43.817  54.958 -54.714  1.00  0.00    -0.055 SA
HETATM   19  N   UNL     1     -42.067  56.459 -53.571  1.00  0.00    -0.227 NA
HETATM   20  C   UNL     1     -42.405  55.213 -53.789  1.00  0.00     0.174 A 
HETATM   21  C   UNL     1     -44.503  58.006 -58.707  1.00  0.00     0.020 C 
HETATM   22  C   UNL     1     -43.318  60.099 -57.981  1.00  0.00     0.128 C 
HETATM   23  C   UNL     1     -42.618  60.874 -56.867  1.00  0.00     0.033 C 
BRANCH  20  24
HETATM   24  N   UNL     1     -41.776  54.064 -53.419  1.00  0.00    -0.301 N 
HETATM   25  C   UNL     1     -40.795  53.469 -54.179  1.00  0.00     0.264 C 
HETATM   26  O   UNL     1     -40.362  53.926 -55.234  1.00  0.00    -0.267 OA
HETATM   27  H   UNL     1     -42.104  53.604 -52.583  1.00  0.00     0.171 HD
BRANCH  25  28
HETATM   28  C   UNL     1     -40.312  52.196 -53.643  1.00  0.00     0.072 A 
HETATM   29  S   UNL     1     -39.849  52.002 -52.000  1.00  0.00    -0.097 SA
HETATM   30  C   UNL     1     -39.484  50.348 -52.221  1.00  0.00     0.050 A 
HETATM   31  C   UNL     1     -39.701  49.941 -53.518  1.00  0.00     0.009 A 
HETATM   32  C   UNL     1     -40.174  51.006 -54.337  1.00  0.00     0.025 A 
ENDBRANCH  25  28
ENDBRANCH  20  24
BRANCH  15  33
HETATM   33  C   UNL     1     -42.360  57.807 -57.452  1.00  0.00     0.176 C 
BRANCH  33  34
HETATM   34  O   UNL     1     -42.491  56.567 -58.142  1.00  0.00    -0.400 OA
HETATM   35  H   UNL     1     -41.603  56.170 -58.186  1.00  0.00     0.209 HD
ENDBRANCH  33  34
ENDBRANCH  15  33
BRANCH  22  36
HETATM   36  O   UNL     1     -44.510  60.819 -58.316  1.00  0.00    -0.395 OA
HETATM   37  H   UNL     1     -44.239  61.585 -58.852  1.00  0.00     0.210 HD
ENDBRANCH  22  36
ENDBRANCH   8   9
ENDBRANCH   5   8
ENDBRANCH   1   4
TORSDOF 8
ENDMDL
MODEL 2
REMARK VINA RESULT:      -7.5      1.806      1.994
REMARK  8 active torsions:
REMARK  status: ('A' for Active; 'I' for Inactive)
REMARK    1  A    between atoms: C_3  and  C_4 
REMARK    2  A    between atoms: C_4  and  C_5 
REMARK       I    between atoms: C_5  and  N_6 
REMARK    3  A    between atoms: N_6  and  C_7 
REMARK    4  A    between atoms: C_14  and  N_15 
REMARK       I    between atoms: N_15  and  C_16 
REMARK    5  A    between atoms: C_16  and  C_17 
REMARK    6  A    between atoms: C_26  and  C_27 
REMARK    7  A    between atoms: C_27  and  O_28 
REMARK    8  A    between atoms: C_30  and  O_31 
ROOT
HETATM    1  C   UNL     1     -41.514  59.327 -51.361  1.00  0.00     0.216 C 
HETATM    2  C   UNL     1     -40.124  59.446 -50.910  1.00  0.00    -0.098 C 
HETATM    3  C   UNL     1     -38.990  59.540 -50.528  1.00  0.00     0.014 C 
ENDROOT
BRANCH   1   4
HETATM    4  N   UNL     1     -41.576  59.199 -52.793  1.00  0.00    -0.351 N 
HETATM    5  C   UNL     1     -42.091  60.179 -53.597  1.00  0.00     0.219 C 
HETATM    6  O   UNL     1     -42.515  61.254 -53.180  1.00  0.00    -0.274 OA
HETATM    7  H   UNL     1     -41.465  58.257 -53.174  1.00  0.00     0.163 HD
BRANCH   5   8
HETATM    8  C   UNL     1     -42.071  59.867 -55.085  1.00  0.00     0.114 C 
BRANCH   8   9
HETATM    9  C   UNL     1     -43.362  59.159 -55.548  1.00  0.00     0.056 C 
HETATM   10  C   UNL     1     -44.214  59.834 -56.741  1.00  0.00    -0.030 C 
HETATM   11  C   UNL     1     -45.702  59.783 -56.244  1.00  0.00     0.016 C 
HETATM   12  C   UNL     1     -44.174  59.065 -58.141  1.00  0.00     0.012 C 
HETATM   13  C   UNL     1     -43.930  61.344 -56.972  1.00  0.00     0.013 C 
HETATM   14  C   UNL     1     -44.458  57.549 -57.977  1.00  0.00     0.055 C 
HETATM   15  C   UNL     1     -42.948  59.410 -59.087  1.00  0.00     0.008 C 
HETATM   16  C   UNL     1     -43.628  56.987 -56.887  1.00  0.00     0.012 A 
HETATM   17  C   UNL     1     -43.112  57.689 -55.819  1.00  0.00     0.056 A 
HETATM   18  S   UNL     1     -43.165  55.350 -56.814  1.00  0.00    -0.055 SA
HETATM   19  N   UNL     1     -42.279  56.945 -55.000  1.00  0.00    -0.227 NA
HETATM   20  C   UNL     1     -42.230  55.711 -55.433  1.00  0.00     0.174 A 
HETATM   21  C   UNL     1     -43.204  58.824 -60.506  1.00  0.00     0.020 C 
HETATM   22  C   UNL     1     -42.838  60.956 -59.227  1.00  0.00     0.128 C 
HETATM   23  C   UNL     1     -42.737  61.656 -57.875  1.00  0.00     0.033 C 
BRANCH  20  24
HETATM   24  N   UNL     1     -41.508  54.655 -54.968  1.00  0.00    -0.301 N 
HETATM   25  C   UNL     1     -41.870  53.932 -53.854  1.00  0.00     0.264 C 
HETATM   26  O   UNL     1     -42.888  54.135 -53.196  1.00  0.00    -0.267 OA
HETATM   27  H   UNL     1     -40.635  54.451 -55.431  1.00  0.00     0.171 HD
BRANCH  25  28
HETATM   28  C   UNL     1     -40.910  52.894 -53.476  1.00  0.00     0.072 A 
HETATM   29  S   UNL     1     -40.207  52.814 -51.910  1.00  0.00    -0.097 SA
HETATM   30  C   UNL     1     -39.320  51.408 -52.299  1.00  0.00     0.050 A 
HETATM   31  C   UNL     1     -39.541  51.000 -53.595  1.00  0.00     0.009 A 
HETATM   32  C   UNL     1     -40.455  51.859 -54.273  1.00  0.00     0.025 A 
ENDBRANCH  25  28
ENDBRANCH  20  24
BRANCH  15  33
HETATM   33  C   UNL     1     -41.600  58.828 -58.600  1.00  0.00     0.176 C 
BRANCH  33  34
HETATM   34  O   UNL     1     -41.274  57.637 -59.312  1.00  0.00    -0.400 OA
HETATM   35  H   UNL     1     -40.805  57.053 -58.690  1.00  0.00     0.209 HD
ENDBRANCH  33  34
ENDBRANCH  15  33
BRANCH  22  36
HETATM   36  O   UNL     1     -43.988  61.485 -59.896  1.00  0.00    -0.395 OA
HETATM   37  H   UNL     1     -43.899  61.259 -60.838  1.00  0.00     0.210 HD
ENDBRANCH  22  36
ENDBRANCH   8   9
ENDBRANCH   5   8
ENDBRANCH   1   4
TORSDOF 8
ENDMDL
MODEL 3
REMARK VINA RESULT:      -7.5      3.089      6.516
REMARK  8 active torsions:
REMARK  status: ('A' for Active; 'I' for Inactive)
REMARK    1  A    between atoms: C_3  and  C_4 
REMARK    2  A    between atoms: C_4  and  C_5 
REMARK       I    between atoms: C_5  and  N_6 
REMARK    3  A    between atoms: N_6  and  C_7 
REMARK    4  A    between atoms: C_14  and  N_15 
REMARK       I    between atoms: N_15  and  C_16 
REMARK    5  A    between atoms: C_16  and  C_17 
REMARK    6  A    between atoms: C_26  and  C_27 
REMARK    7  A    between atoms: C_27  and  O_28 
REMARK    8  A    between atoms: C_30  and  O_31 
ROOT
HETATM    1  C   UNL     1     -40.367  54.777 -54.917  1.00  0.00     0.216 C 
HETATM    2  C   UNL     1     -40.261  53.347 -54.610  1.00  0.00    -0.098 C 
HETATM    3  C   UNL     1     -40.168  52.179 -54.346  1.00  0.00     0.014 C 
ENDROOT
BRANCH   1   4
HETATM    4  N   UNL     1     -41.321  55.003 -55.971  1.00  0.00    -0.351 N 
HETATM    5  C   UNL     1     -42.672  54.940 -55.764  1.00  0.00     0.219 C 
HETATM    6  O   UNL     1     -43.188  54.715 -54.672  1.00  0.00    -0.274 OA
HETATM    7  H   UNL     1     -40.966  54.958 -56.928  1.00  0.00     0.163 HD
BRANCH   5   8
HETATM    8  C   UNL     1     -43.523  55.209 -56.994  1.00  0.00     0.114 C 
BRANCH   8   9
HETATM    9  C   UNL     1     -42.925  56.319 -57.885  1.00  0.00     0.056 C 
HETATM   10  C   UNL     1     -43.281  56.307 -59.458  1.00  0.00    -0.030 C 
HETATM   11  C   UNL     1     -41.907  56.546 -60.179  1.00  0.00     0.016 C 
HETATM   12  C   UNL     1     -44.263  57.466 -59.954  1.00  0.00     0.012 C 
HETATM   13  C   UNL     1     -43.778  54.941 -60.005  1.00  0.00     0.013 C 
HETATM   14  C   UNL     1     -43.815  58.861 -59.446  1.00  0.00     0.055 C 
HETATM   15  C   UNL     1     -45.815  57.174 -59.802  1.00  0.00     0.008 C 
HETATM   16  C   UNL     1     -43.529  58.810 -57.993  1.00  0.00     0.012 A 
HETATM   17  C   UNL     1     -43.160  57.690 -57.281  1.00  0.00     0.056 A 
HETATM   18  S   UNL     1     -43.642  60.167 -56.970  1.00  0.00    -0.055 SA
HETATM   19  N   UNL     1     -43.058  57.893 -55.915  1.00  0.00    -0.227 NA
HETATM   20  C   UNL     1     -43.297  59.151 -55.642  1.00  0.00     0.174 A 
HETATM   21  C   UNL     1     -46.627  58.244 -60.589  1.00  0.00     0.020 C 
HETATM   22  C   UNL     1     -46.131  55.786 -60.430  1.00  0.00     0.128 C 
HETATM   23  C   UNL     1     -45.273  54.672 -59.837  1.00  0.00     0.033 C 
BRANCH  20  24
HETATM   24  N   UNL     1     -43.351  59.784 -54.439  1.00  0.00    -0.301 N 
HETATM   25  C   UNL     1     -42.242  59.987 -53.650  1.00  0.00     0.264 C 
HETATM   26  O   UNL     1     -41.099  59.660 -53.960  1.00  0.00    -0.267 OA
HETATM   27  H   UNL     1     -44.261  60.048 -54.094  1.00  0.00     0.171 HD
BRANCH  25  28
HETATM   28  C   UNL     1     -42.533  60.610 -52.357  1.00  0.00     0.072 A 
HETATM   29  S   UNL     1     -43.703  61.855 -52.174  1.00  0.00    -0.097 SA
HETATM   30  C   UNL     1     -43.438  61.959 -50.490  1.00  0.00     0.050 A 
HETATM   31  C   UNL     1     -42.474  61.072 -50.064  1.00  0.00     0.009 A 
HETATM   32  C   UNL     1     -41.951  60.298 -51.140  1.00  0.00     0.025 A 
ENDBRANCH  25  28
ENDBRANCH  20  24
BRANCH  15  33
HETATM   33  C   UNL     1     -46.319  57.218 -58.340  1.00  0.00     0.176 C 
BRANCH  33  34
HETATM   34  O   UNL     1     -47.104  58.384 -58.108  1.00  0.00    -0.400 OA
HETATM   35  H   UNL     1     -46.785  59.069 -58.723  1.00  0.00     0.209 HD
ENDBRANCH  33  34
ENDBRANCH  15  33
BRANCH  22  36
HETATM   36  O   UNL     1     -45.889  55.803 -61.842  1.00  0.00    -0.395 OA
HETATM   37  H   UNL     1     -44.980  55.486 -61.979  1.00  0.00     0.210 HD
ENDBRANCH  22  36
ENDBRANCH   8   9
ENDBRANCH   5   8
ENDBRANCH   1   4
TORSDOF 8
ENDMDL
MODEL 4
REMARK VINA RESULT:      -7.5      2.866      5.242
REMARK  8 active torsions:
REMARK  status: ('A' for Active; 'I' for Inactive)
REMARK    1  A    between atoms: C_3  and  C_4 
REMARK    2  A    between atoms: C_4  and  C_5 
REMARK       I    between atoms: C_5  and  N_6 
REMARK    3  A    between atoms: N_6  and  C_7 
REMARK    4  A    between atoms: C_14  and  N_15 
REMARK       I    between atoms: N_15  and  C_16 
REMARK    5  A    between atoms: C_16  and  C_17 
REMARK    6  A    between atoms: C_26  and  C_27 
REMARK    7  A    between atoms: C_27  and  O_28 
REMARK    8  A    between atoms: C_30  and  O_31 
ROOT
HETATM    1  C   UNL     1     -42.593  58.146 -58.087  1.00  0.00     0.216 C 
HETATM    2  C   UNL     1     -42.951  56.845 -58.663  1.00  0.00    -0.098 C 
HETATM    3  C   UNL     1     -43.235  55.782 -59.144  1.00  0.00     0.014 C 
ENDROOT
BRANCH   1   4
HETATM    4  N   UNL     1     -43.066  58.251 -56.732  1.00  0.00    -0.351 N 
HETATM    5  C   UNL     1     -44.141  59.023 -56.386  1.00  0.00     0.219 C 
HETATM    6  O   UNL     1     -44.808  59.667 -57.192  1.00  0.00    -0.274 OA
HETATM    7  H   UNL     1     -42.426  57.940 -55.998  1.00  0.00     0.163 HD
BRANCH   5   8
HETATM    8  C   UNL     1     -44.494  59.009 -54.908  1.00  0.00     0.114 C 
BRANCH   8   9
HETATM    9  C   UNL     1     -43.441  59.741 -54.050  1.00  0.00     0.056 C 
HETATM   10  C   UNL     1     -43.928  60.983 -53.143  1.00  0.00    -0.030 C 
HETATM   11  C   UNL     1     -42.859  62.105 -53.398  1.00  0.00     0.016 C 
HETATM   12  C   UNL     1     -43.947  60.723 -51.567  1.00  0.00     0.012 C 
HETATM   13  C   UNL     1     -45.276  61.621 -53.578  1.00  0.00     0.013 C 
HETATM   14  C   UNL     1     -42.622  60.092 -51.067  1.00  0.00     0.055 C 
HETATM   15  C   UNL     1     -45.261  60.044 -50.992  1.00  0.00     0.008 C 
HETATM   16  C   UNL     1     -42.245  58.945 -51.925  1.00  0.00     0.012 A 
HETATM   17  C   UNL     1     -42.620  58.759 -53.238  1.00  0.00     0.056 A 
HETATM   18  S   UNL     1     -41.285  57.648 -51.381  1.00  0.00    -0.055 SA
HETATM   19  N   UNL     1     -42.221  57.548 -53.776  1.00  0.00    -0.227 NA
HETATM   20  C   UNL     1     -41.523  56.885 -52.889  1.00  0.00     0.174 A 
HETATM   21  C   UNL     1     -45.256  60.131 -49.438  1.00  0.00     0.020 C 
HETATM   22  C   UNL     1     -46.502  60.830 -51.504  1.00  0.00     0.128 C 
HETATM   23  C   UNL     1     -46.530  60.943 -53.025  1.00  0.00     0.033 C 
BRANCH  20  24
HETATM   24  N   UNL     1     -40.976  55.641 -52.967  1.00  0.00    -0.301 N 
HETATM   25  C   UNL     1     -41.675  54.495 -52.664  1.00  0.00     0.264 C 
HETATM   26  O   UNL     1     -42.859  54.471 -52.335  1.00  0.00    -0.267 OA
HETATM   27  H   UNL     1     -39.994  55.579 -53.191  1.00  0.00     0.171 HD
BRANCH  25  28
HETATM   28  C   UNL     1     -40.876  53.271 -52.729  1.00  0.00     0.072 A 
HETATM   29  S   UNL     1     -40.113  52.592 -51.346  1.00  0.00    -0.097 SA
HETATM   30  C   UNL     1     -39.485  51.282 -52.244  1.00  0.00     0.050 A 
HETATM   31  C   UNL     1     -39.837  51.352 -53.573  1.00  0.00     0.009 A 
HETATM   32  C   UNL     1     -40.635  52.499 -53.852  1.00  0.00     0.025 A 
ENDBRANCH  25  28
ENDBRANCH  20  24
BRANCH  15  33
HETATM   33  C   UNL     1     -45.400  58.546 -51.355  1.00  0.00     0.176 C 
BRANCH  33  34
HETATM   34  O   UNL     1     -45.110  57.722 -50.229  1.00  0.00    -0.400 OA
HETATM   35  H   UNL     1     -44.347  58.121 -49.774  1.00  0.00     0.209 HD
ENDBRANCH  33  34
ENDBRANCH  15  33
BRANCH  22  36
HETATM   36  O   UNL     1     -46.508  62.162 -50.978  1.00  0.00    -0.395 OA
HETATM   37  H   UNL     1     -47.438  62.439 -50.911  1.00  0.00     0.210 HD
ENDBRANCH  22  36
ENDBRANCH   8   9
ENDBRANCH   5   8
ENDBRANCH   1   4
TORSDOF 8
ENDMDL
MODEL 5
REMARK VINA RESULT:      -7.4      3.205      7.110
REMARK  8 active torsions:
REMARK  status: ('A' for Active; 'I' for Inactive)
REMARK    1  A    between atoms: C_3  and  C_4 
REMARK    2  A    between atoms: C_4  and  C_5 
REMARK       I    between atoms: C_5  and  N_6 
REMARK    3  A    between atoms: N_6  and  C_7 
REMARK    4  A    between atoms: C_14  and  N_15 
REMARK       I    between atoms: N_15  and  C_16 
REMARK    5  A    between atoms: C_16  and  C_17 
REMARK    6  A    between atoms: C_26  and  C_27 
REMARK    7  A    between atoms: C_27  and  O_28 
REMARK    8  A    between atoms: C_30  and  O_31 
ROOT
HETATM    1  C   UNL     1     -43.940  61.381 -50.831  1.00  0.00     0.216 C 
HETATM    2  C   UNL     1     -44.371  61.379 -49.430  1.00  0.00    -0.098 C 
HETATM    3  C   UNL     1     -44.729  61.391 -48.283  1.00  0.00     0.014 C 
ENDROOT
BRANCH   1   4
HETATM    4  N   UNL     1     -43.709  60.038 -51.295  1.00  0.00    -0.351 N 
HETATM    5  C   UNL     1     -44.523  59.426 -52.208  1.00  0.00     0.219 C 
HETATM    6  O   UNL     1     -45.496  59.967 -52.729  1.00  0.00    -0.274 OA
HETATM    7  H   UNL     1     -43.074  59.464 -50.737  1.00  0.00     0.163 HD
BRANCH   5   8
HETATM    8  C   UNL     1     -44.120  58.009 -52.580  1.00  0.00     0.114 C 
BRANCH   8   9
HETATM    9  C   UNL     1     -42.780  57.965 -53.345  1.00  0.00     0.056 C 
HETATM   10  C   UNL     1     -41.498  57.330 -52.600  1.00  0.00    -0.030 C 
HETATM   11  C   UNL     1     -40.334  58.346 -52.876  1.00  0.00     0.016 C 
HETATM   12  C   UNL     1     -41.008  55.914 -53.154  1.00  0.00     0.012 C 
HETATM   13  C   UNL     1     -41.606  57.270 -51.052  1.00  0.00     0.013 C 
HETATM   14  C   UNL     1     -40.873  55.911 -54.699  1.00  0.00     0.055 C 
HETATM   15  C   UNL     1     -41.741  54.642 -52.552  1.00  0.00     0.008 C 
HETATM   16  C   UNL     1     -42.090  56.482 -55.321  1.00  0.00     0.012 A 
HETATM   17  C   UNL     1     -42.960  57.371 -54.728  1.00  0.00     0.056 A 
HETATM   18  S   UNL     1     -42.608  56.088 -56.895  1.00  0.00    -0.055 SA
HETATM   19  N   UNL     1     -44.079  57.664 -55.489  1.00  0.00    -0.227 NA
HETATM   20  C   UNL     1     -44.001  57.041 -56.638  1.00  0.00     0.174 A 
HETATM   21  C   UNL     1     -40.965  53.354 -52.954  1.00  0.00     0.020 C 
HETATM   22  C   UNL     1     -41.725  54.737 -50.999  1.00  0.00     0.128 C 
HETATM   23  C   UNL     1     -42.328  56.044 -50.492  1.00  0.00     0.033 C 
BRANCH  20  24
HETATM   24  N   UNL     1     -44.889  57.001 -57.668  1.00  0.00    -0.301 N 
HETATM   25  C   UNL     1     -44.786  57.809 -58.777  1.00  0.00     0.264 C 
HETATM   26  O   UNL     1     -43.874  58.610 -58.970  1.00  0.00    -0.267 OA
HETATM   27  H   UNL     1     -45.691  56.398 -57.566  1.00  0.00     0.171 HD
BRANCH  25  28
HETATM   28  C   UNL     1     -45.892  57.669 -59.726  1.00  0.00     0.072 A 
HETATM   29  S   UNL     1     -46.744  59.022 -60.355  1.00  0.00    -0.097 SA
HETATM   30  C   UNL     1     -47.750  58.034 -61.319  1.00  0.00     0.050 A 
HETATM   31  C   UNL     1     -47.456  56.697 -61.169  1.00  0.00     0.009 A 
HETATM   32  C   UNL     1     -46.388  56.488 -60.248  1.00  0.00     0.025 A 
ENDBRANCH  25  28
ENDBRANCH  20  24
BRANCH  15  33
HETATM   33  C   UNL     1     -43.194  54.462 -53.054  1.00  0.00     0.176 C 
BRANCH  33  34
HETATM   34  O   UNL     1     -44.020  53.916 -52.029  1.00  0.00    -0.400 OA
HETATM   35  H   UNL     1     -44.935  54.183 -52.229  1.00  0.00     0.209 HD
ENDBRANCH  33  34
ENDBRANCH  15  33
BRANCH  22  36
HETATM   36  O   UNL     1     -40.383  54.666 -50.503  1.00  0.00    -0.395 OA
HETATM   37  H   UNL     1     -40.229  53.746 -50.228  1.00  0.00     0.210 HD
ENDBRANCH  22  36
ENDBRANCH   8   9
ENDBRANCH   5   8
ENDBRANCH   1   4
TORSDOF 8
ENDMDL
MODEL 6
REMARK VINA RESULT:      -7.1      1.619      2.040
REMARK  8 active torsions:
REMARK  status: ('A' for Active; 'I' for Inactive)
REMARK    1  A    between atoms: C_3  and  C_4 
REMARK    2  A    between atoms: C_4  and  C_5 
REMARK       I    between atoms: C_5  and  N_6 
REMARK    3  A    between atoms: N_6  and  C_7 
REMARK    4  A    between atoms: C_14  and  N_15 
REMARK       I    between atoms: N_15  and  C_16 
REMARK    5  A    between atoms: C_16  and  C_17 
REMARK    6  A    between atoms: C_26  and  C_27 
REMARK    7  A    between atoms: C_27  and  O_28 
REMARK    8  A    between atoms: C_30  and  O_31 
ROOT
HETATM    1  C   UNL     1     -42.484  61.307 -50.210  1.00  0.00     0.216 C 
HETATM    2  C   UNL     1     -42.868  62.710 -50.400  1.00  0.00    -0.098 C 
HETATM    3  C   UNL     1     -43.177  63.861 -50.544  1.00  0.00     0.014 C 
ENDROOT
BRANCH   1   4
HETATM    4  N   UNL     1     -42.529  60.592 -51.459  1.00  0.00    -0.351 N 
HETATM    5  C   UNL     1     -41.470  59.864 -51.927  1.00  0.00     0.219 C 
HETATM    6  O   UNL     1     -40.409  59.733 -51.322  1.00  0.00    -0.274 OA
HETATM    7  H   UNL     1     -43.276  60.850 -52.107  1.00  0.00     0.163 HD
BRANCH   5   8
HETATM    8  C   UNL     1     -41.703  59.176 -53.262  1.00  0.00     0.114 C 
BRANCH   8   9
HETATM    9  C   UNL     1     -43.147  58.649 -53.401  1.00  0.00     0.056 C 
HETATM   10  C   UNL     1     -44.142  59.414 -54.415  1.00  0.00    -0.030 C 
HETATM   11  C   UNL     1     -45.478  59.583 -53.608  1.00  0.00     0.016 C 
HETATM   12  C   UNL     1     -44.514  58.620 -55.750  1.00  0.00     0.012 C 
HETATM   13  C   UNL     1     -43.718  60.864 -54.777  1.00  0.00     0.013 C 
HETATM   14  C   UNL     1     -44.955  57.163 -55.454  1.00  0.00     0.055 C 
HETATM   15  C   UNL     1     -43.492  58.770 -56.954  1.00  0.00     0.008 C 
HETATM   16  C   UNL     1     -43.988  56.511 -54.542  1.00  0.00     0.012 A 
HETATM   17  C   UNL     1     -43.161  57.153 -53.646  1.00  0.00     0.056 A 
HETATM   18  S   UNL     1     -43.744  54.826 -54.488  1.00  0.00    -0.055 SA
HETATM   19  N   UNL     1     -42.276  56.316 -52.989  1.00  0.00    -0.227 NA
HETATM   20  C   UNL     1     -42.488  55.079 -53.360  1.00  0.00     0.174 A 
HETATM   21  C   UNL     1     -44.129  58.199 -58.254  1.00  0.00     0.020 C 
HETATM   22  C   UNL     1     -43.209  60.282 -57.192  1.00  0.00     0.128 C 
HETATM   23  C   UNL     1     -42.721  60.987 -55.930  1.00  0.00     0.033 C 
BRANCH  20  24
HETATM   24  N   UNL     1     -41.829  53.941 -53.010  1.00  0.00    -0.301 N 
HETATM   25  C   UNL     1     -40.739  53.464 -53.701  1.00  0.00     0.264 C 
HETATM   26  O   UNL     1     -40.230  54.026 -54.668  1.00  0.00    -0.267 OA
HETATM   27  H   UNL     1     -42.211  53.398 -52.250  1.00  0.00     0.171 HD
BRANCH  25  28
HETATM   28  C   UNL     1     -40.233  52.180 -53.212  1.00  0.00     0.072 A 
HETATM   29  S   UNL     1     -39.859  51.906 -51.557  1.00  0.00    -0.097 SA
HETATM   30  C   UNL     1     -39.411  50.285 -51.850  1.00  0.00     0.050 A 
HETATM   31  C   UNL     1     -39.532  49.948 -53.179  1.00  0.00     0.009 A 
HETATM   32  C   UNL     1     -40.003  51.041 -53.963  1.00  0.00     0.025 A 
ENDBRANCH  25  28
ENDBRANCH  20  24
BRANCH  15  33
HETATM   33  C   UNL     1     -42.159  58.013 -56.740  1.00  0.00     0.176 C 
BRANCH  33  34
HETATM   34  O   UNL     1     -42.109  56.837 -57.543  1.00  0.00    -0.400 OA
HETATM   35  H   UNL     1     -41.628  56.163 -57.031  1.00  0.00     0.209 HD
ENDBRANCH  33  34
ENDBRANCH  15  33
BRANCH  22  36
HETATM   36  O   UNL     1     -44.398  60.955 -57.623  1.00  0.00    -0.395 OA
HETATM   37  H   UNL     1     -45.136  60.589 -57.107  1.00  0.00     0.210 HD
ENDBRANCH  22  36
ENDBRANCH   8   9
ENDBRANCH   5   8
ENDBRANCH   1   4
TORSDOF 8
ENDMDL
MODEL 7
REMARK VINA RESULT:      -7.0      2.391      2.947
REMARK  8 active torsions:
REMARK  status: ('A' for Active; 'I' for Inactive)
REMARK    1  A    between atoms: C_3  and  C_4 
REMARK    2  A    between atoms: C_4  and  C_5 
REMARK       I    between atoms: C_5  and  N_6 
REMARK    3  A    between atoms: N_6  and  C_7 
REMARK    4  A    between atoms: C_14  and  N_15 
REMARK       I    between atoms: N_15  and  C_16 
REMARK    5  A    between atoms: C_16  and  C_17 
REMARK    6  A    between atoms: C_26  and  C_27 
REMARK    7  A    between atoms: C_27  and  O_28 
REMARK    8  A    between atoms: C_30  and  O_31 
ROOT
HETATM    1  C   UNL     1     -44.754  58.118 -51.412  1.00  0.00     0.216 C 
HETATM    2  C   UNL     1     -44.215  56.818 -51.001  1.00  0.00    -0.098 C 
HETATM    3  C   UNL     1     -43.783  55.752 -50.655  1.00  0.00     0.014 C 
ENDROOT
BRANCH   1   4
HETATM    4  N   UNL     1     -44.258  58.489 -52.711  1.00  0.00    -0.351 N 
HETATM    5  C   UNL     1     -44.868  59.437 -53.487  1.00  0.00     0.219 C 
HETATM    6  O   UNL     1     -45.863  60.068 -53.140  1.00  0.00    -0.274 OA
HETATM    7  H   UNL     1     -43.593  57.848 -53.147  1.00  0.00     0.163 HD
BRANCH   5   8
HETATM    8  C   UNL     1     -44.200  59.696 -54.827  1.00  0.00     0.114 C 
BRANCH   8   9
HETATM    9  C   UNL     1     -44.853  58.890 -55.970  1.00  0.00     0.056 C 
HETATM   10  C   UNL     1     -45.300  59.683 -57.302  1.00  0.00    -0.030 C 
HETATM   11  C   UNL     1     -46.744  59.152 -57.614  1.00  0.00     0.016 C 
HETATM   12  C   UNL     1     -44.420  59.400 -58.604  1.00  0.00     0.012 C 
HETATM   13  C   UNL     1     -45.477  61.216 -57.121  1.00  0.00     0.013 C 
HETATM   14  C   UNL     1     -44.212  57.882 -58.844  1.00  0.00     0.055 C 
HETATM   15  C   UNL     1     -43.108  60.279 -58.760  1.00  0.00     0.008 C 
HETATM   16  C   UNL     1     -43.779  57.220 -57.593  1.00  0.00     0.012 A 
HETATM   17  C   UNL     1     -44.030  57.664 -56.313  1.00  0.00     0.056 A 
HETATM   18  S   UNL     1     -42.863  55.783 -57.564  1.00  0.00    -0.055 SA
HETATM   19  N   UNL     1     -43.418  56.916 -55.322  1.00  0.00    -0.227 NA
HETATM   20  C   UNL     1     -42.776  55.913 -55.864  1.00  0.00     0.174 A 
HETATM   21  C   UNL     1     -42.531  60.105 -60.195  1.00  0.00     0.020 C 
HETATM   22  C   UNL     1     -43.481  61.779 -58.580  1.00  0.00     0.128 C 
HETATM   23  C   UNL     1     -44.200  62.044 -57.260  1.00  0.00     0.033 C 
BRANCH  20  24
HETATM   24  N   UNL     1     -42.004  54.957 -55.280  1.00  0.00    -0.301 N 
HETATM   25  C   UNL     1     -42.425  54.209 -54.205  1.00  0.00     0.264 C 
HETATM   26  O   UNL     1     -43.538  54.295 -53.692  1.00  0.00    -0.267 OA
HETATM   27  H   UNL     1     -41.059  54.853 -55.619  1.00  0.00     0.171 HD
BRANCH  25  28
HETATM   28  C   UNL     1     -41.409  53.297 -53.675  1.00  0.00     0.072 A 
HETATM   29  S   UNL     1     -40.783  53.439 -52.081  1.00  0.00    -0.097 SA
HETATM   30  C   UNL     1     -39.772  52.077 -52.277  1.00  0.00     0.050 A 
HETATM   31  C   UNL     1     -39.895  51.519 -53.530  1.00  0.00     0.009 A 
HETATM   32  C   UNL     1     -40.835  52.225 -54.335  1.00  0.00     0.025 A 
ENDBRANCH  25  28
ENDBRANCH  20  24
BRANCH  15  33
HETATM   33  C   UNL     1     -41.979  59.896 -57.774  1.00  0.00     0.176 C 
BRANCH  33  34
HETATM   34  O   UNL     1     -40.994  60.924 -57.706  1.00  0.00    -0.400 OA
HETATM   35  H   UNL     1     -40.173  60.557 -58.081  1.00  0.00     0.209 HD
ENDBRANCH  33  34
ENDBRANCH  15  33
BRANCH  22  36
HETATM   36  O   UNL     1     -44.350  62.212 -59.633  1.00  0.00    -0.395 OA
HETATM   37  H   UNL     1     -44.505  63.164 -59.502  1.00  0.00     0.210 HD
ENDBRANCH  22  36
ENDBRANCH   8   9
ENDBRANCH   5   8
ENDBRANCH   1   4
TORSDOF 8
ENDMDL
MODEL 8
REMARK VINA RESULT:      -6.7     16.853     18.803
REMARK  8 active torsions:
REMARK  status: ('A' for Active; 'I' for Inactive)
REMARK    1  A    between atoms: C_3  and  C_4 
REMARK    2  A    between atoms: C_4  and  C_5 
REMARK       I    between atoms: C_5  and  N_6 
REMARK    3  A    between atoms: N_6  and  C_7 
REMARK    4  A    between atoms: C_14  and  N_15 
REMARK       I    between atoms: N_15  and  C_16 
REMARK    5  A    between atoms: C_16  and  C_17 
REMARK    6  A    between atoms: C_26  and  C_27 
REMARK    7  A    between atoms: C_27  and  O_28 
REMARK    8  A    between atoms: C_30  and  O_31 
ROOT
HETATM    1  C   UNL     1     -31.640  40.090 -51.110  1.00  0.00     0.216 C 
HETATM    2  C   UNL     1     -31.972  39.757 -49.721  1.00  0.00    -0.098 C 
HETATM    3  C   UNL     1     -32.234  39.493 -48.579  1.00  0.00     0.014 C 
ENDROOT
BRANCH   1   4
HETATM    4  N   UNL     1     -32.733  39.763 -51.988  1.00  0.00    -0.351 N 
HETATM    5  C   UNL     1     -32.664  39.940 -53.343  1.00  0.00     0.219 C 
HETATM    6  O   UNL     1     -31.671  40.361 -53.929  1.00  0.00    -0.274 OA
HETATM    7  H   UNL     1     -33.649  39.638 -51.552  1.00  0.00     0.163 HD
BRANCH   5   8
HETATM    8  C   UNL     1     -33.915  39.536 -54.107  1.00  0.00     0.114 C 
BRANCH   8   9
HETATM    9  C   UNL     1     -34.858  40.733 -54.355  1.00  0.00     0.056 C 
HETATM   10  C   UNL     1     -35.171  41.152 -55.881  1.00  0.00    -0.030 C 
HETATM   11  C   UNL     1     -35.014  42.714 -55.905  1.00  0.00     0.016 C 
HETATM   12  C   UNL     1     -36.649  40.834 -56.397  1.00  0.00     0.012 C 
HETATM   13  C   UNL     1     -34.139  40.639 -56.924  1.00  0.00     0.013 C 
HETATM   14  C   UNL     1     -37.729  41.330 -55.399  1.00  0.00     0.055 C 
HETATM   15  C   UNL     1     -36.890  39.370 -56.956  1.00  0.00     0.008 C 
HETATM   16  C   UNL     1     -37.396  40.892 -54.024  1.00  0.00     0.012 A 
HETATM   17  C   UNL     1     -36.136  40.598 -53.552  1.00  0.00     0.056 A 
HETATM   18  S   UNL     1     -38.566  40.664 -52.808  1.00  0.00    -0.055 SA
HETATM   19  N   UNL     1     -36.115  40.106 -52.258  1.00  0.00    -0.227 NA
HETATM   20  C   UNL     1     -37.332  40.092 -51.776  1.00  0.00     0.174 A 
HETATM   21  C   UNL     1     -38.264  39.308 -57.684  1.00  0.00     0.020 C 
HETATM   22  C   UNL     1     -35.786  39.042 -58.004  1.00  0.00     0.128 C 
HETATM   23  C   UNL     1     -34.380  39.221 -57.441  1.00  0.00     0.033 C 
BRANCH  20  24
HETATM   24  N   UNL     1     -37.785  39.649 -50.572  1.00  0.00    -0.301 N 
HETATM   25  C   UNL     1     -38.133  38.339 -50.338  1.00  0.00     0.264 C 
HETATM   26  O   UNL     1     -38.035  37.436 -51.166  1.00  0.00    -0.267 OA
HETATM   27  H   UNL     1     -37.933  40.339 -49.850  1.00  0.00     0.171 HD
BRANCH  25  28
HETATM   28  C   UNL     1     -38.678  38.092 -49.002  1.00  0.00     0.072 A 
HETATM   29  S   UNL     1     -37.686  37.668 -47.664  1.00  0.00    -0.097 SA
HETATM   30  C   UNL     1     -39.020  37.609 -46.599  1.00  0.00     0.050 A 
HETATM   31  C   UNL     1     -40.204  37.898 -47.239  1.00  0.00     0.009 A 
HETATM   32  C   UNL     1     -40.007  38.173 -48.623  1.00  0.00     0.025 A 
ENDBRANCH  25  28
ENDBRANCH  20  24
BRANCH  15  33
HETATM   33  C   UNL     1     -36.915  38.278 -55.861  1.00  0.00     0.176 C 
BRANCH  33  34
HETATM   34  O   UNL     1     -37.173  36.996 -56.427  1.00  0.00    -0.400 OA
HETATM   35  H   UNL     1     -38.112  36.797 -56.264  1.00  0.00     0.209 HD
ENDBRANCH  33  34
ENDBRANCH  15  33
BRANCH  22  36
HETATM   36  O   UNL     1     -35.902  39.903 -59.144  1.00  0.00    -0.395 OA
HETATM   37  H   UNL     1     -35.237  40.605 -59.039  1.00  0.00     0.210 HD
ENDBRANCH  22  36
ENDBRANCH   8   9
ENDBRANCH   5   8
ENDBRANCH   1   4
TORSDOF 8
ENDMDL
MODEL 9
REMARK VINA RESULT:      -6.6      3.634      6.159
REMARK  8 active torsions:
REMARK  status: ('A' for Active; 'I' for Inactive)
REMARK    1  A    between atoms: C_3  and  C_4 
REMARK    2  A    between atoms: C_4  and  C_5 
REMARK       I    between atoms: C_5  and  N_6 
REMARK    3  A    between atoms: N_6  and  C_7 
REMARK    4  A    between atoms: C_14  and  N_15 
REMARK       I    between atoms: N_15  and  C_16 
REMARK    5  A    between atoms: C_16  and  C_17 
REMARK    6  A    between atoms: C_26  and  C_27 
REMARK    7  A    between atoms: C_27  and  O_28 
REMARK    8  A    between atoms: C_30  and  O_31 
ROOT
HETATM    1  C   UNL     1     -43.268  62.440 -57.147  1.00  0.00     0.216 C 
HETATM    2  C   UNL     1     -42.050  61.878 -57.739  1.00  0.00    -0.098 C 
HETATM    3  C   UNL     1     -41.052  61.428 -58.232  1.00  0.00     0.014 C 
ENDROOT
BRANCH   1   4
HETATM    4  N   UNL     1     -43.514  61.872 -55.848  1.00  0.00    -0.351 N 
HETATM    5  C   UNL     1     -44.743  61.402 -55.472  1.00  0.00     0.219 C 
HETATM    6  O   UNL     1     -45.727  61.397 -56.206  1.00  0.00    -0.274 OA
HETATM    7  H   UNL     1     -42.816  62.062 -55.126  1.00  0.00     0.163 HD
BRANCH   5   8
HETATM    8  C   UNL     1     -44.810  60.836 -54.063  1.00  0.00     0.114 C 
BRANCH   8   9
HETATM    9  C   UNL     1     -43.681  61.379 -53.162  1.00  0.00     0.056 C 
HETATM   10  C   UNL     1     -44.064  62.465 -52.032  1.00  0.00    -0.030 C 
HETATM   11  C   UNL     1     -42.966  63.579 -52.163  1.00  0.00     0.016 C 
HETATM   12  C   UNL     1     -44.007  61.944 -50.523  1.00  0.00     0.012 C 
HETATM   13  C   UNL     1     -45.407  63.209 -52.271  1.00  0.00     0.013 C 
HETATM   14  C   UNL     1     -42.682  61.196 -50.219  1.00  0.00     0.055 C 
HETATM   15  C   UNL     1     -45.313  61.219 -49.989  1.00  0.00     0.008 C 
HETATM   16  C   UNL     1     -42.403  60.198 -51.277  1.00  0.00     0.012 A 
HETATM   17  C   UNL     1     -42.857  60.249 -52.577  1.00  0.00     0.056 A 
HETATM   18  S   UNL     1     -41.468  58.798 -51.018  1.00  0.00    -0.055 SA
HETATM   19  N   UNL     1     -42.540  59.133 -53.333  1.00  0.00    -0.227 NA
HETATM   20  C   UNL     1     -41.822  58.308 -52.614  1.00  0.00     0.174 A 
HETATM   21  C   UNL     1     -45.217  61.042 -48.445  1.00  0.00     0.020 C 
HETATM   22  C   UNL     1     -46.547  62.120 -50.285  1.00  0.00     0.128 C 
HETATM   23  C   UNL     1     -46.655  62.489 -51.762  1.00  0.00     0.033 C 
BRANCH  20  24
HETATM   24  N   UNL     1     -41.332  57.079 -52.932  1.00  0.00    -0.301 N 
HETATM   25  C   UNL     1     -42.103  55.939 -52.916  1.00  0.00     0.264 C 
HETATM   26  O   UNL     1     -43.304  55.917 -52.656  1.00  0.00    -0.267 OA
HETATM   27  H   UNL     1     -40.343  57.007 -53.117  1.00  0.00     0.171 HD
BRANCH  25  28
HETATM   28  C   UNL     1     -41.362  54.710 -53.205  1.00  0.00     0.072 A 
HETATM   29  S   UNL     1     -40.981  53.555 -51.991  1.00  0.00    -0.097 SA
HETATM   30  C   UNL     1     -40.209  52.522 -53.111  1.00  0.00     0.050 A 
HETATM   31  C   UNL     1     -40.229  53.039 -54.387  1.00  0.00     0.009 A 
HETATM   32  C   UNL     1     -40.890  54.300 -54.440  1.00  0.00     0.025 A 
ENDBRANCH  25  28
ENDBRANCH  20  24
BRANCH  15  33
HETATM   33  C   UNL     1     -45.534  59.810 -50.587  1.00  0.00     0.176 C 
BRANCH  33  34
HETATM   34  O   UNL     1     -45.813  58.861 -49.561  1.00  0.00    -0.400 OA
HETATM   35  H   UNL     1     -45.657  57.977 -49.940  1.00  0.00     0.209 HD
ENDBRANCH  33  34
ENDBRANCH  15  33
BRANCH  22  36
HETATM   36  O   UNL     1     -46.468  63.343 -49.545  1.00  0.00    -0.395 OA
HETATM   37  H   UNL     1     -47.244  63.875 -49.789  1.00  0.00     0.210 HD
ENDBRANCH  22  36
ENDBRANCH   8   9
ENDBRANCH   5   8
ENDBRANCH   1   4
TORSDOF 8
ENDMDL
MODEL 10
REMARK VINA RESULT:      -6.5     16.352     18.992
REMARK  8 active torsions:
REMARK  status: ('A' for Active; 'I' for Inactive)
REMARK    1  A    between atoms: C_3  and  C_4 
REMARK    2  A    between atoms: C_4  and  C_5 
REMARK       I    between atoms: C_5  and  N_6 
REMARK    3  A    between atoms: N_6  and  C_7 
REMARK    4  A    between atoms: C_14  and  N_15 
REMARK       I    between atoms: N_15  and  C_16 
REMARK    5  A    between atoms: C_16  and  C_17 
REMARK    6  A    between atoms: C_26  and  C_27 
REMARK    7  A    between atoms: C_27  and  O_28 
REMARK    8  A    between atoms: C_30  and  O_31 
ROOT
HETATM    1  C   UNL     1     -37.589  39.226 -50.337  1.00  0.00     0.216 C 
HETATM    2  C   UNL     1     -36.486  38.859 -49.443  1.00  0.00    -0.098 C 
HETATM    3  C   UNL     1     -35.592  38.557 -48.701  1.00  0.00     0.014 C 
ENDROOT
BRANCH   1   4
HETATM    4  N   UNL     1     -37.198  39.086 -51.715  1.00  0.00    -0.351 N 
HETATM    5  C   UNL     1     -37.562  39.987 -52.677  1.00  0.00     0.219 C 
HETATM    6  O   UNL     1     -38.224  40.998 -52.453  1.00  0.00    -0.274 OA
HETATM    7  H   UNL     1     -36.859  38.166 -52.004  1.00  0.00     0.163 HD
BRANCH   5   8
HETATM    8  C   UNL     1     -37.054  39.675 -54.075  1.00  0.00     0.114 C 
BRANCH   8   9
HETATM    9  C   UNL     1     -36.601  40.945 -54.828  1.00  0.00     0.056 C 
HETATM   10  C   UNL     1     -35.132  41.533 -54.514  1.00  0.00    -0.030 C 
HETATM   11  C   UNL     1     -35.352  43.077 -54.337  1.00  0.00     0.016 C 
HETATM   12  C   UNL     1     -34.053  41.357 -55.679  1.00  0.00     0.012 C 
HETATM   13  C   UNL     1     -34.517  41.068 -53.166  1.00  0.00     0.013 C 
HETATM   14  C   UNL     1     -34.606  41.813 -57.055  1.00  0.00     0.055 C 
HETATM   15  C   UNL     1     -33.278  39.973 -55.704  1.00  0.00     0.008 C 
HETATM   16  C   UNL     1     -35.942  41.219 -57.292  1.00  0.00     0.012 A 
HETATM   17  C   UNL     1     -36.827  40.805 -56.320  1.00  0.00     0.056 A 
HETATM   18  S   UNL     1     -36.578  40.939 -58.847  1.00  0.00    -0.055 SA
HETATM   19  N   UNL     1     -37.963  40.185 -56.814  1.00  0.00    -0.227 NA
HETATM   20  C   UNL     1     -37.932  40.194 -58.122  1.00  0.00     0.174 A 
HETATM   21  C   UNL     1     -32.074  40.067 -56.687  1.00  0.00     0.020 C 
HETATM   22  C   UNL     1     -32.707  39.688 -54.285  1.00  0.00     0.128 C 
HETATM   23  C   UNL     1     -33.786  39.725 -53.207  1.00  0.00     0.033 C 
BRANCH  20  24
HETATM   24  N   UNL     1     -38.808  39.660 -59.016  1.00  0.00    -0.301 N 
HETATM   25  C   UNL     1     -38.637  38.417 -59.580  1.00  0.00     0.264 C 
HETATM   26  O   UNL     1     -37.713  37.653 -59.311  1.00  0.00    -0.267 OA
HETATM   27  H   UNL     1     -39.573  40.243 -59.320  1.00  0.00     0.171 HD
BRANCH  25  28
HETATM   28  C   UNL     1     -39.647  38.070 -60.582  1.00  0.00     0.072 A 
HETATM   29  S   UNL     1     -39.245  37.719 -62.215  1.00  0.00    -0.097 SA
HETATM   30  C   UNL     1     -40.873  37.414 -62.629  1.00  0.00     0.050 A 
HETATM   31  C   UNL     1     -41.718  37.579 -61.554  1.00  0.00     0.009 A 
HETATM   32  C   UNL     1     -41.011  37.960 -60.376  1.00  0.00     0.025 A 
ENDBRANCH  25  28
ENDBRANCH  20  24
BRANCH  15  33
HETATM   33  C   UNL     1     -34.144  38.780 -56.172  1.00  0.00     0.176 C 
BRANCH  33  34
HETATM   34  O   UNL     1     -33.686  38.280 -57.425  1.00  0.00    -0.400 OA
HETATM   35  H   UNL     1     -33.054  38.932 -57.778  1.00  0.00     0.209 HD
ENDBRANCH  33  34
ENDBRANCH  15  33
BRANCH  22  36
HETATM   36  O   UNL     1     -31.720  40.665 -53.933  1.00  0.00    -0.395 OA
HETATM   37  H   UNL     1     -32.179  41.374 -53.452  1.00  0.00     0.210 HD
ENDBRANCH  22  36
ENDBRANCH   8   9
ENDBRANCH   5   8
ENDBRANCH   1   4
TORSDOF 8
ENDMDL
