MODEL 1
REMARK VINA RESULT:      -9.7      0.000      0.000
REMARK  6 active torsions:
REMARK  status: ('A' for Active; 'I' for Inactive)
REMARK    1  A    between atoms: C_9  and  O_10 
REMARK    2  A    between atoms: O_10  and  C_11 
REMARK    3  A    between atoms: C_11  and  C_12 
REMARK       I    between atoms: C_12  and  N_13 
REMARK    4  A    between atoms: N_13  and  C_14 
REMARK    5  A    between atoms: N_15  and  C_16 
REMARK    6  A    between atoms: C_27  and  C_28 
ROOT
HETATM    1  C   UNL     1     -42.295  58.165 -56.620  1.00  0.00     0.152 A 
HETATM    2  N   UNL     1     -41.933  59.326 -55.950  1.00  0.00    -0.044 N 
HETATM    3  N   UNL     1     -41.628  60.350 -56.808  1.00  0.00    -0.150 NA
HETATM    4  C   UNL     1     -41.810  59.827 -58.026  1.00  0.00     0.099 A 
HETATM    5  C   UNL     1     -42.193  58.472 -57.960  1.00  0.00     0.086 A 
ENDROOT
BRANCH   1   6
HETATM    6  N   UNL     1     -42.699  57.000 -55.977  1.00  0.00    -0.309 N 
HETATM    7  C   UNL     1     -43.900  56.908 -55.295  1.00  0.00     0.247 C 
HETATM    8  O   UNL     1     -44.789  57.759 -55.294  1.00  0.00    -0.271 OA
HETATM    9  H   UNL     1     -42.079  56.185 -55.999  1.00  0.00     0.170 HD
BRANCH   7  10
HETATM   10  C   UNL     1     -44.018  55.682 -54.392  1.00  0.00     0.278 C 
BRANCH  10  11
HETATM   11  O   UNL     1     -43.531  55.868 -53.070  1.00  0.00    -0.342 OA
BRANCH  11  12
HETATM   12  C   UNL     1     -42.559  54.973 -52.689  1.00  0.00     0.070 A 
HETATM   13  C   UNL     1     -41.944  54.938 -51.436  1.00  0.00     0.037 A 
HETATM   14  C   UNL     1     -40.976  53.971 -51.148  1.00  0.00     0.015 A 
HETATM   15  C   UNL     1     -40.601  53.024 -52.109  1.00  0.00    -0.026 A 
HETATM   16  C   UNL     1     -39.640  52.042 -51.824  1.00  0.00     0.012 A 
HETATM   17  C   UNL     1     -41.208  53.060 -53.385  1.00  0.00    -0.023 A 
HETATM   18  C   UNL     1     -39.277  51.100 -52.787  1.00  0.00     0.001 A 
HETATM   19  C   UNL     1     -39.871  51.131 -54.044  1.00  0.00     0.001 A 
HETATM   20  C   UNL     1     -40.828  52.104 -54.343  1.00  0.00     0.012 A 
HETATM   21  C   UNL     1     -42.176  54.044 -53.660  1.00  0.00     0.049 A 
ENDBRANCH  11  12
ENDBRANCH  10  11
ENDBRANCH   7  10
ENDBRANCH   1   6
BRANCH   2  22
HETATM   22  C   UNL     1     -41.867  59.562 -54.563  1.00  0.00     0.732 A 
HETATM   23  N   UNL     1     -40.944  59.072 -53.788  1.00  0.00    -0.067 NA
HETATM   24  C   UNL     1     -41.078  59.431 -52.474  1.00  0.00     0.065 A 
HETATM   25  C   UNL     1     -42.035  60.209 -51.964  1.00  0.00     0.036 A 
HETATM   26  C   UNL     1     -40.133  58.981 -51.411  1.00  0.00     0.061 C 
HETATM   27  C   UNL     1     -41.917  60.421 -50.505  1.00  0.00     0.047 C 
HETATM   28  C   UNL     1     -43.064  60.750 -52.849  1.00  0.00     0.268 A 
HETATM   29  C   UNL     1     -40.881  59.356 -50.122  1.00  0.00     0.011 C 
HETATM   30  O   UNL     1     -43.969  61.468 -52.451  1.00  0.00    -0.267 OA
HETATM   31  N   UNL     1     -42.904  60.371 -54.151  1.00  0.00    -0.152 N 
HETATM   32  H   UNL     1     -43.573  60.697 -54.841  1.00  0.00     0.188 HD
ENDBRANCH   2  22
BRANCH   4  33
HETATM   33  C   UNL     1     -41.641  60.642 -59.275  1.00  0.00     0.035 A 
HETATM   34  S   UNL     1     -40.891  62.178 -59.330  1.00  0.00    -0.100 SA
HETATM   35  C   UNL     1     -41.104  62.295 -61.023  1.00  0.00     0.050 A 
HETATM   36  C   UNL     1     -41.741  61.190 -61.540  1.00  0.00     0.008 A 
HETATM   37  C   UNL     1     -42.055  60.234 -60.527  1.00  0.00     0.022 A 
ENDBRANCH   4  33
TORSDOF 6
ENDMDL
MODEL 2
REMARK VINA RESULT:      -9.6      2.919      3.486
REMARK  6 active torsions:
REMARK  status: ('A' for Active; 'I' for Inactive)
REMARK    1  A    between atoms: C_9  and  O_10 
REMARK    2  A    between atoms: O_10  and  C_11 
REMARK    3  A    between atoms: C_11  and  C_12 
REMARK       I    between atoms: C_12  and  N_13 
REMARK    4  A    between atoms: N_13  and  C_14 
REMARK    5  A    between atoms: N_15  and  C_16 
REMARK    6  A    between atoms: C_27  and  C_28 
ROOT
HETATM    1  C   UNL     1     -43.275  56.651 -57.652  1.00  0.00     0.152 A 
HETATM    2  N   UNL     1     -43.938  57.706 -57.039  1.00  0.00    -0.044 N 
HETATM    3  N   UNL     1     -45.041  58.110 -57.744  1.00  0.00    -0.150 NA
HETATM    4  C   UNL     1     -45.074  57.294 -58.805  1.00  0.00     0.099 A 
HETATM    5  C   UNL     1     -43.986  56.397 -58.806  1.00  0.00     0.086 A 
ENDROOT
BRANCH   1   6
HETATM    6  N   UNL     1     -42.157  56.027 -57.110  1.00  0.00    -0.309 N 
HETATM    7  C   UNL     1     -42.253  55.044 -56.140  1.00  0.00     0.247 C 
HETATM    8  O   UNL     1     -43.298  54.519 -55.755  1.00  0.00    -0.271 OA
HETATM    9  H   UNL     1     -41.228  56.313 -57.433  1.00  0.00     0.170 HD
BRANCH   7  10
HETATM   10  C   UNL     1     -40.935  54.718 -55.443  1.00  0.00     0.278 C 
BRANCH  10  11
HETATM   11  O   UNL     1     -40.855  55.144 -54.090  1.00  0.00    -0.342 OA
BRANCH  11  12
HETATM   12  C   UNL     1     -40.616  54.135 -53.187  1.00  0.00     0.070 A 
HETATM   13  C   UNL     1     -40.659  54.271 -51.798  1.00  0.00     0.037 A 
HETATM   14  C   UNL     1     -40.414  53.171 -50.970  1.00  0.00     0.015 A 
HETATM   15  C   UNL     1     -40.117  51.916 -51.515  1.00  0.00    -0.026 A 
HETATM   16  C   UNL     1     -39.882  50.804 -50.691  1.00  0.00     0.012 A 
HETATM   17  C   UNL     1     -40.056  51.772 -52.920  1.00  0.00    -0.023 A 
HETATM   18  C   UNL     1     -39.591  49.557 -51.245  1.00  0.00     0.001 A 
HETATM   19  C   UNL     1     -39.530  49.410 -52.626  1.00  0.00     0.001 A 
HETATM   20  C   UNL     1     -39.759  50.508 -53.459  1.00  0.00     0.012 A 
HETATM   21  C   UNL     1     -40.299  52.891 -53.739  1.00  0.00     0.049 A 
ENDBRANCH  11  12
ENDBRANCH  10  11
ENDBRANCH   7  10
ENDBRANCH   1   6
BRANCH   2  22
HETATM   22  C   UNL     1     -43.632  58.357 -55.828  1.00  0.00     0.732 A 
HETATM   23  N   UNL     1     -42.446  58.375 -55.295  1.00  0.00    -0.067 NA
HETATM   24  C   UNL     1     -42.381  59.067 -54.115  1.00  0.00     0.065 A 
HETATM   25  C   UNL     1     -43.393  59.693 -53.513  1.00  0.00     0.036 A 
HETATM   26  C   UNL     1     -41.119  59.214 -53.332  1.00  0.00     0.061 C 
HETATM   27  C   UNL     1     -43.015  60.358 -52.247  1.00  0.00     0.047 C 
HETATM   28  C   UNL     1     -44.719  59.663 -54.126  1.00  0.00     0.268 A 
HETATM   29  C   UNL     1     -41.627  59.758 -51.987  1.00  0.00     0.011 C 
HETATM   30  O   UNL     1     -45.691  60.213 -53.630  1.00  0.00    -0.267 OA
HETATM   31  N   UNL     1     -44.751  58.962 -55.297  1.00  0.00    -0.152 N 
HETATM   32  H   UNL     1     -45.632  58.884 -55.796  1.00  0.00     0.188 HD
ENDBRANCH   2  22
BRANCH   4  33
HETATM   33  C   UNL     1     -46.175  57.355 -59.822  1.00  0.00     0.035 A 
HETATM   34  S   UNL     1     -46.878  58.804 -60.398  1.00  0.00    -0.100 SA
HETATM   35  C   UNL     1     -47.918  57.957 -61.459  1.00  0.00     0.050 A 
HETATM   36  C   UNL     1     -47.742  56.594 -61.373  1.00  0.00     0.008 A 
HETATM   37  C   UNL     1     -46.735  56.245 -60.424  1.00  0.00     0.022 A 
ENDBRANCH   4  33
TORSDOF 6
ENDMDL
MODEL 3
REMARK VINA RESULT:      -9.6      0.796      1.915
REMARK  6 active torsions:
REMARK  status: ('A' for Active; 'I' for Inactive)
REMARK    1  A    between atoms: C_9  and  O_10 
REMARK    2  A    between atoms: O_10  and  C_11 
REMARK    3  A    between atoms: C_11  and  C_12 
REMARK       I    between atoms: C_12  and  N_13 
REMARK    4  A    between atoms: N_13  and  C_14 
REMARK    5  A    between atoms: N_15  and  C_16 
REMARK    6  A    between atoms: C_27  and  C_28 
ROOT
HETATM    1  C   UNL     1     -42.244  58.188 -56.651  1.00  0.00     0.152 A 
HETATM    2  N   UNL     1     -41.875  59.334 -55.959  1.00  0.00    -0.044 N 
HETATM    3  N   UNL     1     -41.580  60.377 -56.798  1.00  0.00    -0.150 NA
HETATM    4  C   UNL     1     -41.774  59.881 -58.026  1.00  0.00     0.099 A 
HETATM    5  C   UNL     1     -42.155  58.524 -57.985  1.00  0.00     0.086 A 
ENDROOT
BRANCH   1   6
HETATM    6  N   UNL     1     -42.640  57.009 -56.029  1.00  0.00    -0.309 N 
HETATM    7  C   UNL     1     -43.871  56.875 -55.410  1.00  0.00     0.247 C 
HETATM    8  O   UNL     1     -44.787  57.695 -55.455  1.00  0.00    -0.271 OA
HETATM    9  H   UNL     1     -41.992  56.216 -56.018  1.00  0.00     0.170 HD
BRANCH   7  10
HETATM   10  C   UNL     1     -43.993  55.644 -54.514  1.00  0.00     0.278 C 
BRANCH  10  11
HETATM   11  O   UNL     1     -43.070  54.604 -54.803  1.00  0.00    -0.342 OA
BRANCH  11  12
HETATM   12  C   UNL     1     -42.238  54.272 -53.759  1.00  0.00     0.070 A 
HETATM   13  C   UNL     1     -41.216  53.322 -53.815  1.00  0.00     0.037 A 
HETATM   14  C   UNL     1     -40.417  53.074 -52.695  1.00  0.00     0.015 A 
HETATM   15  C   UNL     1     -40.628  53.768 -51.497  1.00  0.00    -0.026 A 
HETATM   16  C   UNL     1     -39.822  53.534 -50.372  1.00  0.00     0.012 A 
HETATM   17  C   UNL     1     -41.670  54.720 -51.426  1.00  0.00    -0.023 A 
HETATM   18  C   UNL     1     -40.037  54.233 -49.184  1.00  0.00     0.001 A 
HETATM   19  C   UNL     1     -41.062  55.172 -49.109  1.00  0.00     0.001 A 
HETATM   20  C   UNL     1     -41.873  55.413 -50.220  1.00  0.00     0.012 A 
HETATM   21  C   UNL     1     -42.469  54.953 -52.561  1.00  0.00     0.049 A 
ENDBRANCH  11  12
ENDBRANCH  10  11
ENDBRANCH   7  10
ENDBRANCH   1   6
BRANCH   2  22
HETATM   22  C   UNL     1     -41.795  59.540 -54.569  1.00  0.00     0.732 A 
HETATM   23  N   UNL     1     -40.976  58.900 -53.787  1.00  0.00    -0.067 NA
HETATM   24  C   UNL     1     -41.073  59.261 -52.470  1.00  0.00     0.065 A 
HETATM   25  C   UNL     1     -41.901  60.175 -51.964  1.00  0.00     0.036 A 
HETATM   26  C   UNL     1     -40.229  58.653 -51.401  1.00  0.00     0.061 C 
HETATM   27  C   UNL     1     -41.775  60.349 -50.500  1.00  0.00     0.047 C 
HETATM   28  C   UNL     1     -42.816  60.885 -52.855  1.00  0.00     0.268 A 
HETATM   29  C   UNL     1     -40.929  59.128 -50.117  1.00  0.00     0.011 C 
HETATM   30  O   UNL     1     -43.601  61.733 -52.460  1.00  0.00    -0.267 OA
HETATM   31  N   UNL     1     -42.697  60.500 -54.160  1.00  0.00    -0.152 N 
HETATM   32  H   UNL     1     -43.294  60.937 -54.855  1.00  0.00     0.188 HD
ENDBRANCH   2  22
BRANCH   4  33
HETATM   33  C   UNL     1     -41.618  60.722 -59.258  1.00  0.00     0.035 A 
HETATM   34  S   UNL     1     -40.952  62.298 -59.273  1.00  0.00    -0.100 SA
HETATM   35  C   UNL     1     -41.128  62.429 -60.969  1.00  0.00     0.050 A 
HETATM   36  C   UNL     1     -41.691  61.299 -61.517  1.00  0.00     0.008 A 
HETATM   37  C   UNL     1     -41.977  60.311 -60.527  1.00  0.00     0.022 A 
ENDBRANCH   4  33
TORSDOF 6
ENDMDL
MODEL 4
REMARK VINA RESULT:      -9.4      3.166      5.961
REMARK  6 active torsions:
REMARK  status: ('A' for Active; 'I' for Inactive)
REMARK    1  A    between atoms: C_9  and  O_10 
REMARK    2  A    between atoms: O_10  and  C_11 
REMARK    3  A    between atoms: C_11  and  C_12 
REMARK       I    between atoms: C_12  and  N_13 
REMARK    4  A    between atoms: N_13  and  C_14 
REMARK    5  A    between atoms: N_15  and  C_16 
REMARK    6  A    between atoms: C_27  and  C_28 
ROOT
HETATM    1  C   UNL     1     -44.232  59.148 -51.501  1.00  0.00     0.152 A 
HETATM    2  N   UNL     1     -44.669  59.011 -52.811  1.00  0.00    -0.044 N 
HETATM    3  N   UNL     1     -45.686  59.878 -53.115  1.00  0.00    -0.150 NA
HETATM    4  C   UNL     1     -45.881  60.570 -51.986  1.00  0.00     0.099 A 
HETATM    5  C   UNL     1     -45.026  60.133 -50.953  1.00  0.00     0.086 A 
ENDROOT
BRANCH   1   6
HETATM    6  N   UNL     1     -43.176  58.419 -50.962  1.00  0.00    -0.309 N 
HETATM    7  C   UNL     1     -41.853  58.735 -51.216  1.00  0.00     0.247 C 
HETATM    8  O   UNL     1     -41.457  59.741 -51.804  1.00  0.00    -0.271 OA
HETATM    9  H   UNL     1     -43.387  57.614 -50.366  1.00  0.00     0.170 HD
BRANCH   7  10
HETATM   10  C   UNL     1     -40.859  57.646 -50.816  1.00  0.00     0.278 C 
BRANCH  10  11
HETATM   11  O   UNL     1     -41.438  56.523 -50.167  1.00  0.00    -0.342 OA
BRANCH  11  12
HETATM   12  C   UNL     1     -40.935  55.308 -50.572  1.00  0.00     0.070 A 
HETATM   13  C   UNL     1     -40.320  54.373 -49.738  1.00  0.00     0.037 A 
HETATM   14  C   UNL     1     -39.859  53.158 -50.255  1.00  0.00     0.015 A 
HETATM   15  C   UNL     1     -40.001  52.858 -51.615  1.00  0.00    -0.026 A 
HETATM   16  C   UNL     1     -39.552  51.635 -52.139  1.00  0.00     0.012 A 
HETATM   17  C   UNL     1     -40.610  53.804 -52.470  1.00  0.00    -0.023 A 
HETATM   18  C   UNL     1     -39.702  51.344 -53.495  1.00  0.00     0.001 A 
HETATM   19  C   UNL     1     -40.301  52.272 -54.341  1.00  0.00     0.001 A 
HETATM   20  C   UNL     1     -40.750  53.494 -53.834  1.00  0.00     0.012 A 
HETATM   21  C   UNL     1     -41.063  55.025 -51.935  1.00  0.00     0.049 A 
ENDBRANCH  11  12
ENDBRANCH  10  11
ENDBRANCH   7  10
ENDBRANCH   1   6
BRANCH   2  22
HETATM   22  C   UNL     1     -44.197  58.143 -53.814  1.00  0.00     0.732 A 
HETATM   23  N   UNL     1     -43.726  58.546 -54.959  1.00  0.00    -0.067 NA
HETATM   24  C   UNL     1     -43.326  57.528 -55.781  1.00  0.00     0.065 A 
HETATM   25  C   UNL     1     -43.378  56.225 -55.503  1.00  0.00     0.036 A 
HETATM   26  C   UNL     1     -42.758  57.763 -57.141  1.00  0.00     0.061 C 
HETATM   27  C   UNL     1     -42.870  55.361 -56.592  1.00  0.00     0.047 C 
HETATM   28  C   UNL     1     -43.909  55.789 -54.213  1.00  0.00     0.268 A 
HETATM   29  C   UNL     1     -42.786  56.355 -57.758  1.00  0.00     0.011 C 
HETATM   30  O   UNL     1     -43.987  54.613 -53.892  1.00  0.00    -0.267 OA
HETATM   31  N   UNL     1     -44.303  56.827 -53.419  1.00  0.00    -0.152 N 
HETATM   32  H   UNL     1     -44.688  56.622 -52.502  1.00  0.00     0.188 HD
ENDBRANCH   2  22
BRANCH   4  33
HETATM   33  C   UNL     1     -46.882  61.684 -51.898  1.00  0.00     0.035 A 
HETATM   34  S   UNL     1     -46.941  62.829 -50.628  1.00  0.00    -0.100 SA
HETATM   35  C   UNL     1     -48.258  63.654 -51.344  1.00  0.00     0.050 A 
HETATM   36  C   UNL     1     -48.653  63.066 -52.524  1.00  0.00     0.008 A 
HETATM   37  C   UNL     1     -47.858  61.924 -52.844  1.00  0.00     0.022 A 
ENDBRANCH   4  33
TORSDOF 6
ENDMDL
MODEL 5
REMARK VINA RESULT:      -9.3      3.133      8.133
REMARK  6 active torsions:
REMARK  status: ('A' for Active; 'I' for Inactive)
REMARK    1  A    between atoms: C_9  and  O_10 
REMARK    2  A    between atoms: O_10  and  C_11 
REMARK    3  A    between atoms: C_11  and  C_12 
REMARK       I    between atoms: C_12  and  N_13 
REMARK    4  A    between atoms: N_13  and  C_14 
REMARK    5  A    between atoms: N_15  and  C_16 
REMARK    6  A    between atoms: C_27  and  C_28 
ROOT
HETATM    1  C   UNL     1     -41.263  55.625 -53.026  1.00  0.00     0.152 A 
HETATM    2  N   UNL     1     -41.851  55.233 -54.222  1.00  0.00    -0.044 N 
HETATM    3  N   UNL     1     -41.585  53.924 -54.529  1.00  0.00    -0.150 NA
HETATM    4  C   UNL     1     -40.831  53.491 -53.511  1.00  0.00     0.099 A 
HETATM    5  C   UNL     1     -40.581  54.515 -52.575  1.00  0.00     0.086 A 
ENDROOT
BRANCH   1   6
HETATM    6  N   UNL     1     -41.424  56.889 -52.469  1.00  0.00    -0.309 N 
HETATM    7  C   UNL     1     -42.431  57.177 -51.564  1.00  0.00     0.247 C 
HETATM    8  O   UNL     1     -43.188  56.354 -51.050  1.00  0.00    -0.271 OA
HETATM    9  H   UNL     1     -40.781  57.636 -52.747  1.00  0.00     0.170 HD
BRANCH   7  10
HETATM   10  C   UNL     1     -42.648  58.669 -51.319  1.00  0.00     0.278 C 
BRANCH  10  11
HETATM   11  O   UNL     1     -41.806  59.525 -52.078  1.00  0.00    -0.342 OA
BRANCH  11  12
HETATM   12  C   UNL     1     -42.417  60.117 -53.158  1.00  0.00     0.070 A 
HETATM   13  C   UNL     1     -43.531  60.956 -53.093  1.00  0.00     0.037 A 
HETATM   14  C   UNL     1     -44.063  61.518 -54.258  1.00  0.00     0.015 A 
HETATM   15  C   UNL     1     -43.494  61.250 -55.509  1.00  0.00    -0.026 A 
HETATM   16  C   UNL     1     -44.014  61.821 -56.680  1.00  0.00     0.012 A 
HETATM   17  C   UNL     1     -42.375  60.390 -55.586  1.00  0.00    -0.023 A 
HETATM   18  C   UNL     1     -43.437  61.550 -57.921  1.00  0.00     0.001 A 
HETATM   19  C   UNL     1     -42.335  60.705 -58.003  1.00  0.00     0.001 A 
HETATM   20  C   UNL     1     -41.808  60.127 -56.845  1.00  0.00     0.012 A 
HETATM   21  C   UNL     1     -41.855  59.827 -54.405  1.00  0.00     0.049 A 
ENDBRANCH  11  12
ENDBRANCH  10  11
ENDBRANCH   7  10
ENDBRANCH   1   6
BRANCH   2  22
HETATM   22  C   UNL     1     -42.662  55.982 -55.095  1.00  0.00     0.732 A 
HETATM   23  N   UNL     1     -43.657  56.723 -54.703  1.00  0.00    -0.067 NA
HETATM   24  C   UNL     1     -44.308  57.361 -55.725  1.00  0.00     0.065 A 
HETATM   25  C   UNL     1     -44.005  57.281 -57.021  1.00  0.00     0.036 A 
HETATM   26  C   UNL     1     -45.478  58.259 -55.503  1.00  0.00     0.061 C 
HETATM   27  C   UNL     1     -44.889  58.087 -57.892  1.00  0.00     0.047 C 
HETATM   28  C   UNL     1     -42.884  56.444 -57.445  1.00  0.00     0.268 A 
HETATM   29  C   UNL     1     -46.028  58.442 -56.927  1.00  0.00     0.011 C 
HETATM   30  O   UNL     1     -42.551  56.325 -58.614  1.00  0.00    -0.267 OA
HETATM   31  N   UNL     1     -42.260  55.820 -56.404  1.00  0.00    -0.152 N 
HETATM   32  H   UNL     1     -41.469  55.214 -56.600  1.00  0.00     0.188 HD
ENDBRANCH   2  22
BRANCH   4  33
HETATM   33  C   UNL     1     -40.362  52.069 -53.418  1.00  0.00     0.035 A 
HETATM   34  S   UNL     1     -39.582  51.399 -52.050  1.00  0.00    -0.100 SA
HETATM   35  C   UNL     1     -39.473  49.858 -52.785  1.00  0.00     0.050 A 
HETATM   36  C   UNL     1     -40.012  49.852 -54.051  1.00  0.00     0.008 A 
HETATM   37  C   UNL     1     -40.524  51.132 -54.419  1.00  0.00     0.022 A 
ENDBRANCH   4  33
TORSDOF 6
ENDMDL
MODEL 6
REMARK VINA RESULT:      -9.3      3.377      6.193
REMARK  6 active torsions:
REMARK  status: ('A' for Active; 'I' for Inactive)
REMARK    1  A    between atoms: C_9  and  O_10 
REMARK    2  A    between atoms: O_10  and  C_11 
REMARK    3  A    between atoms: C_11  and  C_12 
REMARK       I    between atoms: C_12  and  N_13 
REMARK    4  A    between atoms: N_13  and  C_14 
REMARK    5  A    between atoms: N_15  and  C_16 
REMARK    6  A    between atoms: C_27  and  C_28 
ROOT
HETATM    1  C   UNL     1     -44.461  58.348 -51.919  1.00  0.00     0.152 A 
HETATM    2  N   UNL     1     -44.913  58.817 -53.145  1.00  0.00    -0.044 N 
HETATM    3  N   UNL     1     -45.664  59.957 -53.023  1.00  0.00    -0.150 NA
HETATM    4  C   UNL     1     -45.676  60.207 -51.708  1.00  0.00     0.099 A 
HETATM    5  C   UNL     1     -44.972  59.224 -50.984  1.00  0.00     0.086 A 
ENDROOT
BRANCH   1   6
HETATM    6  N   UNL     1     -43.637  57.237 -51.777  1.00  0.00    -0.309 N 
HETATM    7  C   UNL     1     -42.300  57.345 -51.435  1.00  0.00     0.247 C 
HETATM    8  O   UNL     1     -41.731  58.379 -51.088  1.00  0.00    -0.271 OA
HETATM    9  H   UNL     1     -44.032  56.307 -51.942  1.00  0.00     0.170 HD
BRANCH   7  10
HETATM   10  C   UNL     1     -41.493  56.066 -51.646  1.00  0.00     0.278 C 
BRANCH  10  11
HETATM   11  O   UNL     1     -41.138  55.802 -52.996  1.00  0.00    -0.342 OA
BRANCH  11  12
HETATM   12  C   UNL     1     -40.806  54.492 -53.253  1.00  0.00     0.070 A 
HETATM   13  C   UNL     1     -40.694  53.925 -54.525  1.00  0.00     0.037 A 
HETATM   14  C   UNL     1     -40.334  52.582 -54.672  1.00  0.00     0.015 A 
HETATM   15  C   UNL     1     -40.082  51.780 -53.552  1.00  0.00    -0.026 A 
HETATM   16  C   UNL     1     -39.707  50.435 -53.692  1.00  0.00     0.012 A 
HETATM   17  C   UNL     1     -40.207  52.342 -52.261  1.00  0.00    -0.023 A 
HETATM   18  C   UNL     1     -39.454  49.646 -52.570  1.00  0.00     0.001 A 
HETATM   19  C   UNL     1     -39.575  50.193 -51.297  1.00  0.00     0.001 A 
HETATM   20  C   UNL     1     -39.950  51.531 -51.142  1.00  0.00     0.012 A 
HETATM   21  C   UNL     1     -40.577  53.693 -52.130  1.00  0.00     0.049 A 
ENDBRANCH  11  12
ENDBRANCH  10  11
ENDBRANCH   7  10
ENDBRANCH   1   6
BRANCH   2  22
HETATM   22  C   UNL     1     -44.680  58.295 -54.431  1.00  0.00     0.732 A 
HETATM   23  N   UNL     1     -43.771  57.402 -54.697  1.00  0.00    -0.067 NA
HETATM   24  C   UNL     1     -43.720  57.040 -56.016  1.00  0.00     0.065 A 
HETATM   25  C   UNL     1     -44.499  57.511 -56.991  1.00  0.00     0.036 A 
HETATM   26  C   UNL     1     -42.753  56.034 -56.543  1.00  0.00     0.061 C 
HETATM   27  C   UNL     1     -44.209  56.928 -58.320  1.00  0.00     0.047 C 
HETATM   28  C   UNL     1     -45.514  58.514 -56.676  1.00  0.00     0.268 A 
HETATM   29  C   UNL     1     -42.868  56.229 -58.063  1.00  0.00     0.011 C 
HETATM   30  O   UNL     1     -46.260  58.989 -57.519  1.00  0.00    -0.267 OA
HETATM   31  N   UNL     1     -45.536  58.855 -55.355  1.00  0.00    -0.152 N 
HETATM   32  H   UNL     1     -46.208  59.548 -55.040  1.00  0.00     0.188 HD
ENDBRANCH   2  22
BRANCH   4  33
HETATM   33  C   UNL     1     -46.349  61.420 -51.135  1.00  0.00     0.035 A 
HETATM   34  S   UNL     1     -47.424  62.428 -52.005  1.00  0.00    -0.100 SA
HETATM   35  C   UNL     1     -47.692  63.428 -50.643  1.00  0.00     0.050 A 
HETATM   36  C   UNL     1     -46.972  63.010 -49.547  1.00  0.00     0.008 A 
HETATM   37  C   UNL     1     -46.192  61.849 -49.832  1.00  0.00     0.022 A 
ENDBRANCH   4  33
TORSDOF 6
ENDMDL
MODEL 7
REMARK VINA RESULT:      -9.3      3.058      8.549
REMARK  6 active torsions:
REMARK  status: ('A' for Active; 'I' for Inactive)
REMARK    1  A    between atoms: C_9  and  O_10 
REMARK    2  A    between atoms: O_10  and  C_11 
REMARK    3  A    between atoms: C_11  and  C_12 
REMARK       I    between atoms: C_12  and  N_13 
REMARK    4  A    between atoms: N_13  and  C_14 
REMARK    5  A    between atoms: N_15  and  C_16 
REMARK    6  A    between atoms: C_27  and  C_28 
ROOT
HETATM    1  C   UNL     1     -41.690  56.991 -54.457  1.00  0.00     0.152 A 
HETATM    2  N   UNL     1     -42.137  56.199 -55.506  1.00  0.00    -0.044 N 
HETATM    3  N   UNL     1     -41.765  54.888 -55.366  1.00  0.00    -0.150 NA
HETATM    4  C   UNL     1     -41.085  54.858 -54.213  1.00  0.00     0.099 A 
HETATM    5  C   UNL     1     -40.988  56.138 -53.632  1.00  0.00     0.086 A 
ENDROOT
BRANCH   1   6
HETATM    6  N   UNL     1     -41.979  58.346 -54.338  1.00  0.00    -0.309 N 
HETATM    7  C   UNL     1     -43.117  58.808 -53.699  1.00  0.00     0.247 C 
HETATM    8  O   UNL     1     -43.907  58.116 -53.056  1.00  0.00    -0.271 OA
HETATM    9  H   UNL     1     -41.333  59.026 -54.749  1.00  0.00     0.170 HD
BRANCH   7  10
HETATM   10  C   UNL     1     -43.426  60.282 -53.952  1.00  0.00     0.278 C 
BRANCH  10  11
HETATM   11  O   UNL     1     -42.552  60.924 -54.869  1.00  0.00    -0.342 OA
BRANCH  11  12
HETATM   12  C   UNL     1     -43.048  61.039 -56.147  1.00  0.00     0.070 A 
HETATM   13  C   UNL     1     -44.232  61.693 -56.495  1.00  0.00     0.037 A 
HETATM   14  C   UNL     1     -44.635  61.764 -57.832  1.00  0.00     0.015 A 
HETATM   15  C   UNL     1     -43.865  61.178 -58.845  1.00  0.00    -0.026 A 
HETATM   16  C   UNL     1     -44.257  61.256 -60.191  1.00  0.00     0.012 A 
HETATM   17  C   UNL     1     -42.674  60.501 -58.500  1.00  0.00    -0.023 A 
HETATM   18  C   UNL     1     -43.481  60.673 -61.193  1.00  0.00     0.001 A 
HETATM   19  C   UNL     1     -42.307  60.006 -60.859  1.00  0.00     0.001 A 
HETATM   20  C   UNL     1     -41.906  59.918 -59.523  1.00  0.00     0.012 A 
HETATM   21  C   UNL     1     -42.285  60.434 -57.149  1.00  0.00     0.049 A 
ENDBRANCH  11  12
ENDBRANCH  10  11
ENDBRANCH   7  10
ENDBRANCH   1   6
BRANCH   2  22
HETATM   22  C   UNL     1     -42.906  56.569 -56.626  1.00  0.00     0.732 A 
HETATM   23  N   UNL     1     -44.012  57.250 -56.553  1.00  0.00    -0.067 NA
HETATM   24  C   UNL     1     -44.593  57.493 -57.768  1.00  0.00     0.065 A 
HETATM   25  C   UNL     1     -44.126  57.105 -58.955  1.00  0.00     0.036 A 
HETATM   26  C   UNL     1     -45.867  58.255 -57.918  1.00  0.00     0.061 C 
HETATM   27  C   UNL     1     -44.974  57.520 -60.095  1.00  0.00     0.047 C 
HETATM   28  C   UNL     1     -42.883  56.340 -59.020  1.00  0.00     0.268 A 
HETATM   29  C   UNL     1     -46.254  57.969 -59.378  1.00  0.00     0.011 C 
HETATM   30  O   UNL     1     -42.397  55.953 -60.072  1.00  0.00    -0.267 OA
HETATM   31  N   UNL     1     -42.331  56.111 -57.792  1.00  0.00    -0.152 N 
HETATM   32  H   UNL     1     -41.465  55.585 -57.736  1.00  0.00     0.188 HD
ENDBRANCH   2  22
BRANCH   4  33
HETATM   33  C   UNL     1     -40.541  53.580 -53.644  1.00  0.00     0.035 A 
HETATM   34  S   UNL     1     -40.360  53.271 -51.971  1.00  0.00    -0.100 SA
HETATM   35  C   UNL     1     -39.764  51.694 -52.260  1.00  0.00     0.050 A 
HETATM   36  C   UNL     1     -39.694  51.408 -53.604  1.00  0.00     0.008 A 
HETATM   37  C   UNL     1     -40.142  52.501 -54.406  1.00  0.00     0.022 A 
ENDBRANCH   4  33
TORSDOF 6
ENDMDL
MODEL 8
REMARK VINA RESULT:      -9.2      3.943      8.145
REMARK  6 active torsions:
REMARK  status: ('A' for Active; 'I' for Inactive)
REMARK    1  A    between atoms: C_9  and  O_10 
REMARK    2  A    between atoms: O_10  and  C_11 
REMARK    3  A    between atoms: C_11  and  C_12 
REMARK       I    between atoms: C_12  and  N_13 
REMARK    4  A    between atoms: N_13  and  C_14 
REMARK    5  A    between atoms: N_15  and  C_16 
REMARK    6  A    between atoms: C_27  and  C_28 
ROOT
HETATM    1  C   UNL     1     -41.149  55.083 -54.735  1.00  0.00     0.152 A 
HETATM    2  N   UNL     1     -41.301  55.319 -53.375  1.00  0.00    -0.044 N 
HETATM    3  N   UNL     1     -40.986  54.222 -52.617  1.00  0.00    -0.150 NA
HETATM    4  C   UNL     1     -40.626  53.293 -53.510  1.00  0.00     0.099 A 
HETATM    5  C   UNL     1     -40.740  53.770 -54.832  1.00  0.00     0.086 A 
ENDROOT
BRANCH   1   6
HETATM    6  N   UNL     1     -41.357  56.051 -55.711  1.00  0.00    -0.309 N 
HETATM    7  C   UNL     1     -42.624  56.449 -56.103  1.00  0.00     0.247 C 
HETATM    8  O   UNL     1     -43.677  56.118 -55.560  1.00  0.00    -0.271 OA
HETATM    9  H   UNL     1     -40.543  56.476 -56.164  1.00  0.00     0.170 HD
BRANCH   7  10
HETATM   10  C   UNL     1     -42.655  57.265 -57.393  1.00  0.00     0.278 C 
BRANCH  10  11
HETATM   11  O   UNL     1     -42.553  56.499 -58.584  1.00  0.00    -0.342 OA
BRANCH  11  12
HETATM   12  C   UNL     1     -43.726  56.388 -59.295  1.00  0.00     0.070 A 
HETATM   13  C   UNL     1     -44.245  55.200 -59.812  1.00  0.00     0.037 A 
HETATM   14  C   UNL     1     -45.458  55.200 -60.507  1.00  0.00     0.015 A 
HETATM   15  C   UNL     1     -46.173  56.389 -60.702  1.00  0.00    -0.026 A 
HETATM   16  C   UNL     1     -47.398  56.395 -61.387  1.00  0.00     0.012 A 
HETATM   17  C   UNL     1     -45.647  57.599 -60.195  1.00  0.00    -0.023 A 
HETATM   18  C   UNL     1     -48.103  57.585 -61.572  1.00  0.00     0.001 A 
HETATM   19  C   UNL     1     -47.591  58.778 -61.075  1.00  0.00     0.001 A 
HETATM   20  C   UNL     1     -46.372  58.788 -60.393  1.00  0.00     0.012 A 
HETATM   21  C   UNL     1     -44.422  57.582 -59.503  1.00  0.00     0.049 A 
ENDBRANCH  11  12
ENDBRANCH  10  11
ENDBRANCH   7  10
ENDBRANCH   1   6
BRANCH   2  22
HETATM   22  C   UNL     1     -41.700  56.501 -52.723  1.00  0.00     0.732 A 
HETATM   23  N   UNL     1     -40.869  57.399 -52.279  1.00  0.00    -0.067 NA
HETATM   24  C   UNL     1     -41.479  58.466 -51.676  1.00  0.00     0.065 A 
HETATM   25  C   UNL     1     -42.793  58.640 -51.526  1.00  0.00     0.036 A 
HETATM   26  C   UNL     1     -40.719  59.610 -51.094  1.00  0.00     0.061 C 
HETATM   27  C   UNL     1     -43.154  59.897 -50.834  1.00  0.00     0.047 C 
HETATM   28  C   UNL     1     -43.712  57.622 -52.031  1.00  0.00     0.268 A 
HETATM   29  C   UNL     1     -41.796  60.341 -50.276  1.00  0.00     0.011 C 
HETATM   30  O   UNL     1     -44.926  57.716 -51.928  1.00  0.00    -0.267 OA
HETATM   31  N   UNL     1     -43.073  56.570 -52.622  1.00  0.00    -0.152 N 
HETATM   32  H   UNL     1     -43.629  55.811 -53.001  1.00  0.00     0.188 HD
ENDBRANCH   2  22
BRANCH   4  33
HETATM   33  C   UNL     1     -40.140  51.935 -53.095  1.00  0.00     0.035 A 
HETATM   34  S   UNL     1     -39.777  51.492 -51.483  1.00  0.00    -0.100 SA
HETATM   35  C   UNL     1     -39.379  49.893 -51.943  1.00  0.00     0.050 A 
HETATM   36  C   UNL     1     -39.511  49.699 -53.299  1.00  0.00     0.008 A 
HETATM   37  C   UNL     1     -39.949  50.882 -53.967  1.00  0.00     0.022 A 
ENDBRANCH   4  33
TORSDOF 6
ENDMDL
MODEL 9
REMARK VINA RESULT:      -9.1      2.964      8.383
REMARK  6 active torsions:
REMARK  status: ('A' for Active; 'I' for Inactive)
REMARK    1  A    between atoms: C_9  and  O_10 
REMARK    2  A    between atoms: O_10  and  C_11 
REMARK    3  A    between atoms: C_11  and  C_12 
REMARK       I    between atoms: C_12  and  N_13 
REMARK    4  A    between atoms: N_13  and  C_14 
REMARK    5  A    between atoms: N_15  and  C_16 
REMARK    6  A    between atoms: C_27  and  C_28 
ROOT
HETATM    1  C   UNL     1     -41.192  55.260 -54.910  1.00  0.00     0.152 A 
HETATM    2  N   UNL     1     -41.351  55.437 -53.542  1.00  0.00    -0.044 N 
HETATM    3  N   UNL     1     -41.045  54.307 -52.831  1.00  0.00    -0.150 NA
HETATM    4  C   UNL     1     -40.683  53.417 -53.762  1.00  0.00     0.099 A 
HETATM    5  C   UNL     1     -40.788  53.951 -55.062  1.00  0.00     0.086 A 
ENDROOT
BRANCH   1   6
HETATM    6  N   UNL     1     -41.390  56.272 -55.844  1.00  0.00    -0.309 N 
HETATM    7  C   UNL     1     -42.652  56.652 -56.268  1.00  0.00     0.247 C 
HETATM    8  O   UNL     1     -43.716  56.262 -55.788  1.00  0.00    -0.271 OA
HETATM    9  H   UNL     1     -40.572  56.744 -56.240  1.00  0.00     0.170 HD
BRANCH   7  10
HETATM   10  C   UNL     1     -42.656  57.533 -57.516  1.00  0.00     0.278 C 
BRANCH  10  11
HETATM   11  O   UNL     1     -42.549  58.926 -57.261  1.00  0.00    -0.342 OA
BRANCH  11  12
HETATM   12  C   UNL     1     -42.175  59.679 -58.349  1.00  0.00     0.070 A 
HETATM   13  C   UNL     1     -42.555  59.429 -59.670  1.00  0.00     0.037 A 
HETATM   14  C   UNL     1     -42.128  60.272 -60.701  1.00  0.00     0.015 A 
HETATM   15  C   UNL     1     -41.311  61.377 -60.432  1.00  0.00    -0.026 A 
HETATM   16  C   UNL     1     -40.889  62.234 -61.460  1.00  0.00     0.012 A 
HETATM   17  C   UNL     1     -40.909  61.629 -59.101  1.00  0.00    -0.023 A 
HETATM   18  C   UNL     1     -40.078  63.335 -61.181  1.00  0.00     0.001 A 
HETATM   19  C   UNL     1     -39.680  63.588 -59.872  1.00  0.00     0.001 A 
HETATM   20  C   UNL     1     -40.090  62.741 -58.839  1.00  0.00     0.012 A 
HETATM   21  C   UNL     1     -41.342  60.767 -58.075  1.00  0.00     0.049 A 
ENDBRANCH  11  12
ENDBRANCH  10  11
ENDBRANCH   7  10
ENDBRANCH   1   6
BRANCH   2  22
HETATM   22  C   UNL     1     -41.749  56.591 -52.840  1.00  0.00     0.732 A 
HETATM   23  N   UNL     1     -40.918  57.469 -52.358  1.00  0.00    -0.067 NA
HETATM   24  C   UNL     1     -41.527  58.510 -51.712  1.00  0.00     0.065 A 
HETATM   25  C   UNL     1     -42.841  58.679 -51.556  1.00  0.00     0.036 A 
HETATM   26  C   UNL     1     -40.766  59.628 -51.081  1.00  0.00     0.061 C 
HETATM   27  C   UNL     1     -43.201  59.906 -50.811  1.00  0.00     0.047 C 
HETATM   28  C   UNL     1     -43.761  57.684 -52.103  1.00  0.00     0.268 A 
HETATM   29  C   UNL     1     -41.842  60.324 -50.234  1.00  0.00     0.011 C 
HETATM   30  O   UNL     1     -44.974  57.775 -51.997  1.00  0.00    -0.267 OA
HETATM   31  N   UNL     1     -43.122  56.658 -52.737  1.00  0.00    -0.152 N 
HETATM   32  H   UNL     1     -43.679  55.915 -53.149  1.00  0.00     0.188 HD
ENDBRANCH   2  22
BRANCH   4  33
HETATM   33  C   UNL     1     -40.205  52.040 -53.405  1.00  0.00     0.035 A 
HETATM   34  S   UNL     1     -39.657  51.583 -51.850  1.00  0.00    -0.100 SA
HETATM   35  C   UNL     1     -39.389  49.968 -52.346  1.00  0.00     0.050 A 
HETATM   36  C   UNL     1     -39.702  49.778 -53.673  1.00  0.00     0.008 A 
HETATM   37  C   UNL     1     -40.172  50.978 -54.287  1.00  0.00     0.022 A 
ENDBRANCH   4  33
TORSDOF 6
ENDMDL
MODEL 10
REMARK VINA RESULT:      -9.0      3.464      8.496
REMARK  6 active torsions:
REMARK  status: ('A' for Active; 'I' for Inactive)
REMARK    1  A    between atoms: C_9  and  O_10 
REMARK    2  A    between atoms: O_10  and  C_11 
REMARK    3  A    between atoms: C_11  and  C_12 
REMARK       I    between atoms: C_12  and  N_13 
REMARK    4  A    between atoms: N_13  and  C_14 
REMARK    5  A    between atoms: N_15  and  C_16 
REMARK    6  A    between atoms: C_27  and  C_28 
ROOT
HETATM    1  C   UNL     1     -42.064  56.482 -54.111  1.00  0.00     0.152 A 
HETATM    2  N   UNL     1     -41.953  55.874 -55.355  1.00  0.00    -0.044 N 
HETATM    3  N   UNL     1     -41.361  54.641 -55.282  1.00  0.00    -0.150 NA
HETATM    4  C   UNL     1     -41.108  54.471 -53.979  1.00  0.00     0.099 A 
HETATM    5  C   UNL     1     -41.497  55.594 -53.222  1.00  0.00     0.086 A 
ENDROOT
BRANCH   1   6
HETATM    6  N   UNL     1     -42.674  57.715 -53.910  1.00  0.00    -0.309 N 
HETATM    7  C   UNL     1     -43.925  57.837 -53.329  1.00  0.00     0.247 C 
HETATM    8  O   UNL     1     -44.565  56.923 -52.809  1.00  0.00    -0.271 OA
HETATM    9  H   UNL     1     -42.185  58.562 -54.212  1.00  0.00     0.170 HD
BRANCH   7  10
HETATM   10  C   UNL     1     -44.560  59.217 -53.489  1.00  0.00     0.278 C 
BRANCH  10  11
HETATM   11  O   UNL     1     -43.901  60.072 -54.412  1.00  0.00    -0.342 OA
BRANCH  11  12
HETATM   12  C   UNL     1     -44.568  60.252 -55.601  1.00  0.00     0.070 A 
HETATM   13  C   UNL     1     -44.629  61.450 -56.316  1.00  0.00     0.037 A 
HETATM   14  C   UNL     1     -45.325  61.517 -57.527  1.00  0.00     0.015 A 
HETATM   15  C   UNL     1     -45.975  60.389 -58.043  1.00  0.00    -0.026 A 
HETATM   16  C   UNL     1     -46.665  60.446 -59.265  1.00  0.00     0.012 A 
HETATM   17  C   UNL     1     -45.931  59.177 -57.319  1.00  0.00    -0.023 A 
HETATM   18  C   UNL     1     -47.307  59.316 -59.773  1.00  0.00     0.001 A 
HETATM   19  C   UNL     1     -47.266  58.119 -59.064  1.00  0.00     0.001 A 
HETATM   20  C   UNL     1     -46.585  58.049 -57.845  1.00  0.00     0.012 A 
HETATM   21  C   UNL     1     -45.232  59.128 -56.099  1.00  0.00     0.049 A 
ENDBRANCH  11  12
ENDBRANCH  10  11
ENDBRANCH   7  10
ENDBRANCH   1   6
BRANCH   2  22
HETATM   22  C   UNL     1     -42.376  56.349 -56.611  1.00  0.00     0.732 A 
HETATM   23  N   UNL     1     -42.133  57.549 -57.052  1.00  0.00    -0.067 NA
HETATM   24  C   UNL     1     -42.641  57.794 -58.299  1.00  0.00     0.065 A 
HETATM   25  C   UNL     1     -43.325  56.933 -59.052  1.00  0.00     0.036 A 
HETATM   26  C   UNL     1     -42.483  59.104 -58.994  1.00  0.00     0.061 C 
HETATM   27  C   UNL     1     -43.745  57.485 -60.360  1.00  0.00     0.047 C 
HETATM   28  C   UNL     1     -43.590  55.589 -58.543  1.00  0.00     0.268 A 
HETATM   29  C   UNL     1     -43.477  58.982 -60.160  1.00  0.00     0.011 C 
HETATM   30  O   UNL     1     -44.209  54.749 -59.179  1.00  0.00    -0.267 OA
HETATM   31  N   UNL     1     -43.074  55.378 -57.297  1.00  0.00    -0.152 N 
HETATM   32  H   UNL     1     -43.208  54.472 -56.858  1.00  0.00     0.188 HD
ENDBRANCH   2  22
BRANCH   4  33
HETATM   33  C   UNL     1     -40.507  53.204 -53.444  1.00  0.00     0.035 A 
HETATM   34  S   UNL     1     -40.153  52.927 -51.793  1.00  0.00    -0.100 SA
HETATM   35  C   UNL     1     -39.589  51.344 -52.111  1.00  0.00     0.050 A 
HETATM   36  C   UNL     1     -39.659  51.031 -53.450  1.00  0.00     0.008 A 
HETATM   37  C   UNL     1     -40.188  52.109 -54.222  1.00  0.00     0.022 A 
ENDBRANCH   4  33
TORSDOF 6
ENDMDL
