MODEL 1
REMARK VINA RESULT:      -7.9      0.000      0.000
REMARK  6 active torsions:
REMARK  status: ('A' for Active; 'I' for Inactive)
REMARK    1  A    between atoms: C_2  and  N_3 
REMARK    2  A    between atoms: N_3  and  C_5 
REMARK    3  A    between atoms: C_5  and  C_6 
REMARK    4  A    between atoms: C_6  and  N_7 
REMARK       I    between atoms: N_7  and  C_8 
REMARK    5  A    between atoms: C_8  and  C_9 
REMARK    6  A    between atoms: C_10  and  C_11 
ROOT
HETATM    1  N   UNL     1     -43.324  55.464 -56.020  1.00  0.00    -0.354 N 
HETATM    2  C   UNL     1     -42.401  55.761 -55.033  1.00  0.00     0.255 C 
HETATM    3  O   UNL     1     -41.261  56.104 -55.332  1.00  0.00    -0.268 OA
HETATM    4  H   UNL     1     -44.255  55.180 -55.744  1.00  0.00     0.162 HD
ENDROOT
BRANCH   2   5
HETATM    5  C   UNL     1     -42.892  55.665 -53.665  1.00  0.00     0.080 A 
HETATM    6  C   UNL     1     -42.516  54.742 -52.629  1.00  0.00     0.104 A 
HETATM    7  N   UNL     1     -43.234  54.958 -51.514  1.00  0.00    -0.174 NA
HETATM    8  N   UNL     1     -44.034  55.982 -51.806  1.00  0.00    -0.288 N 
HETATM    9  H   UNL     1     -44.676  56.307 -51.089  1.00  0.00     0.188 HD
HETATM   10  C   UNL     1     -43.872  56.449 -53.075  1.00  0.00     0.128 A 
BRANCH   6  11
HETATM   11  C   UNL     1     -41.517  53.670 -52.630  1.00  0.00    -0.002 A 
HETATM   12  C   UNL     1     -41.268  52.901 -53.771  1.00  0.00     0.056 A 
HETATM   13  C   UNL     1     -40.295  51.908 -53.739  1.00  0.00     0.117 A 
HETATM   14  F   UNL     1     -40.075  51.173 -54.838  1.00  0.00    -0.206 F 
HETATM   15  C   UNL     1     -39.541  51.669 -52.596  1.00  0.00     0.042 A 
HETATM   16  C   UNL     1     -39.766  52.440 -51.459  1.00  0.00     0.004 A 
HETATM   17  C   UNL     1     -40.746  53.435 -51.477  1.00  0.00     0.014 A 
ENDBRANCH   6  11
ENDBRANCH   2   5
BRANCH   1  18
HETATM   18  C   UNL     1     -42.964  55.470 -57.422  1.00  0.00     0.162 C 
BRANCH  18  19
HETATM   19  C   UNL     1     -43.614  56.578 -58.315  1.00  0.00     0.143 C 
HETATM   20  C   UNL     1     -42.697  57.187 -59.400  1.00  0.00     0.041 C 
HETATM   21  C   UNL     1     -41.913  58.315 -58.740  1.00  0.00     0.003 C 
HETATM   22  C   UNL     1     -42.703  58.707 -57.501  1.00  0.00     0.003 C 
HETATM   23  C   UNL     1     -43.965  57.848 -57.510  1.00  0.00     0.041 C 
BRANCH  19  24
HETATM   24  N   UNL     1     -44.908  56.017 -59.010  1.00  0.00    -0.065 N 
HETATM   25  H   UNL     1     -45.570  55.804 -58.252  1.00  0.00     0.280 HD
HETATM   26  C   UNL     1     -45.623  57.065 -59.862  1.00  0.00     0.270 C 
BRANCH  24  27
HETATM   27  C   UNL     1     -44.783  54.744 -59.840  1.00  0.00     0.231 C 
HETATM   28  C   UNL     1     -45.014  54.967 -61.318  1.00  0.00     0.034 C 
ENDBRANCH  24  27
ENDBRANCH  19  24
ENDBRANCH  18  19
ENDBRANCH   1  18
TORSDOF 6
ENDMDL
MODEL 2
REMARK VINA RESULT:      -7.9      2.990      4.725
REMARK  6 active torsions:
REMARK  status: ('A' for Active; 'I' for Inactive)
REMARK    1  A    between atoms: C_2  and  N_3 
REMARK    2  A    between atoms: N_3  and  C_5 
REMARK    3  A    between atoms: C_5  and  C_6 
REMARK    4  A    between atoms: C_6  and  N_7 
REMARK       I    between atoms: N_7  and  C_8 
REMARK    5  A    between atoms: C_8  and  C_9 
REMARK    6  A    between atoms: C_10  and  C_11 
ROOT
HETATM    1  N   UNL     1     -42.086  55.886 -51.885  1.00  0.00    -0.354 N 
HETATM    2  C   UNL     1     -42.309  54.664 -51.276  1.00  0.00     0.255 C 
HETATM    3  O   UNL     1     -43.127  53.878 -51.741  1.00  0.00    -0.268 OA
HETATM    4  H   UNL     1     -41.408  56.516 -51.476  1.00  0.00     0.162 HD
ENDROOT
BRANCH   2   5
HETATM    5  C   UNL     1     -41.494  54.391 -50.099  1.00  0.00     0.080 A 
HETATM    6  C   UNL     1     -40.625  53.277 -49.836  1.00  0.00     0.104 A 
HETATM    7  N   UNL     1     -40.081  53.375 -48.611  1.00  0.00    -0.174 NA
HETATM    8  N   UNL     1     -40.566  54.506 -48.102  1.00  0.00    -0.288 N 
HETATM    9  H   UNL     1     -40.281  54.769 -47.163  1.00  0.00     0.188 HD
HETATM   10  C   UNL     1     -41.412  55.159 -48.947  1.00  0.00     0.128 A 
BRANCH   6  11
HETATM   11  C   UNL     1     -40.276  52.128 -50.675  1.00  0.00    -0.002 A 
HETATM   12  C   UNL     1     -39.935  52.280 -52.022  1.00  0.00     0.056 A 
HETATM   13  C   UNL     1     -39.587  51.166 -52.779  1.00  0.00     0.117 A 
HETATM   14  F   UNL     1     -39.273  51.328 -54.073  1.00  0.00    -0.206 F 
HETATM   15  C   UNL     1     -39.549  49.893 -52.221  1.00  0.00     0.042 A 
HETATM   16  C   UNL     1     -39.867  49.730 -50.876  1.00  0.00     0.004 A 
HETATM   17  C   UNL     1     -40.226  50.841 -50.107  1.00  0.00     0.014 A 
ENDBRANCH   6  11
ENDBRANCH   2   5
BRANCH   1  18
HETATM   18  C   UNL     1     -42.857  56.312 -53.034  1.00  0.00     0.162 C 
BRANCH  18  19
HETATM   19  C   UNL     1     -42.112  56.357 -54.409  1.00  0.00     0.143 C 
HETATM   20  C   UNL     1     -42.898  55.794 -55.614  1.00  0.00     0.041 C 
HETATM   21  C   UNL     1     -42.656  54.289 -55.641  1.00  0.00     0.003 C 
HETATM   22  C   UNL     1     -41.382  54.054 -54.844  1.00  0.00     0.003 C 
HETATM   23  C   UNL     1     -40.874  55.434 -54.434  1.00  0.00     0.041 C 
BRANCH  19  24
HETATM   24  N   UNL     1     -41.680  57.832 -54.737  1.00  0.00    -0.065 N 
HETATM   25  H   UNL     1     -40.929  57.761 -55.438  1.00  0.00     0.280 HD
HETATM   26  C   UNL     1     -42.783  58.630 -55.434  1.00  0.00     0.270 C 
BRANCH  24  27
HETATM   27  C   UNL     1     -41.127  58.689 -53.604  1.00  0.00     0.231 C 
HETATM   28  C   UNL     1     -41.948  59.931 -53.335  1.00  0.00     0.034 C 
ENDBRANCH  24  27
ENDBRANCH  19  24
ENDBRANCH  18  19
ENDBRANCH   1  18
TORSDOF 6
ENDMDL
MODEL 3
REMARK VINA RESULT:      -7.8      3.466      4.942
REMARK  6 active torsions:
REMARK  status: ('A' for Active; 'I' for Inactive)
REMARK    1  A    between atoms: C_2  and  N_3 
REMARK    2  A    between atoms: N_3  and  C_5 
REMARK    3  A    between atoms: C_5  and  C_6 
REMARK    4  A    between atoms: C_6  and  N_7 
REMARK       I    between atoms: N_7  and  C_8 
REMARK    5  A    between atoms: C_8  and  C_9 
REMARK    6  A    between atoms: C_10  and  C_11 
ROOT
HETATM    1  N   UNL     1     -43.056  56.333 -50.588  1.00  0.00    -0.354 N 
HETATM    2  C   UNL     1     -42.803  54.973 -50.576  1.00  0.00     0.255 C 
HETATM    3  O   UNL     1     -43.615  54.186 -51.051  1.00  0.00    -0.268 OA
HETATM    4  H   UNL     1     -42.369  56.958 -50.185  1.00  0.00     0.162 HD
ENDROOT
BRANCH   2   5
HETATM    5  C   UNL     1     -41.524  54.577 -50.002  1.00  0.00     0.080 A 
HETATM    6  C   UNL     1     -40.442  53.852 -50.610  1.00  0.00     0.104 A 
HETATM    7  N   UNL     1     -39.447  53.650 -49.729  1.00  0.00    -0.174 NA
HETATM    8  N   UNL     1     -39.858  54.225 -48.600  1.00  0.00    -0.288 N 
HETATM    9  H   UNL     1     -39.246  54.181 -47.791  1.00  0.00     0.188 HD
HETATM   10  C   UNL     1     -41.089  54.799 -48.703  1.00  0.00     0.128 A 
BRANCH   6  11
HETATM   11  C   UNL     1     -40.292  53.342 -51.976  1.00  0.00    -0.002 A 
HETATM   12  C   UNL     1     -39.915  52.019 -52.226  1.00  0.00     0.056 A 
HETATM   13  C   UNL     1     -39.806  51.566 -53.537  1.00  0.00     0.117 A 
HETATM   14  F   UNL     1     -39.434  50.298 -53.762  1.00  0.00    -0.206 F 
HETATM   15  C   UNL     1     -40.083  52.398 -54.617  1.00  0.00     0.042 A 
HETATM   16  C   UNL     1     -40.479  53.711 -54.380  1.00  0.00     0.004 A 
HETATM   17  C   UNL     1     -40.584  54.179 -53.068  1.00  0.00     0.014 A 
ENDBRANCH   6  11
ENDBRANCH   2   5
BRANCH   1  18
HETATM   18  C   UNL     1     -44.307  56.867 -51.082  1.00  0.00     0.162 C 
BRANCH  18  19
HETATM   19  C   UNL     1     -44.228  57.825 -52.316  1.00  0.00     0.143 C 
HETATM   20  C   UNL     1     -42.873  58.538 -52.525  1.00  0.00     0.041 C 
HETATM   21  C   UNL     1     -42.896  59.799 -51.669  1.00  0.00     0.003 C 
HETATM   22  C   UNL     1     -44.363  60.099 -51.401  1.00  0.00     0.003 C 
HETATM   23  C   UNL     1     -45.160  59.047 -52.169  1.00  0.00     0.041 C 
BRANCH  19  24
HETATM   24  N   UNL     1     -44.588  57.040 -53.630  1.00  0.00    -0.065 N 
HETATM   25  H   UNL     1     -45.370  56.417 -53.386  1.00  0.00     0.280 HD
HETATM   26  C   UNL     1     -45.147  57.947 -54.727  1.00  0.00     0.270 C 
BRANCH  24  27
HETATM   27  C   UNL     1     -43.516  56.156 -54.256  1.00  0.00     0.231 C 
HETATM   28  C   UNL     1     -43.951  54.717 -54.432  1.00  0.00     0.034 C 
ENDBRANCH  24  27
ENDBRANCH  19  24
ENDBRANCH  18  19
ENDBRANCH   1  18
TORSDOF 6
ENDMDL
MODEL 4
REMARK VINA RESULT:      -7.7      3.888      6.735
REMARK  6 active torsions:
REMARK  status: ('A' for Active; 'I' for Inactive)
REMARK    1  A    between atoms: C_2  and  N_3 
REMARK    2  A    between atoms: N_3  and  C_5 
REMARK    3  A    between atoms: C_5  and  C_6 
REMARK    4  A    between atoms: C_6  and  N_7 
REMARK       I    between atoms: N_7  and  C_8 
REMARK    5  A    between atoms: C_8  and  C_9 
REMARK    6  A    between atoms: C_10  and  C_11 
ROOT
HETATM    1  N   UNL     1     -43.726  55.557 -52.588  1.00  0.00    -0.354 N 
HETATM    2  C   UNL     1     -43.846  55.896 -53.924  1.00  0.00     0.255 C 
HETATM    3  O   UNL     1     -43.614  55.067 -54.798  1.00  0.00    -0.268 OA
HETATM    4  H   UNL     1     -43.920  56.262 -51.889  1.00  0.00     0.162 HD
ENDROOT
BRANCH   2   5
HETATM    5  C   UNL     1     -44.285  57.260 -54.189  1.00  0.00     0.080 A 
HETATM    6  C   UNL     1     -43.693  58.501 -53.770  1.00  0.00     0.104 A 
HETATM    7  N   UNL     1     -44.429  59.545 -54.188  1.00  0.00    -0.174 NA
HETATM    8  N   UNL     1     -45.448  59.010 -54.856  1.00  0.00    -0.288 N 
HETATM    9  H   UNL     1     -46.139  59.637 -55.257  1.00  0.00     0.188 HD
HETATM   10  C   UNL     1     -45.413  57.649 -54.895  1.00  0.00     0.128 A 
BRANCH   6  11
HETATM   11  C   UNL     1     -42.473  58.758 -53.000  1.00  0.00    -0.002 A 
HETATM   12  C   UNL     1     -42.520  59.104 -51.646  1.00  0.00     0.056 A 
HETATM   13  C   UNL     1     -41.337  59.316 -50.945  1.00  0.00     0.117 A 
HETATM   14  F   UNL     1     -41.399  59.657 -49.650  1.00  0.00    -0.206 F 
HETATM   15  C   UNL     1     -40.096  59.175 -51.555  1.00  0.00     0.042 A 
HETATM   16  C   UNL     1     -40.036  58.811 -52.898  1.00  0.00     0.004 A 
HETATM   17  C   UNL     1     -41.217  58.603 -53.615  1.00  0.00     0.014 A 
ENDBRANCH   6  11
ENDBRANCH   2   5
BRANCH   1  18
HETATM   18  C   UNL     1     -43.253  54.253 -52.176  1.00  0.00     0.162 C 
BRANCH  18  19
HETATM   19  C   UNL     1     -41.708  54.083 -52.002  1.00  0.00     0.143 C 
HETATM   20  C   UNL     1     -41.259  53.252 -50.779  1.00  0.00     0.041 C 
HETATM   21  C   UNL     1     -41.191  54.206 -49.592  1.00  0.00     0.003 C 
HETATM   22  C   UNL     1     -41.074  55.603 -50.182  1.00  0.00     0.003 C 
HETATM   23  C   UNL     1     -41.003  55.423 -51.696  1.00  0.00     0.041 C 
BRANCH  19  24
HETATM   24  N   UNL     1     -41.088  53.443 -53.298  1.00  0.00    -0.065 N 
HETATM   25  H   UNL     1     -41.883  53.113 -53.862  1.00  0.00     0.280 HD
HETATM   26  C   UNL     1     -40.384  54.469 -54.186  1.00  0.00     0.270 C 
BRANCH  24  27
HETATM   27  C   UNL     1     -40.156  52.248 -53.133  1.00  0.00     0.231 C 
HETATM   28  C   UNL     1     -40.250  51.251 -54.267  1.00  0.00     0.034 C 
ENDBRANCH  24  27
ENDBRANCH  19  24
ENDBRANCH  18  19
ENDBRANCH   1  18
TORSDOF 6
ENDMDL
MODEL 5
REMARK VINA RESULT:      -7.6      3.657      6.631
REMARK  6 active torsions:
REMARK  status: ('A' for Active; 'I' for Inactive)
REMARK    1  A    between atoms: C_2  and  N_3 
REMARK    2  A    between atoms: N_3  and  C_5 
REMARK    3  A    between atoms: C_5  and  C_6 
REMARK    4  A    between atoms: C_6  and  N_7 
REMARK       I    between atoms: N_7  and  C_8 
REMARK    5  A    between atoms: C_8  and  C_9 
REMARK    6  A    between atoms: C_10  and  C_11 
ROOT
HETATM    1  N   UNL     1     -43.672  55.540 -53.236  1.00  0.00    -0.354 N 
HETATM    2  C   UNL     1     -43.808  56.164 -54.463  1.00  0.00     0.255 C 
HETATM    3  O   UNL     1     -43.589  55.548 -55.501  1.00  0.00    -0.268 OA
HETATM    4  H   UNL     1     -43.855  56.074 -52.396  1.00  0.00     0.162 HD
ENDROOT
BRANCH   2   5
HETATM    5  C   UNL     1     -44.249  57.552 -54.416  1.00  0.00     0.080 A 
HETATM    6  C   UNL     1     -43.690  58.657 -53.685  1.00  0.00     0.104 A 
HETATM    7  N   UNL     1     -44.417  59.771 -53.877  1.00  0.00    -0.174 NA
HETATM    8  N   UNL     1     -45.399  59.411 -54.701  1.00  0.00    -0.288 N 
HETATM    9  H   UNL     1     -46.077  60.117 -54.973  1.00  0.00     0.188 HD
HETATM   10  C   UNL     1     -45.348  58.099 -55.061  1.00  0.00     0.128 A 
BRANCH   6  11
HETATM   11  C   UNL     1     -42.509  58.722 -52.820  1.00  0.00    -0.002 A 
HETATM   12  C   UNL     1     -41.219  58.823 -53.348  1.00  0.00     0.056 A 
HETATM   13  C   UNL     1     -40.125  58.906 -52.493  1.00  0.00     0.117 A 
HETATM   14  F   UNL     1     -38.893  58.992 -53.014  1.00  0.00    -0.206 F 
HETATM   15  C   UNL     1     -40.284  58.911 -51.111  1.00  0.00     0.042 A 
HETATM   16  C   UNL     1     -41.565  58.831 -50.573  1.00  0.00     0.004 A 
HETATM   17  C   UNL     1     -42.671  58.739 -51.422  1.00  0.00     0.014 A 
ENDBRANCH   6  11
ENDBRANCH   2   5
BRANCH   1  18
HETATM   18  C   UNL     1     -43.194  54.177 -53.128  1.00  0.00     0.162 C 
BRANCH  18  19
HETATM   19  C   UNL     1     -41.683  53.983 -52.773  1.00  0.00     0.143 C 
HETATM   20  C   UNL     1     -40.768  55.195 -53.055  1.00  0.00     0.041 C 
HETATM   21  C   UNL     1     -40.338  55.100 -54.515  1.00  0.00     0.003 C 
HETATM   22  C   UNL     1     -40.535  53.646 -54.916  1.00  0.00     0.003 C 
HETATM   23  C   UNL     1     -41.006  52.916 -53.660  1.00  0.00     0.041 C 
BRANCH  19  24
HETATM   24  N   UNL     1     -41.534  53.585 -51.259  1.00  0.00    -0.065 N 
HETATM   25  H   UNL     1     -42.003  52.675 -51.155  1.00  0.00     0.280 HD
HETATM   26  C   UNL     1     -40.083  53.318 -50.858  1.00  0.00     0.270 C 
BRANCH  24  27
HETATM   27  C   UNL     1     -42.148  54.505 -50.210  1.00  0.00     0.231 C 
HETATM   28  C   UNL     1     -41.128  55.100 -49.263  1.00  0.00     0.034 C 
ENDBRANCH  24  27
ENDBRANCH  19  24
ENDBRANCH  18  19
ENDBRANCH   1  18
TORSDOF 6
ENDMDL
MODEL 6
REMARK VINA RESULT:      -7.5      3.150      6.200
REMARK  6 active torsions:
REMARK  status: ('A' for Active; 'I' for Inactive)
REMARK    1  A    between atoms: C_2  and  N_3 
REMARK    2  A    between atoms: N_3  and  C_5 
REMARK    3  A    between atoms: C_5  and  C_6 
REMARK    4  A    between atoms: C_6  and  N_7 
REMARK       I    between atoms: N_7  and  C_8 
REMARK    5  A    between atoms: C_8  and  C_9 
REMARK    6  A    between atoms: C_10  and  C_11 
ROOT
HETATM    1  N   UNL     1     -43.130  58.448 -53.688  1.00  0.00    -0.354 N 
HETATM    2  C   UNL     1     -42.137  58.310 -54.641  1.00  0.00     0.255 C 
HETATM    3  O   UNL     1     -41.189  59.090 -54.667  1.00  0.00    -0.268 OA
HETATM    4  H   UNL     1     -43.901  57.793 -53.693  1.00  0.00     0.162 HD
ENDROOT
BRANCH   2   5
HETATM    5  C   UNL     1     -42.292  57.184 -55.551  1.00  0.00     0.080 A 
HETATM    6  C   UNL     1     -42.250  55.776 -55.268  1.00  0.00     0.104 A 
HETATM    7  N   UNL     1     -42.397  55.057 -56.394  1.00  0.00    -0.174 NA
HETATM    8  N   UNL     1     -42.536  55.956 -57.367  1.00  0.00    -0.288 N 
HETATM    9  H   UNL     1     -42.655  55.618 -58.317  1.00  0.00     0.188 HD
HETATM   10  C   UNL     1     -42.487  57.243 -56.924  1.00  0.00     0.128 A 
BRANCH   6  11
HETATM   11  C   UNL     1     -42.084  55.069 -53.995  1.00  0.00    -0.002 A 
HETATM   12  C   UNL     1     -43.180  54.729 -53.196  1.00  0.00     0.056 A 
HETATM   13  C   UNL     1     -42.981  54.037 -52.006  1.00  0.00     0.117 A 
HETATM   14  F   UNL     1     -44.041  53.727 -51.246  1.00  0.00    -0.206 F 
HETATM   15  C   UNL     1     -41.710  53.654 -51.593  1.00  0.00     0.042 A 
HETATM   16  C   UNL     1     -40.612  53.969 -52.389  1.00  0.00     0.004 A 
HETATM   17  C   UNL     1     -40.798  54.671 -53.583  1.00  0.00     0.014 A 
ENDBRANCH   6  11
ENDBRANCH   2   5
BRANCH   1  18
HETATM   18  C   UNL     1     -43.132  59.550 -52.749  1.00  0.00     0.162 C 
BRANCH  18  19
HETATM   19  C   UNL     1     -42.903  59.195 -51.242  1.00  0.00     0.143 C 
HETATM   20  C   UNL     1     -41.687  59.874 -50.573  1.00  0.00     0.041 C 
HETATM   21  C   UNL     1     -40.472  59.001 -50.864  1.00  0.00     0.003 C 
HETATM   22  C   UNL     1     -41.018  57.623 -51.209  1.00  0.00     0.003 C 
HETATM   23  C   UNL     1     -42.533  57.710 -51.040  1.00  0.00     0.041 C 
BRANCH  19  24
HETATM   24  N   UNL     1     -44.191  59.538 -50.408  1.00  0.00    -0.065 N 
HETATM   25  H   UNL     1     -44.071  59.078 -49.495  1.00  0.00     0.280 HD
HETATM   26  C   UNL     1     -44.301  61.027 -50.076  1.00  0.00     0.270 C 
BRANCH  24  27
HETATM   27  C   UNL     1     -45.540  59.077 -50.946  1.00  0.00     0.231 C 
HETATM   28  C   UNL     1     -46.418  60.214 -51.420  1.00  0.00     0.034 C 
ENDBRANCH  24  27
ENDBRANCH  19  24
ENDBRANCH  18  19
ENDBRANCH   1  18
TORSDOF 6
ENDMDL
MODEL 7
REMARK VINA RESULT:      -7.4      3.749      5.491
REMARK  6 active torsions:
REMARK  status: ('A' for Active; 'I' for Inactive)
REMARK    1  A    between atoms: C_2  and  N_3 
REMARK    2  A    between atoms: N_3  and  C_5 
REMARK    3  A    between atoms: C_5  and  C_6 
REMARK    4  A    between atoms: C_6  and  N_7 
REMARK       I    between atoms: N_7  and  C_8 
REMARK    5  A    between atoms: C_8  and  C_9 
REMARK    6  A    between atoms: C_10  and  C_11 
ROOT
HETATM    1  N   UNL     1     -43.004  56.318 -50.768  1.00  0.00    -0.354 N 
HETATM    2  C   UNL     1     -42.817  54.959 -50.593  1.00  0.00     0.255 C 
HETATM    3  O   UNL     1     -43.682  54.162 -50.944  1.00  0.00    -0.268 OA
HETATM    4  H   UNL     1     -42.275  56.952 -50.466  1.00  0.00     0.162 HD
ENDROOT
BRANCH   2   5
HETATM    5  C   UNL     1     -41.539  54.571 -50.010  1.00  0.00     0.080 A 
HETATM    6  C   UNL     1     -40.487  53.774 -50.579  1.00  0.00     0.104 A 
HETATM    7  N   UNL     1     -39.484  53.610 -49.700  1.00  0.00    -0.174 NA
HETATM    8  N   UNL     1     -39.861  54.277 -48.611  1.00  0.00    -0.288 N 
HETATM    9  H   UNL     1     -39.237  54.275 -47.810  1.00  0.00     0.188 HD
HETATM   10  C   UNL     1     -41.077  54.876 -48.738  1.00  0.00     0.128 A 
BRANCH   6  11
HETATM   11  C   UNL     1     -40.373  53.161 -51.906  1.00  0.00    -0.002 A 
HETATM   12  C   UNL     1     -39.870  51.868 -52.075  1.00  0.00     0.056 A 
HETATM   13  C   UNL     1     -39.800  51.313 -53.348  1.00  0.00     0.117 A 
HETATM   14  F   UNL     1     -39.305  50.075 -53.495  1.00  0.00    -0.206 F 
HETATM   15  C   UNL     1     -40.238  52.010 -54.468  1.00  0.00     0.042 A 
HETATM   16  C   UNL     1     -40.759  53.291 -54.312  1.00  0.00     0.004 A 
HETATM   17  C   UNL     1     -40.828  53.862 -53.038  1.00  0.00     0.014 A 
ENDBRANCH   6  11
ENDBRANCH   2   5
BRANCH   1  18
HETATM   18  C   UNL     1     -44.244  56.852 -51.290  1.00  0.00     0.162 C 
BRANCH  18  19
HETATM   19  C   UNL     1     -44.136  57.848 -52.492  1.00  0.00     0.143 C 
HETATM   20  C   UNL     1     -44.742  57.356 -53.825  1.00  0.00     0.041 C 
HETATM   21  C   UNL     1     -43.665  56.539 -54.531  1.00  0.00     0.003 C 
HETATM   22  C   UNL     1     -42.341  56.972 -53.920  1.00  0.00     0.003 C 
HETATM   23  C   UNL     1     -42.673  58.083 -52.927  1.00  0.00     0.041 C 
BRANCH  19  24
HETATM   24  N   UNL     1     -44.803  59.220 -52.114  1.00  0.00    -0.065 N 
HETATM   25  H   UNL     1     -44.032  59.852 -51.857  1.00  0.00     0.280 HD
HETATM   26  C   UNL     1     -45.476  59.899 -53.308  1.00  0.00     0.270 C 
BRANCH  24  27
HETATM   27  C   UNL     1     -45.783  59.245 -50.947  1.00  0.00     0.231 C 
HETATM   28  C   UNL     1     -45.478  60.322 -49.929  1.00  0.00     0.034 C 
ENDBRANCH  24  27
ENDBRANCH  19  24
ENDBRANCH  18  19
ENDBRANCH   1  18
TORSDOF 6
ENDMDL
MODEL 8
REMARK VINA RESULT:      -7.3      1.729      2.868
REMARK  6 active torsions:
REMARK  status: ('A' for Active; 'I' for Inactive)
REMARK    1  A    between atoms: C_2  and  N_3 
REMARK    2  A    between atoms: N_3  and  C_5 
REMARK    3  A    between atoms: C_5  and  C_6 
REMARK    4  A    between atoms: C_6  and  N_7 
REMARK       I    between atoms: N_7  and  C_8 
REMARK    5  A    between atoms: C_8  and  C_9 
REMARK    6  A    between atoms: C_10  and  C_11 
ROOT
HETATM    1  N   UNL     1     -42.190  55.946 -55.662  1.00  0.00    -0.354 N 
HETATM    2  C   UNL     1     -42.774  55.301 -54.587  1.00  0.00     0.255 C 
HETATM    3  O   UNL     1     -43.710  54.527 -54.760  1.00  0.00    -0.268 OA
HETATM    4  H   UNL     1     -41.423  56.582 -55.489  1.00  0.00     0.162 HD
ENDROOT
BRANCH   2   5
HETATM    5  C   UNL     1     -42.181  55.585 -53.287  1.00  0.00     0.080 A 
HETATM    6  C   UNL     1     -41.288  54.777 -52.501  1.00  0.00     0.104 A 
HETATM    7  N   UNL     1     -41.000  55.381 -51.335  1.00  0.00    -0.174 NA
HETATM    8  N   UNL     1     -41.667  56.533 -51.363  1.00  0.00    -0.288 N 
HETATM    9  H   UNL     1     -41.591  57.150 -50.560  1.00  0.00     0.188 HD
HETATM   10  C   UNL     1     -42.386  56.713 -52.506  1.00  0.00     0.128 A 
BRANCH   6  11
HETATM   11  C   UNL     1     -40.690  53.471 -52.788  1.00  0.00    -0.002 A 
HETATM   12  C   UNL     1     -40.172  52.663 -51.771  1.00  0.00     0.056 A 
HETATM   13  C   UNL     1     -39.634  51.418 -52.082  1.00  0.00     0.117 A 
HETATM   14  F   UNL     1     -39.132  50.659 -51.098  1.00  0.00    -0.206 F 
HETATM   15  C   UNL     1     -39.613  50.943 -53.389  1.00  0.00     0.042 A 
HETATM   16  C   UNL     1     -40.143  51.730 -54.408  1.00  0.00     0.004 A 
HETATM   17  C   UNL     1     -40.680  52.985 -54.108  1.00  0.00     0.014 A 
ENDBRANCH   6  11
ENDBRANCH   2   5
BRANCH   1  18
HETATM   18  C   UNL     1     -42.706  55.797 -57.006  1.00  0.00     0.162 C 
BRANCH  18  19
HETATM   19  C   UNL     1     -43.165  57.102 -57.737  1.00  0.00     0.143 C 
HETATM   20  C   UNL     1     -44.321  56.932 -58.749  1.00  0.00     0.041 C 
HETATM   21  C   UNL     1     -43.694  56.523 -60.077  1.00  0.00     0.003 C 
HETATM   22  C   UNL     1     -42.237  56.955 -60.005  1.00  0.00     0.003 C 
HETATM   23  C   UNL     1     -42.070  57.669 -58.666  1.00  0.00     0.041 C 
BRANCH  19  24
HETATM   24  N   UNL     1     -43.581  58.191 -56.682  1.00  0.00    -0.065 N 
HETATM   25  H   UNL     1     -43.042  57.984 -55.829  1.00  0.00     0.280 HD
HETATM   26  C   UNL     1     -43.141  59.600 -57.081  1.00  0.00     0.270 C 
BRANCH  24  27
HETATM   27  C   UNL     1     -45.043  58.260 -56.258  1.00  0.00     0.231 C 
HETATM   28  C   UNL     1     -45.256  57.980 -54.786  1.00  0.00     0.034 C 
ENDBRANCH  24  27
ENDBRANCH  19  24
ENDBRANCH  18  19
ENDBRANCH   1  18
TORSDOF 6
ENDMDL
MODEL 9
REMARK VINA RESULT:      -7.3     14.690     16.251
REMARK  6 active torsions:
REMARK  status: ('A' for Active; 'I' for Inactive)
REMARK    1  A    between atoms: C_2  and  N_3 
REMARK    2  A    between atoms: N_3  and  C_5 
REMARK    3  A    between atoms: C_5  and  C_6 
REMARK    4  A    between atoms: C_6  and  N_7 
REMARK       I    between atoms: N_7  and  C_8 
REMARK    5  A    between atoms: C_8  and  C_9 
REMARK    6  A    between atoms: C_10  and  C_11 
ROOT
HETATM    1  N   UNL     1     -37.528  41.388 -54.696  1.00  0.00    -0.354 N 
HETATM    2  C   UNL     1     -36.834  41.652 -53.529  1.00  0.00     0.255 C 
HETATM    3  O   UNL     1     -36.048  42.591 -53.472  1.00  0.00    -0.268 OA
HETATM    4  H   UNL     1     -38.167  40.604 -54.715  1.00  0.00     0.162 HD
ENDROOT
BRANCH   2   5
HETATM    5  C   UNL     1     -37.134  40.770 -52.408  1.00  0.00     0.080 A 
HETATM    6  C   UNL     1     -36.229  40.108 -51.508  1.00  0.00     0.104 A 
HETATM    7  N   UNL     1     -36.903  39.346 -50.630  1.00  0.00    -0.174 NA
HETATM    8  N   UNL     1     -38.188  39.511 -50.937  1.00  0.00    -0.288 N 
HETATM    9  H   UNL     1     -38.879  39.008 -50.388  1.00  0.00     0.188 HD
HETATM   10  C   UNL     1     -38.388  40.355 -51.987  1.00  0.00     0.128 A 
BRANCH   6  11
HETATM   11  C   UNL     1     -34.767  40.155 -51.428  1.00  0.00    -0.002 A 
HETATM   12  C   UNL     1     -34.104  40.290 -50.205  1.00  0.00     0.056 A 
HETATM   13  C   UNL     1     -32.713  40.307 -50.169  1.00  0.00     0.117 A 
HETATM   14  F   UNL     1     -32.092  40.448 -48.989  1.00  0.00    -0.206 F 
HETATM   15  C   UNL     1     -31.956  40.172 -51.327  1.00  0.00     0.042 A 
HETATM   16  C   UNL     1     -32.604  40.016 -52.549  1.00  0.00     0.004 A 
HETATM   17  C   UNL     1     -34.000  40.006 -52.599  1.00  0.00     0.014 A 
ENDBRANCH   6  11
ENDBRANCH   2   5
BRANCH   1  18
HETATM   18  C   UNL     1     -37.297  42.151 -55.904  1.00  0.00     0.162 C 
BRANCH  18  19
HETATM   19  C   UNL     1     -36.641  41.393 -57.106  1.00  0.00     0.143 C 
HETATM   20  C   UNL     1     -36.243  39.925 -56.834  1.00  0.00     0.041 C 
HETATM   21  C   UNL     1     -34.851  39.948 -56.213  1.00  0.00     0.003 C 
HETATM   22  C   UNL     1     -34.242  41.288 -56.596  1.00  0.00     0.003 C 
HETATM   23  C   UNL     1     -35.266  41.983 -57.490  1.00  0.00     0.041 C 
BRANCH  19  24
HETATM   24  N   UNL     1     -37.600  41.430 -58.351  1.00  0.00    -0.065 N 
HETATM   25  H   UNL     1     -38.486  41.835 -58.019  1.00  0.00     0.280 HD
HETATM   26  C   UNL     1     -37.120  42.392 -59.438  1.00  0.00     0.270 C 
BRANCH  24  27
HETATM   27  C   UNL     1     -37.958  40.108 -59.021  1.00  0.00     0.231 C 
HETATM   28  C   UNL     1     -37.401  39.974 -60.421  1.00  0.00     0.034 C 
ENDBRANCH  24  27
ENDBRANCH  19  24
ENDBRANCH  18  19
ENDBRANCH   1  18
TORSDOF 6
ENDMDL
MODEL 10
REMARK VINA RESULT:      -7.2      3.411      5.180
REMARK  6 active torsions:
REMARK  status: ('A' for Active; 'I' for Inactive)
REMARK    1  A    between atoms: C_2  and  N_3 
REMARK    2  A    between atoms: N_3  and  C_5 
REMARK    3  A    between atoms: C_5  and  C_6 
REMARK    4  A    between atoms: C_6  and  N_7 
REMARK       I    between atoms: N_7  and  C_8 
REMARK    5  A    between atoms: C_8  and  C_9 
REMARK    6  A    between atoms: C_10  and  C_11 
ROOT
HETATM    1  N   UNL     1     -41.359  56.162 -51.948  1.00  0.00    -0.354 N 
HETATM    2  C   UNL     1     -41.756  54.914 -51.502  1.00  0.00     0.255 C 
HETATM    3  O   UNL     1     -42.486  54.211 -52.193  1.00  0.00    -0.268 OA
HETATM    4  H   UNL     1     -40.759  56.721 -51.355  1.00  0.00     0.162 HD
ENDROOT
BRANCH   2   5
HETATM    5  C   UNL     1     -41.225  54.512 -50.206  1.00  0.00     0.080 A 
HETATM    6  C   UNL     1     -40.581  53.283 -49.831  1.00  0.00     0.104 A 
HETATM    7  N   UNL     1     -40.272  53.285 -48.523  1.00  0.00    -0.174 NA
HETATM    8  N   UNL     1     -40.688  54.466 -48.068  1.00  0.00    -0.288 N 
HETATM    9  H   UNL     1     -40.554  54.672 -47.082  1.00  0.00     0.188 HD
HETATM   10  C   UNL     1     -41.261  55.243 -49.028  1.00  0.00     0.128 A 
BRANCH   6  11
HETATM   11  C   UNL     1     -40.237  52.108 -50.637  1.00  0.00    -0.002 A 
HETATM   12  C   UNL     1     -39.807  52.229 -51.962  1.00  0.00     0.056 A 
HETATM   13  C   UNL     1     -39.467  51.091 -52.686  1.00  0.00     0.117 A 
HETATM   14  F   UNL     1     -39.066  51.222 -53.959  1.00  0.00    -0.206 F 
HETATM   15  C   UNL     1     -39.526  49.824 -52.116  1.00  0.00     0.042 A 
HETATM   16  C   UNL     1     -39.934  49.692 -50.791  1.00  0.00     0.004 A 
HETATM   17  C   UNL     1     -40.285  50.827 -50.056  1.00  0.00     0.014 A 
ENDBRANCH   6  11
ENDBRANCH   2   5
BRANCH   1  18
HETATM   18  C   UNL     1     -41.847  56.712 -53.194  1.00  0.00     0.162 C 
BRANCH  18  19
HETATM   19  C   UNL     1     -43.114  57.626 -53.116  1.00  0.00     0.143 C 
HETATM   20  C   UNL     1     -44.386  57.065 -53.790  1.00  0.00     0.041 C 
HETATM   21  C   UNL     1     -44.318  57.451 -55.264  1.00  0.00     0.003 C 
HETATM   22  C   UNL     1     -43.352  58.624 -55.347  1.00  0.00     0.003 C 
HETATM   23  C   UNL     1     -42.939  58.939 -53.911  1.00  0.00     0.041 C 
BRANCH  19  24
HETATM   24  N   UNL     1     -43.447  57.956 -51.616  1.00  0.00    -0.065 N 
HETATM   25  H   UNL     1     -42.859  57.331 -51.048  1.00  0.00     0.280 HD
HETATM   26  C   UNL     1     -43.013  59.365 -51.210  1.00  0.00     0.270 C 
BRANCH  24  27
HETATM   27  C   UNL     1     -44.879  57.751 -51.135  1.00  0.00     0.231 C 
HETATM   28  C   UNL     1     -45.624  59.046 -50.898  1.00  0.00     0.034 C 
ENDBRANCH  24  27
ENDBRANCH  19  24
ENDBRANCH  18  19
ENDBRANCH   1  18
TORSDOF 6
ENDMDL
