MODEL 1
REMARK VINA RESULT:      -8.4      0.000      0.000
REMARK  3 active torsions:
REMARK  status: ('A' for Active; 'I' for Inactive)
REMARK    1  A    between atoms: C_3  and  O_4 
REMARK    2  A    between atoms: C_6  and  C_7 
REMARK    3  A    between atoms: N_8  and  N_9 
ROOT
HETATM    1  N   UNL     1     -42.937  56.620 -52.652  1.00  0.00    -0.189 N 
HETATM    2  C   UNL     1     -42.433  56.063 -53.836  1.00  0.00     0.298 A 
HETATM    3  O   UNL     1     -42.584  56.508 -54.970  1.00  0.00    -0.264 OA
HETATM    4  C   UNL     1     -41.735  54.845 -53.574  1.00  0.00     0.133 A 
HETATM    5  C   UNL     1     -41.532  54.340 -52.323  1.00  0.00     0.103 A 
HETATM    6  N   UNL     1     -41.959  54.985 -51.161  1.00  0.00    -0.239 NA
HETATM    7  C   UNL     1     -42.614  56.085 -51.404  1.00  0.00     0.239 A 
HETATM    8  N   UNL     1     -41.167  53.981 -54.469  1.00  0.00    -0.349 N 
HETATM    9  H   UNL     1     -41.159  54.111 -55.472  1.00  0.00     0.166 HD
HETATM   10  C   UNL     1     -40.623  52.904 -53.792  1.00  0.00     0.045 A 
HETATM   11  C   UNL     1     -40.840  53.115 -52.423  1.00  0.00     0.024 A 
HETATM   12  C   UNL     1     -39.959  51.774 -54.284  1.00  0.00     0.032 A 
HETATM   13  C   UNL     1     -39.508  50.834 -53.350  1.00  0.00     0.026 A 
HETATM   14  C   UNL     1     -39.715  51.025 -51.985  1.00  0.00     0.035 A 
HETATM   15 CL   UNL     1     -39.147  49.840 -50.870  1.00  0.00    -0.084 Cl
HETATM   16  C   UNL     1     -40.375  52.158 -51.502  1.00  0.00     0.040 A 
ENDROOT
BRANCH   1  17
HETATM   17  N   UNL     1     -43.588  57.832 -52.737  1.00  0.00    -0.175 NA
HETATM   18  C   UNL     1     -42.968  58.929 -52.410  1.00  0.00     0.150 C 
BRANCH  18  19
HETATM   19  C   UNL     1     -41.644  59.121 -51.783  1.00  0.00    -0.014 A 
HETATM   20  C   UNL     1     -40.523  59.073 -52.614  1.00  0.00     0.049 A 
HETATM   21  C   UNL     1     -39.259  59.263 -52.066  1.00  0.00     0.066 A 
HETATM   22  C   UNL     1     -39.097  59.511 -50.707  1.00  0.00     0.036 A 
HETATM   23  C   UNL     1     -40.221  59.585 -49.884  1.00  0.00     0.004 A 
HETATM   24  C   UNL     1     -41.497  59.403 -50.421  1.00  0.00     0.013 A 
BRANCH  21  25
HETATM   25  O   UNL     1     -38.190  59.199 -52.910  1.00  0.00    -0.361 OA
HETATM   26  H   UNL     1     -38.426  58.648 -53.675  1.00  0.00     0.217 HD
ENDBRANCH  21  25
ENDBRANCH  18  19
ENDBRANCH   1  17
TORSDOF 3
ENDMDL
MODEL 2
REMARK VINA RESULT:      -7.7      2.901      4.020
REMARK  3 active torsions:
REMARK  status: ('A' for Active; 'I' for Inactive)
REMARK    1  A    between atoms: C_3  and  O_4 
REMARK    2  A    between atoms: C_6  and  C_7 
REMARK    3  A    between atoms: N_8  and  N_9 
ROOT
HETATM    1  N   UNL     1     -43.941  56.404 -53.700  1.00  0.00    -0.189 N 
HETATM    2  C   UNL     1     -43.126  56.282 -52.565  1.00  0.00     0.298 A 
HETATM    3  O   UNL     1     -43.071  57.066 -51.622  1.00  0.00    -0.264 OA
HETATM    4  C   UNL     1     -42.298  55.121 -52.649  1.00  0.00     0.133 A 
HETATM    5  C   UNL     1     -42.355  54.221 -53.672  1.00  0.00     0.103 A 
HETATM    6  N   UNL     1     -43.260  54.325 -54.731  1.00  0.00    -0.239 NA
HETATM    7  C   UNL     1     -43.998  55.395 -54.663  1.00  0.00     0.239 A 
HETATM    8  N   UNL     1     -41.330  54.702 -51.779  1.00  0.00    -0.349 N 
HETATM    9  H   UNL     1     -41.079  55.177 -50.922  1.00  0.00     0.166 HD
HETATM   10  C   UNL     1     -40.745  53.544 -52.260  1.00  0.00     0.045 A 
HETATM   11  C   UNL     1     -41.386  53.218 -53.463  1.00  0.00     0.024 A 
HETATM   12  C   UNL     1     -39.710  52.769 -51.724  1.00  0.00     0.032 A 
HETATM   13  C   UNL     1     -39.319  51.631 -52.439  1.00  0.00     0.026 A 
HETATM   14  C   UNL     1     -39.944  51.289 -53.638  1.00  0.00     0.035 A 
HETATM   15 CL   UNL     1     -39.430  49.882 -54.488  1.00  0.00    -0.084 Cl
HETATM   16  C   UNL     1     -40.980  52.066 -54.164  1.00  0.00     0.040 A 
ENDROOT
BRANCH   1  17
HETATM   17  N   UNL     1     -44.840  57.449 -53.737  1.00  0.00    -0.175 NA
HETATM   18  C   UNL     1     -44.831  58.279 -54.739  1.00  0.00     0.150 C 
BRANCH  18  19
HETATM   19  C   UNL     1     -43.875  58.409 -55.858  1.00  0.00    -0.014 A 
HETATM   20  C   UNL     1     -43.002  59.499 -55.839  1.00  0.00     0.049 A 
HETATM   21  C   UNL     1     -42.077  59.651 -56.866  1.00  0.00     0.066 A 
HETATM   22  C   UNL     1     -42.002  58.728 -57.905  1.00  0.00     0.036 A 
HETATM   23  C   UNL     1     -42.858  57.627 -57.908  1.00  0.00     0.004 A 
HETATM   24  C   UNL     1     -43.787  57.457 -56.879  1.00  0.00     0.013 A 
BRANCH  21  25
HETATM   25  O   UNL     1     -41.250  60.733 -56.814  1.00  0.00    -0.361 OA
HETATM   26  H   UNL     1     -41.754  61.500 -56.495  1.00  0.00     0.217 HD
ENDBRANCH  21  25
ENDBRANCH  18  19
ENDBRANCH   1  17
TORSDOF 3
ENDMDL
MODEL 3
REMARK VINA RESULT:      -7.7      3.174      4.945
REMARK  3 active torsions:
REMARK  status: ('A' for Active; 'I' for Inactive)
REMARK    1  A    between atoms: C_3  and  O_4 
REMARK    2  A    between atoms: C_6  and  C_7 
REMARK    3  A    between atoms: N_8  and  N_9 
ROOT
HETATM    1  N   UNL     1     -43.879  56.323 -54.682  1.00  0.00    -0.189 N 
HETATM    2  C   UNL     1     -43.233  56.319 -53.437  1.00  0.00     0.298 A 
HETATM    3  O   UNL     1     -43.322  57.184 -52.570  1.00  0.00    -0.264 OA
HETATM    4  C   UNL     1     -42.390  55.174 -53.298  1.00  0.00     0.133 A 
HETATM    5  C   UNL     1     -42.291  54.187 -54.234  1.00  0.00     0.103 A 
HETATM    6  N   UNL     1     -43.035  54.177 -55.415  1.00  0.00    -0.239 NA
HETATM    7  C   UNL     1     -43.787  55.232 -55.549  1.00  0.00     0.239 A 
HETATM    8  N   UNL     1     -41.553  54.855 -52.266  1.00  0.00    -0.349 N 
HETATM    9  H   UNL     1     -41.431  55.409 -51.428  1.00  0.00     0.166 HD
HETATM   10  C   UNL     1     -40.893  53.674 -52.552  1.00  0.00     0.045 A 
HETATM   11  C   UNL     1     -41.351  53.229 -53.800  1.00  0.00     0.024 A 
HETATM   12  C   UNL     1     -39.937  52.972 -51.808  1.00  0.00     0.032 A 
HETATM   13  C   UNL     1     -39.436  51.786 -52.356  1.00  0.00     0.026 A 
HETATM   14  C   UNL     1     -39.879  51.326 -53.595  1.00  0.00     0.035 A 
HETATM   15 CL   UNL     1     -39.233  49.862 -54.234  1.00  0.00    -0.084 Cl
HETATM   16  C   UNL     1     -40.837  52.030 -54.330  1.00  0.00     0.040 A 
ENDROOT
BRANCH   1  17
HETATM   17  N   UNL     1     -44.773  57.339 -54.941  1.00  0.00    -0.175 NA
HETATM   18  C   UNL     1     -44.749  57.951 -56.089  1.00  0.00     0.150 C 
BRANCH  18  19
HETATM   19  C   UNL     1     -43.780  57.852 -57.199  1.00  0.00    -0.014 A 
HETATM   20  C   UNL     1     -44.147  57.090 -58.311  1.00  0.00     0.049 A 
HETATM   21  C   UNL     1     -43.269  56.982 -59.384  1.00  0.00     0.066 A 
HETATM   22  C   UNL     1     -42.037  57.630 -59.370  1.00  0.00     0.036 A 
HETATM   23  C   UNL     1     -41.685  58.411 -58.269  1.00  0.00     0.004 A 
HETATM   24  C   UNL     1     -42.560  58.535 -57.188  1.00  0.00     0.013 A 
BRANCH  21  25
HETATM   25  O   UNL     1     -43.661  56.222 -60.445  1.00  0.00    -0.361 OA
HETATM   26  H   UNL     1     -43.847  55.320 -60.135  1.00  0.00     0.217 HD
ENDBRANCH  21  25
ENDBRANCH  18  19
ENDBRANCH   1  17
TORSDOF 3
ENDMDL
MODEL 4
REMARK VINA RESULT:      -7.5      1.431      2.118
REMARK  3 active torsions:
REMARK  status: ('A' for Active; 'I' for Inactive)
REMARK    1  A    between atoms: C_3  and  O_4 
REMARK    2  A    between atoms: C_6  and  C_7 
REMARK    3  A    between atoms: N_8  and  N_9 
ROOT
HETATM    1  N   UNL     1     -43.508  56.302 -52.910  1.00  0.00    -0.189 N 
HETATM    2  C   UNL     1     -43.135  55.718 -51.691  1.00  0.00     0.298 A 
HETATM    3  O   UNL     1     -43.424  56.127 -50.570  1.00  0.00    -0.264 OA
HETATM    4  C   UNL     1     -42.308  54.572 -51.901  1.00  0.00     0.133 A 
HETATM    5  C   UNL     1     -41.990  54.082 -53.134  1.00  0.00     0.103 A 
HETATM    6  N   UNL     1     -42.473  54.633 -54.322  1.00  0.00    -0.239 NA
HETATM    7  C   UNL     1     -43.210  55.690 -54.128  1.00  0.00     0.239 A 
HETATM    8  N   UNL     1     -41.694  53.784 -50.968  1.00  0.00    -0.349 N 
HETATM    9  H   UNL     1     -41.763  53.912 -49.967  1.00  0.00     0.166 HD
HETATM   10  C   UNL     1     -40.957  52.801 -51.605  1.00  0.00     0.045 A 
HETATM   11  C   UNL     1     -41.135  52.970 -52.985  1.00  0.00     0.024 A 
HETATM   12  C   UNL     1     -40.157  51.785 -51.068  1.00  0.00     0.032 A 
HETATM   13  C   UNL     1     -39.522  50.921 -51.967  1.00  0.00     0.026 A 
HETATM   14  C   UNL     1     -39.686  51.072 -53.343  1.00  0.00     0.035 A 
HETATM   15 CL   UNL     1     -38.883  49.989 -54.415  1.00  0.00    -0.084 Cl
HETATM   16  C   UNL     1     -40.490  52.087 -53.871  1.00  0.00     0.040 A 
ENDROOT
BRANCH   1  17
HETATM   17  N   UNL     1     -44.358  57.387 -52.870  1.00  0.00    -0.175 NA
HETATM   18  C   UNL     1     -43.911  58.550 -52.494  1.00  0.00     0.150 C 
BRANCH  18  19
HETATM   19  C   UNL     1     -42.602  58.925 -51.921  1.00  0.00    -0.014 A 
HETATM   20  C   UNL     1     -41.478  58.795 -52.740  1.00  0.00     0.049 A 
HETATM   21  C   UNL     1     -40.229  59.151 -52.245  1.00  0.00     0.066 A 
HETATM   22  C   UNL     1     -40.084  59.645 -50.951  1.00  0.00     0.036 A 
HETATM   23  C   UNL     1     -41.212  59.798 -50.146  1.00  0.00     0.004 A 
HETATM   24  C   UNL     1     -42.475  59.452 -50.632  1.00  0.00     0.013 A 
BRANCH  21  25
HETATM   25  O   UNL     1     -39.156  58.999 -53.072  1.00  0.00    -0.361 OA
HETATM   26  H   UNL     1     -39.333  59.467 -53.905  1.00  0.00     0.217 HD
ENDBRANCH  21  25
ENDBRANCH  18  19
ENDBRANCH   1  17
TORSDOF 3
ENDMDL
MODEL 5
REMARK VINA RESULT:      -7.4     15.176     17.209
REMARK  3 active torsions:
REMARK  status: ('A' for Active; 'I' for Inactive)
REMARK    1  A    between atoms: C_3  and  O_4 
REMARK    2  A    between atoms: C_6  and  C_7 
REMARK    3  A    between atoms: N_8  and  N_9 
ROOT
HETATM    1  N   UNL     1     -36.129  40.859 -52.337  1.00  0.00    -0.189 N 
HETATM    2  C   UNL     1     -35.941  41.933 -53.219  1.00  0.00     0.298 A 
HETATM    3  O   UNL     1     -35.495  43.040 -52.930  1.00  0.00    -0.264 OA
HETATM    4  C   UNL     1     -36.385  41.602 -54.535  1.00  0.00     0.133 A 
HETATM    5  C   UNL     1     -36.862  40.374 -54.889  1.00  0.00     0.103 A 
HETATM    6  N   UNL     1     -36.932  39.298 -54.002  1.00  0.00    -0.239 NA
HETATM    7  C   UNL     1     -36.547  39.608 -52.797  1.00  0.00     0.239 A 
HETATM    8  N   UNL     1     -36.430  42.401 -55.644  1.00  0.00    -0.349 N 
HETATM    9  H   UNL     1     -36.127  43.366 -55.673  1.00  0.00     0.166 HD
HETATM   10  C   UNL     1     -36.964  41.692 -56.705  1.00  0.00     0.045 A 
HETATM   11  C   UNL     1     -37.242  40.396 -56.247  1.00  0.00     0.024 A 
HETATM   12  C   UNL     1     -37.215  42.095 -58.022  1.00  0.00     0.032 A 
HETATM   13  C   UNL     1     -37.768  41.148 -58.892  1.00  0.00     0.026 A 
HETATM   14  C   UNL     1     -38.052  39.855 -58.456  1.00  0.00     0.035 A 
HETATM   15 CL   UNL     1     -38.736  38.722 -59.559  1.00  0.00    -0.084 Cl
HETATM   16  C   UNL     1     -37.794  39.459 -57.140  1.00  0.00     0.040 A 
ENDROOT
BRANCH   1  17
HETATM   17  N   UNL     1     -35.693  41.008 -51.038  1.00  0.00    -0.175 NA
HETATM   18  C   UNL     1     -34.514  40.579 -50.694  1.00  0.00     0.150 C 
BRANCH  18  19
HETATM   19  C   UNL     1     -33.536  39.774 -51.455  1.00  0.00    -0.014 A 
HETATM   20  C   UNL     1     -32.961  40.358 -52.587  1.00  0.00     0.049 A 
HETATM   21  C   UNL     1     -32.025  39.641 -53.323  1.00  0.00     0.066 A 
HETATM   22  C   UNL     1     -31.645  38.357 -52.944  1.00  0.00     0.036 A 
HETATM   23  C   UNL     1     -32.202  37.788 -51.799  1.00  0.00     0.004 A 
HETATM   24  C   UNL     1     -33.137  38.499 -51.044  1.00  0.00     0.013 A 
BRANCH  21  25
HETATM   25  O   UNL     1     -31.495  40.243 -54.426  1.00  0.00    -0.361 OA
HETATM   26  H   UNL     1     -31.211  41.141 -54.188  1.00  0.00     0.217 HD
ENDBRANCH  21  25
ENDBRANCH  18  19
ENDBRANCH   1  17
TORSDOF 3
ENDMDL
MODEL 6
REMARK VINA RESULT:      -7.2     15.408     17.300
REMARK  3 active torsions:
REMARK  status: ('A' for Active; 'I' for Inactive)
REMARK    1  A    between atoms: C_3  and  O_4 
REMARK    2  A    between atoms: C_6  and  C_7 
REMARK    3  A    between atoms: N_8  and  N_9 
ROOT
HETATM    1  N   UNL     1     -36.993  41.807 -56.799  1.00  0.00    -0.189 N 
HETATM    2  C   UNL     1     -35.687  41.959 -56.309  1.00  0.00     0.298 A 
HETATM    3  O   UNL     1     -34.704  42.303 -56.958  1.00  0.00    -0.264 OA
HETATM    4  C   UNL     1     -35.612  41.610 -54.926  1.00  0.00     0.133 A 
HETATM    5  C   UNL     1     -36.692  41.247 -54.176  1.00  0.00     0.103 A 
HETATM    6  N   UNL     1     -37.994  41.213 -54.678  1.00  0.00    -0.239 NA
HETATM    7  C   UNL     1     -38.057  41.511 -55.944  1.00  0.00     0.239 A 
HETATM    8  N   UNL     1     -34.510  41.562 -54.120  1.00  0.00    -0.349 N 
HETATM    9  H   UNL     1     -33.569  41.792 -54.413  1.00  0.00     0.166 HD
HETATM   10  C   UNL     1     -34.878  41.141 -52.855  1.00  0.00     0.045 A 
HETATM   11  C   UNL     1     -36.265  40.938 -52.867  1.00  0.00     0.024 A 
HETATM   12  C   UNL     1     -34.096  40.928 -51.713  1.00  0.00     0.032 A 
HETATM   13  C   UNL     1     -34.752  40.495 -50.554  1.00  0.00     0.026 A 
HETATM   14  C   UNL     1     -36.130  40.288 -50.546  1.00  0.00     0.035 A 
HETATM   15 CL   UNL     1     -36.896  39.752 -49.099  1.00  0.00    -0.084 Cl
HETATM   16  C   UNL     1     -36.904  40.507 -51.689  1.00  0.00     0.040 A 
ENDROOT
BRANCH   1  17
HETATM   17  N   UNL     1     -37.235  42.162 -58.108  1.00  0.00    -0.175 NA
HETATM   18  C   UNL     1     -37.414  41.240 -59.009  1.00  0.00     0.150 C 
BRANCH  18  19
HETATM   19  C   UNL     1     -37.254  39.775 -58.916  1.00  0.00    -0.014 A 
HETATM   20  C   UNL     1     -35.974  39.251 -59.115  1.00  0.00     0.049 A 
HETATM   21  C   UNL     1     -35.777  37.878 -59.022  1.00  0.00     0.066 A 
HETATM   22  C   UNL     1     -36.832  37.021 -58.723  1.00  0.00     0.036 A 
HETATM   23  C   UNL     1     -38.103  37.550 -58.499  1.00  0.00     0.004 A 
HETATM   24  C   UNL     1     -38.315  38.928 -58.582  1.00  0.00     0.013 A 
BRANCH  21  25
HETATM   25  O   UNL     1     -34.515  37.406 -59.232  1.00  0.00    -0.361 OA
HETATM   26  H   UNL     1     -34.214  36.947 -58.432  1.00  0.00     0.217 HD
ENDBRANCH  21  25
ENDBRANCH  18  19
ENDBRANCH   1  17
TORSDOF 3
ENDMDL
MODEL 7
REMARK VINA RESULT:      -7.2      2.351      3.908
REMARK  3 active torsions:
REMARK  status: ('A' for Active; 'I' for Inactive)
REMARK    1  A    between atoms: C_3  and  O_4 
REMARK    2  A    between atoms: C_6  and  C_7 
REMARK    3  A    between atoms: N_8  and  N_9 
ROOT
HETATM    1  N   UNL     1     -41.215  56.594 -51.216  1.00  0.00    -0.189 N 
HETATM    2  C   UNL     1     -41.107  55.616 -50.217  1.00  0.00     0.298 A 
HETATM    3  O   UNL     1     -41.232  55.796 -49.008  1.00  0.00    -0.264 OA
HETATM    4  C   UNL     1     -40.776  54.344 -50.775  1.00  0.00     0.133 A 
HETATM    5  C   UNL     1     -40.654  54.112 -52.114  1.00  0.00     0.103 A 
HETATM    6  N   UNL     1     -40.877  55.092 -53.082  1.00  0.00    -0.239 NA
HETATM    7  C   UNL     1     -41.158  56.256 -52.569  1.00  0.00     0.239 A 
HETATM    8  N   UNL     1     -40.520  53.170 -50.124  1.00  0.00    -0.349 N 
HETATM    9  H   UNL     1     -40.548  53.048 -49.119  1.00  0.00     0.166 HD
HETATM   10  C   UNL     1     -40.206  52.187 -51.045  1.00  0.00     0.045 A 
HETATM   11  C   UNL     1     -40.289  52.765 -52.320  1.00  0.00     0.024 A 
HETATM   12  C   UNL     1     -39.860  50.845 -50.848  1.00  0.00     0.032 A 
HETATM   13  C   UNL     1     -39.591  50.075 -51.985  1.00  0.00     0.026 A 
HETATM   14  C   UNL     1     -39.669  50.630 -53.261  1.00  0.00     0.035 A 
HETATM   15 CL   UNL     1     -39.326  49.647 -54.634  1.00  0.00    -0.084 Cl
HETATM   16  C   UNL     1     -40.019  51.970 -53.450  1.00  0.00     0.040 A 
ENDROOT
BRANCH   1  17
HETATM   17  N   UNL     1     -41.588  57.866 -50.836  1.00  0.00    -0.175 NA
HETATM   18  C   UNL     1     -42.353  58.578 -51.610  1.00  0.00     0.150 C 
BRANCH  18  19
HETATM   19  C   UNL     1     -42.818  58.318 -52.988  1.00  0.00    -0.014 A 
HETATM   20  C   UNL     1     -43.915  57.468 -53.149  1.00  0.00     0.049 A 
HETATM   21  C   UNL     1     -44.394  57.208 -54.428  1.00  0.00     0.066 A 
HETATM   22  C   UNL     1     -43.804  57.789 -55.547  1.00  0.00     0.036 A 
HETATM   23  C   UNL     1     -42.725  58.657 -55.380  1.00  0.00     0.004 A 
HETATM   24  C   UNL     1     -42.238  58.935 -54.100  1.00  0.00     0.013 A 
BRANCH  21  25
HETATM   25  O   UNL     1     -45.460  56.366 -54.543  1.00  0.00    -0.361 OA
HETATM   26  H   UNL     1     -46.179  56.689 -53.975  1.00  0.00     0.217 HD
ENDBRANCH  21  25
ENDBRANCH  18  19
ENDBRANCH   1  17
TORSDOF 3
ENDMDL
MODEL 8
REMARK VINA RESULT:      -7.2      3.878      5.916
REMARK  3 active torsions:
REMARK  status: ('A' for Active; 'I' for Inactive)
REMARK    1  A    between atoms: C_3  and  O_4 
REMARK    2  A    between atoms: C_6  and  C_7 
REMARK    3  A    between atoms: N_8  and  N_9 
ROOT
HETATM    1  N   UNL     1     -43.496  58.768 -55.733  1.00  0.00    -0.189 N 
HETATM    2  C   UNL     1     -44.445  57.914 -55.151  1.00  0.00     0.298 A 
HETATM    3  O   UNL     1     -45.662  57.978 -55.293  1.00  0.00    -0.264 OA
HETATM    4  C   UNL     1     -43.818  56.951 -54.303  1.00  0.00     0.133 A 
HETATM    5  C   UNL     1     -42.467  56.844 -54.145  1.00  0.00     0.103 A 
HETATM    6  N   UNL     1     -41.553  57.646 -54.829  1.00  0.00    -0.239 NA
HETATM    7  C   UNL     1     -42.127  58.537 -55.586  1.00  0.00     0.239 A 
HETATM    8  N   UNL     1     -44.406  56.002 -53.514  1.00  0.00    -0.349 N 
HETATM    9  H   UNL     1     -45.404  55.848 -53.441  1.00  0.00     0.166 HD
HETATM   10  C   UNL     1     -43.432  55.301 -52.827  1.00  0.00     0.045 A 
HETATM   11  C   UNL     1     -42.188  55.818 -53.218  1.00  0.00     0.024 A 
HETATM   12  C   UNL     1     -43.556  54.258 -51.902  1.00  0.00     0.032 A 
HETATM   13  C   UNL     1     -42.377  53.732 -51.360  1.00  0.00     0.026 A 
HETATM   14  C   UNL     1     -41.131  54.232 -51.736  1.00  0.00     0.035 A 
HETATM   15 CL   UNL     1     -39.705  53.558 -51.042  1.00  0.00    -0.084 Cl
HETATM   16  C   UNL     1     -41.015  55.271 -52.663  1.00  0.00     0.040 A 
ENDROOT
BRANCH   1  17
HETATM   17  N   UNL     1     -43.946  59.717 -56.626  1.00  0.00    -0.175 NA
HETATM   18  C   UNL     1     -44.167  59.391 -57.866  1.00  0.00     0.150 C 
BRANCH  18  19
HETATM   19  C   UNL     1     -43.871  58.136 -58.586  1.00  0.00    -0.014 A 
HETATM   20  C   UNL     1     -42.608  58.010 -59.171  1.00  0.00     0.049 A 
HETATM   21  C   UNL     1     -42.284  56.839 -59.847  1.00  0.00     0.066 A 
HETATM   22  C   UNL     1     -43.193  55.789 -59.939  1.00  0.00     0.036 A 
HETATM   23  C   UNL     1     -44.443  55.908 -59.333  1.00  0.00     0.004 A 
HETATM   24  C   UNL     1     -44.780  57.075 -58.644  1.00  0.00     0.013 A 
BRANCH  21  25
HETATM   25  O   UNL     1     -41.045  56.759 -60.411  1.00  0.00    -0.361 OA
HETATM   26  H   UNL     1     -40.387  56.628 -59.708  1.00  0.00     0.217 HD
ENDBRANCH  21  25
ENDBRANCH  18  19
ENDBRANCH   1  17
TORSDOF 3
ENDMDL
MODEL 9
REMARK VINA RESULT:      -7.0      4.399      6.327
REMARK  3 active torsions:
REMARK  status: ('A' for Active; 'I' for Inactive)
REMARK    1  A    between atoms: C_3  and  O_4 
REMARK    2  A    between atoms: C_6  and  C_7 
REMARK    3  A    between atoms: N_8  and  N_9 
ROOT
HETATM    1  N   UNL     1     -41.283  57.894 -54.275  1.00  0.00    -0.189 N 
HETATM    2  C   UNL     1     -41.763  58.898 -55.129  1.00  0.00     0.298 A 
HETATM    3  O   UNL     1     -41.692  60.109 -54.939  1.00  0.00    -0.264 OA
HETATM    4  C   UNL     1     -42.411  58.335 -56.271  1.00  0.00     0.133 A 
HETATM    5  C   UNL     1     -42.484  56.996 -56.519  1.00  0.00     0.103 A 
HETATM    6  N   UNL     1     -41.897  56.034 -55.694  1.00  0.00    -0.239 NA
HETATM    7  C   UNL     1     -41.325  56.548 -54.643  1.00  0.00     0.239 A 
HETATM    8  N   UNL     1     -43.061  58.982 -57.285  1.00  0.00    -0.349 N 
HETATM    9  H   UNL     1     -43.156  59.986 -57.362  1.00  0.00     0.166 HD
HETATM   10  C   UNL     1     -43.577  58.054 -58.171  1.00  0.00     0.045 A 
HETATM   11  C   UNL     1     -43.217  56.782 -57.705  1.00  0.00     0.024 A 
HETATM   12  C   UNL     1     -44.324  58.244 -59.340  1.00  0.00     0.032 A 
HETATM   13  C   UNL     1     -44.715  57.101 -60.048  1.00  0.00     0.026 A 
HETATM   14  C   UNL     1     -44.367  55.827 -59.601  1.00  0.00     0.035 A 
HETATM   15 CL   UNL     1     -44.871  54.448 -60.501  1.00  0.00    -0.084 Cl
HETATM   16  C   UNL     1     -43.617  55.647 -58.435  1.00  0.00     0.040 A 
ENDROOT
BRANCH   1  17
HETATM   17  N   UNL     1     -40.581  58.283 -53.155  1.00  0.00    -0.175 NA
HETATM   18  C   UNL     1     -41.188  58.383 -52.008  1.00  0.00     0.150 C 
BRANCH  18  19
HETATM   19  C   UNL     1     -42.625  58.288 -51.682  1.00  0.00    -0.014 A 
HETATM   20  C   UNL     1     -43.109  57.051 -51.248  1.00  0.00     0.049 A 
HETATM   21  C   UNL     1     -44.453  56.922 -50.918  1.00  0.00     0.066 A 
HETATM   22  C   UNL     1     -45.319  58.008 -51.001  1.00  0.00     0.036 A 
HETATM   23  C   UNL     1     -44.828  59.247 -51.410  1.00  0.00     0.004 A 
HETATM   24  C   UNL     1     -43.478  59.394 -51.738  1.00  0.00     0.013 A 
BRANCH  21  25
HETATM   25  O   UNL     1     -44.886  55.696 -50.508  1.00  0.00    -0.361 OA
HETATM   26  H   UNL     1     -44.159  55.241 -50.053  1.00  0.00     0.217 HD
ENDBRANCH  21  25
ENDBRANCH  18  19
ENDBRANCH   1  17
TORSDOF 3
ENDMDL
MODEL 10
REMARK VINA RESULT:      -7.0      3.929      7.150
REMARK  3 active torsions:
REMARK  status: ('A' for Active; 'I' for Inactive)
REMARK    1  A    between atoms: C_3  and  O_4 
REMARK    2  A    between atoms: C_6  and  C_7 
REMARK    3  A    between atoms: N_8  and  N_9 
ROOT
HETATM    1  N   UNL     1     -42.020  55.558 -50.241  1.00  0.00    -0.189 N 
HETATM    2  C   UNL     1     -43.378  55.692 -50.566  1.00  0.00     0.298 A 
HETATM    3  O   UNL     1     -44.258  54.860 -50.368  1.00  0.00    -0.264 OA
HETATM    4  C   UNL     1     -43.629  56.936 -51.222  1.00  0.00     0.133 A 
HETATM    5  C   UNL     1     -42.676  57.888 -51.434  1.00  0.00     0.103 A 
HETATM    6  N   UNL     1     -41.356  57.758 -50.997  1.00  0.00    -0.239 NA
HETATM    7  C   UNL     1     -41.125  56.615 -50.418  1.00  0.00     0.239 A 
HETATM    8  N   UNL     1     -44.803  57.397 -51.750  1.00  0.00    -0.349 N 
HETATM    9  H   UNL     1     -45.683  56.898 -51.727  1.00  0.00     0.166 HD
HETATM   10  C   UNL     1     -44.596  58.638 -52.326  1.00  0.00     0.045 A 
HETATM   11  C   UNL     1     -43.248  58.971 -52.133  1.00  0.00     0.024 A 
HETATM   12  C   UNL     1     -45.492  59.481 -52.995  1.00  0.00     0.032 A 
HETATM   13  C   UNL     1     -44.995  60.696 -53.480  1.00  0.00     0.026 A 
HETATM   14  C   UNL     1     -43.658  61.046 -53.297  1.00  0.00     0.035 A 
HETATM   15 CL   UNL     1     -43.087  62.551 -53.914  1.00  0.00    -0.084 Cl
HETATM   16  C   UNL     1     -42.771  60.201 -52.625  1.00  0.00     0.040 A 
ENDROOT
BRANCH   1  17
HETATM   17  N   UNL     1     -41.632  54.431 -49.550  1.00  0.00    -0.175 NA
HETATM   18  C   UNL     1     -41.103  53.427 -50.187  1.00  0.00     0.150 C 
BRANCH  18  19
HETATM   19  C   UNL     1     -40.958  53.191 -51.638  1.00  0.00    -0.014 A 
HETATM   20  C   UNL     1     -40.012  52.248 -52.048  1.00  0.00     0.049 A 
HETATM   21  C   UNL     1     -39.854  51.986 -53.404  1.00  0.00     0.066 A 
HETATM   22  C   UNL     1     -40.630  52.640 -54.356  1.00  0.00     0.036 A 
HETATM   23  C   UNL     1     -41.592  53.561 -53.941  1.00  0.00     0.004 A 
HETATM   24  C   UNL     1     -41.768  53.829 -52.582  1.00  0.00     0.013 A 
BRANCH  21  25
HETATM   25  O   UNL     1     -38.913  51.067 -53.763  1.00  0.00    -0.361 OA
HETATM   26  H   UNL     1     -38.040  51.492 -53.759  1.00  0.00     0.217 HD
ENDBRANCH  21  25
ENDBRANCH  18  19
ENDBRANCH   1  17
TORSDOF 3
ENDMDL
