MODEL 1
REMARK VINA RESULT:      -8.3      0.000      0.000
REMARK  6 active torsions:
REMARK  status: ('A' for Active; 'I' for Inactive)
REMARK    1  A    between atoms: O_2  and  C_3 
REMARK    2  A    between atoms: C_6  and  C_7 
REMARK    3  A    between atoms: C_11  and  C_12 
REMARK       I    between atoms: C_12  and  N_13 
REMARK    4  A    between atoms: N_13  and  N_14 
REMARK       I    between atoms: N_14  and  C_15 
REMARK    5  A    between atoms: C_15  and  C_16 
REMARK    6  A    between atoms: C_17  and  C_18 
ROOT
HETATM    1  C   UNL     1     -43.560  58.702 -52.127  1.00  0.00     0.288 C 
HETATM    2  N   UNL     1     -43.676  58.832 -50.762  1.00  0.00    -0.262 N 
HETATM    3  O   UNL     1     -43.731  59.642 -52.898  1.00  0.00    -0.264 OA
HETATM    4  H   UNL     1     -43.476  58.080 -50.105  1.00  0.00     0.190 HD
ENDROOT
BRANCH   1   5
HETATM    5  C   UNL     1     -43.240  57.373 -52.575  1.00  0.00     0.121 A 
HETATM    6  N   UNL     1     -44.127  56.592 -53.260  1.00  0.00    -0.272 N 
HETATM    7  N   UNL     1     -43.660  55.374 -53.573  1.00  0.00    -0.174 NA
HETATM    8  H   UNL     1     -45.072  56.843 -53.540  1.00  0.00     0.189 HD
HETATM    9  C   UNL     1     -42.427  55.335 -53.043  1.00  0.00     0.089 A 
HETATM   10  C   UNL     1     -42.117  56.583 -52.435  1.00  0.00     0.071 A 
BRANCH   9  11
HETATM   11  C   UNL     1     -41.583  54.137 -53.112  1.00  0.00    -0.005 A 
HETATM   12  C   UNL     1     -40.901  53.675 -51.978  1.00  0.00     0.016 A 
HETATM   13  C   UNL     1     -40.092  52.530 -52.039  1.00  0.00     0.037 A 
HETATM   14  C   UNL     1     -39.951  51.835 -53.238  1.00  0.00     0.068 A 
HETATM   15  C   UNL     1     -40.621  52.294 -54.372  1.00  0.00     0.037 A 
HETATM   16  C   UNL     1     -41.429  53.433 -54.313  1.00  0.00     0.016 A 
BRANCH  14  17
HETATM   17  O   UNL     1     -39.197  50.712 -53.438  1.00  0.00    -0.356 OA
HETATM   18  C   UNL     1     -39.622  49.828 -54.467  1.00  0.00     0.210 C 
ENDBRANCH  14  17
ENDBRANCH   9  11
ENDBRANCH   1   5
BRANCH   2  19
HETATM   19  N   UNL     1     -44.074  60.047 -50.193  1.00  0.00    -0.263 N 
HETATM   20  C   UNL     1     -45.373  60.111 -49.734  1.00  0.00     0.271 C 
HETATM   21  O   UNL     1     -46.115  59.131 -49.743  1.00  0.00    -0.266 OA
HETATM   22  H   UNL     1     -43.441  60.838 -50.319  1.00  0.00     0.190 HD
BRANCH  20  23
HETATM   23  C   UNL     1     -45.902  61.434 -49.307  1.00  0.00     0.048 A 
HETATM   24  C   UNL     1     -45.925  61.902 -47.980  1.00  0.00     0.063 A 
HETATM   25  C   UNL     1     -46.455  63.184 -47.729  1.00  0.00     0.017 A 
HETATM   26  C   UNL     1     -46.972  63.968 -48.760  1.00  0.00     0.001 A 
HETATM   27  C   UNL     1     -46.973  63.487 -50.064  1.00  0.00     0.001 A 
HETATM   28  C   UNL     1     -46.443  62.227 -50.335  1.00  0.00     0.018 A 
BRANCH  24  29
HETATM   29  C   UNL     1     -45.426  61.074 -46.829  1.00  0.00     0.418 C 
HETATM   30  F   UNL     1     -44.100  60.792 -46.906  1.00  0.00    -0.166 F 
HETATM   31  F   UNL     1     -45.619  61.706 -45.636  1.00  0.00    -0.166 F 
HETATM   32  F   UNL     1     -46.054  59.871 -46.711  1.00  0.00    -0.166 F 
ENDBRANCH  24  29
ENDBRANCH  20  23
ENDBRANCH   2  19
TORSDOF 6
ENDMDL
MODEL 2
REMARK VINA RESULT:      -8.2      6.475     10.114
REMARK  6 active torsions:
REMARK  status: ('A' for Active; 'I' for Inactive)
REMARK    1  A    between atoms: O_2  and  C_3 
REMARK    2  A    between atoms: C_6  and  C_7 
REMARK    3  A    between atoms: C_11  and  C_12 
REMARK       I    between atoms: C_12  and  N_13 
REMARK    4  A    between atoms: N_13  and  N_14 
REMARK       I    between atoms: N_14  and  C_15 
REMARK    5  A    between atoms: C_15  and  C_16 
REMARK    6  A    between atoms: C_17  and  C_18 
ROOT
HETATM    1  C   UNL     1     -42.480  56.881 -56.432  1.00  0.00     0.288 C 
HETATM    2  N   UNL     1     -42.096  55.588 -56.705  1.00  0.00    -0.262 N 
HETATM    3  O   UNL     1     -42.061  57.505 -55.460  1.00  0.00    -0.264 OA
HETATM    4  H   UNL     1     -42.383  55.080 -57.538  1.00  0.00     0.190 HD
ENDROOT
BRANCH   1   5
HETATM    5  C   UNL     1     -43.422  57.434 -57.367  1.00  0.00     0.121 A 
HETATM    6  N   UNL     1     -43.669  58.775 -57.459  1.00  0.00    -0.272 N 
HETATM    7  N   UNL     1     -44.598  59.102 -58.370  1.00  0.00    -0.174 NA
HETATM    8  H   UNL     1     -43.229  59.515 -56.919  1.00  0.00     0.189 HD
HETATM    9  C   UNL     1     -45.008  57.927 -58.876  1.00  0.00     0.089 A 
HETATM   10  C   UNL     1     -44.271  56.860 -58.292  1.00  0.00     0.071 A 
BRANCH   9  11
HETATM   11  C   UNL     1     -46.076  57.836 -59.877  1.00  0.00    -0.005 A 
HETATM   12  C   UNL     1     -46.674  58.993 -60.395  1.00  0.00     0.016 A 
HETATM   13  C   UNL     1     -47.696  58.910 -61.353  1.00  0.00     0.037 A 
HETATM   14  C   UNL     1     -48.138  57.666 -61.801  1.00  0.00     0.068 A 
HETATM   15  C   UNL     1     -47.552  56.511 -61.284  1.00  0.00     0.037 A 
HETATM   16  C   UNL     1     -46.532  56.592 -60.332  1.00  0.00     0.016 A 
BRANCH  14  17
HETATM   17  O   UNL     1     -49.122  57.442 -62.723  1.00  0.00    -0.356 OA
HETATM   18  C   UNL     1     -50.084  58.473 -62.900  1.00  0.00     0.210 C 
ENDBRANCH  14  17
ENDBRANCH   9  11
ENDBRANCH   1   5
BRANCH   2  19
HETATM   19  N   UNL     1     -41.255  54.895 -55.828  1.00  0.00    -0.263 N 
HETATM   20  C   UNL     1     -41.858  53.962 -55.011  1.00  0.00     0.271 C 
HETATM   21  O   UNL     1     -43.054  53.690 -55.107  1.00  0.00    -0.266 OA
HETATM   22  H   UNL     1     -40.302  55.250 -55.732  1.00  0.00     0.190 HD
BRANCH  20  23
HETATM   23  C   UNL     1     -41.046  53.345 -53.928  1.00  0.00     0.048 A 
HETATM   24  C   UNL     1     -40.891  53.876 -52.635  1.00  0.00     0.063 A 
HETATM   25  C   UNL     1     -40.091  53.173 -51.711  1.00  0.00     0.017 A 
HETATM   26  C   UNL     1     -39.441  51.991 -52.069  1.00  0.00     0.001 A 
HETATM   27  C   UNL     1     -39.576  51.488 -53.357  1.00  0.00     0.001 A 
HETATM   28  C   UNL     1     -40.371  52.162 -54.281  1.00  0.00     0.018 A 
BRANCH  24  29
HETATM   29  C   UNL     1     -41.529  55.172 -52.218  1.00  0.00     0.418 C 
HETATM   30  F   UNL     1     -42.879  55.175 -52.362  1.00  0.00    -0.166 F 
HETATM   31  F   UNL     1     -41.278  55.456 -50.908  1.00  0.00    -0.166 F 
HETATM   32  F   UNL     1     -41.079  56.250 -52.918  1.00  0.00    -0.166 F 
ENDBRANCH  24  29
ENDBRANCH  20  23
ENDBRANCH   2  19
TORSDOF 6
ENDMDL
MODEL 3
REMARK VINA RESULT:      -8.2      7.512     10.545
REMARK  6 active torsions:
REMARK  status: ('A' for Active; 'I' for Inactive)
REMARK    1  A    between atoms: O_2  and  C_3 
REMARK    2  A    between atoms: C_6  and  C_7 
REMARK    3  A    between atoms: C_11  and  C_12 
REMARK       I    between atoms: C_12  and  N_13 
REMARK    4  A    between atoms: N_13  and  N_14 
REMARK       I    between atoms: N_14  and  C_15 
REMARK    5  A    between atoms: C_15  and  C_16 
REMARK    6  A    between atoms: C_17  and  C_18 
ROOT
HETATM    1  C   UNL     1     -42.720  56.909 -56.933  1.00  0.00     0.288 C 
HETATM    2  N   UNL     1     -42.113  55.679 -56.819  1.00  0.00    -0.262 N 
HETATM    3  O   UNL     1     -42.628  57.775 -56.066  1.00  0.00    -0.264 OA
HETATM    4  H   UNL     1     -42.125  54.975 -57.554  1.00  0.00     0.190 HD
ENDROOT
BRANCH   1   5
HETATM    5  C   UNL     1     -43.480  57.091 -58.140  1.00  0.00     0.121 A 
HETATM    6  N   UNL     1     -42.903  57.425 -59.332  1.00  0.00    -0.272 N 
HETATM    7  N   UNL     1     -43.774  57.576 -60.342  1.00  0.00    -0.174 NA
HETATM    8  H   UNL     1     -41.913  57.564 -59.513  1.00  0.00     0.189 HD
HETATM    9  C   UNL     1     -44.979  57.369 -59.787  1.00  0.00     0.089 A 
HETATM   10  C   UNL     1     -44.832  57.032 -58.413  1.00  0.00     0.071 A 
BRANCH   9  11
HETATM   11  C   UNL     1     -46.225  57.500 -60.549  1.00  0.00    -0.005 A 
HETATM   12  C   UNL     1     -46.800  58.759 -60.773  1.00  0.00     0.016 A 
HETATM   13  C   UNL     1     -47.991  58.889 -61.501  1.00  0.00     0.037 A 
HETATM   14  C   UNL     1     -48.628  57.759 -62.011  1.00  0.00     0.068 A 
HETATM   15  C   UNL     1     -48.066  56.503 -61.786  1.00  0.00     0.037 A 
HETATM   16  C   UNL     1     -46.877  56.371 -61.063  1.00  0.00     0.016 A 
BRANCH  14  17
HETATM   17  O   UNL     1     -49.789  57.741 -62.733  1.00  0.00    -0.356 OA
HETATM   18  C   UNL     1     -50.733  58.767 -62.456  1.00  0.00     0.210 C 
ENDBRANCH  14  17
ENDBRANCH   9  11
ENDBRANCH   1   5
BRANCH   2  19
HETATM   19  N   UNL     1     -41.417  55.333 -55.656  1.00  0.00    -0.263 N 
HETATM   20  C   UNL     1     -42.066  54.483 -54.785  1.00  0.00     0.271 C 
HETATM   21  O   UNL     1     -43.159  53.986 -55.054  1.00  0.00    -0.266 OA
HETATM   22  H   UNL     1     -40.570  55.866 -55.455  1.00  0.00     0.190 HD
BRANCH  20  23
HETATM   23  C   UNL     1     -41.457  54.245 -53.449  1.00  0.00     0.048 A 
HETATM   24  C   UNL     1     -40.634  53.152 -53.122  1.00  0.00     0.063 A 
HETATM   25  C   UNL     1     -40.123  53.064 -51.811  1.00  0.00     0.017 A 
HETATM   26  C   UNL     1     -40.441  54.019 -50.845  1.00  0.00     0.001 A 
HETATM   27  C   UNL     1     -41.278  55.080 -51.167  1.00  0.00     0.001 A 
HETATM   28  C   UNL     1     -41.784  55.192 -52.460  1.00  0.00     0.018 A 
BRANCH  24  29
HETATM   29  C   UNL     1     -40.304  52.071 -54.114  1.00  0.00     0.418 C 
HETATM   30  F   UNL     1     -39.804  52.551 -55.282  1.00  0.00    -0.166 F 
HETATM   31  F   UNL     1     -39.374  51.205 -53.621  1.00  0.00    -0.166 F 
HETATM   32  F   UNL     1     -41.375  51.302 -54.457  1.00  0.00    -0.166 F 
ENDBRANCH  24  29
ENDBRANCH  20  23
ENDBRANCH   2  19
TORSDOF 6
ENDMDL
MODEL 4
REMARK VINA RESULT:      -8.1      6.761     10.337
REMARK  6 active torsions:
REMARK  status: ('A' for Active; 'I' for Inactive)
REMARK    1  A    between atoms: O_2  and  C_3 
REMARK    2  A    between atoms: C_6  and  C_7 
REMARK    3  A    between atoms: C_11  and  C_12 
REMARK       I    between atoms: C_12  and  N_13 
REMARK    4  A    between atoms: N_13  and  N_14 
REMARK       I    between atoms: N_14  and  C_15 
REMARK    5  A    between atoms: C_15  and  C_16 
REMARK    6  A    between atoms: C_17  and  C_18 
ROOT
HETATM    1  C   UNL     1     -43.041  55.594 -55.487  1.00  0.00     0.288 C 
HETATM    2  N   UNL     1     -42.016  54.699 -55.691  1.00  0.00    -0.262 N 
HETATM    3  O   UNL     1     -43.780  55.543 -54.507  1.00  0.00    -0.264 OA
HETATM    4  H   UNL     1     -41.356  54.765 -56.463  1.00  0.00     0.190 HD
ENDROOT
BRANCH   1   5
HETATM    5  C   UNL     1     -43.187  56.581 -56.523  1.00  0.00     0.121 A 
HETATM    6  N   UNL     1     -44.327  56.708 -57.266  1.00  0.00    -0.272 N 
HETATM    7  N   UNL     1     -44.269  57.667 -58.203  1.00  0.00    -0.174 NA
HETATM    8  H   UNL     1     -45.179  56.162 -57.175  1.00  0.00     0.189 HD
HETATM    9  C   UNL     1     -43.028  58.171 -58.099  1.00  0.00     0.089 A 
HETATM   10  C   UNL     1     -42.330  57.535 -57.036  1.00  0.00     0.071 A 
BRANCH   9  11
HETATM   11  C   UNL     1     -42.531  59.218 -58.997  1.00  0.00    -0.005 A 
HETATM   12  C   UNL     1     -42.065  60.438 -58.488  1.00  0.00     0.016 A 
HETATM   13  C   UNL     1     -41.589  61.443 -59.343  1.00  0.00     0.037 A 
HETATM   14  C   UNL     1     -41.577  61.243 -60.722  1.00  0.00     0.068 A 
HETATM   15  C   UNL     1     -42.046  60.034 -61.236  1.00  0.00     0.037 A 
HETATM   16  C   UNL     1     -42.518  59.030 -60.385  1.00  0.00     0.016 A 
BRANCH  14  17
HETATM   17  O   UNL     1     -41.145  62.132 -61.665  1.00  0.00    -0.356 OA
HETATM   18  C   UNL     1     -39.972  62.875 -61.358  1.00  0.00     0.210 C 
ENDBRANCH  14  17
ENDBRANCH   9  11
ENDBRANCH   1   5
BRANCH   2  19
HETATM   19  N   UNL     1     -41.818  53.630 -54.810  1.00  0.00    -0.263 N 
HETATM   20  C   UNL     1     -40.510  53.351 -54.472  1.00  0.00     0.271 C 
HETATM   21  O   UNL     1     -39.576  54.054 -54.853  1.00  0.00    -0.266 OA
HETATM   22  H   UNL     1     -42.626  53.034 -54.625  1.00  0.00     0.190 HD
BRANCH  20  23
HETATM   23  C   UNL     1     -40.233  52.108 -53.703  1.00  0.00     0.048 A 
HETATM   24  C   UNL     1     -40.263  52.006 -52.300  1.00  0.00     0.063 A 
HETATM   25  C   UNL     1     -39.982  50.756 -51.712  1.00  0.00     0.017 A 
HETATM   26  C   UNL     1     -39.656  49.646 -52.491  1.00  0.00     0.001 A 
HETATM   27  C   UNL     1     -39.600  49.762 -53.875  1.00  0.00     0.001 A 
HETATM   28  C   UNL     1     -39.885  50.986 -54.477  1.00  0.00     0.018 A 
BRANCH  24  29
HETATM   29  C   UNL     1     -40.559  53.185 -51.415  1.00  0.00     0.418 C 
HETATM   30  F   UNL     1     -39.845  54.293 -51.743  1.00  0.00    -0.166 F 
HETATM   31  F   UNL     1     -41.873  53.539 -51.475  1.00  0.00    -0.166 F 
HETATM   32  F   UNL     1     -40.302  52.954 -50.097  1.00  0.00    -0.166 F 
ENDBRANCH  24  29
ENDBRANCH  20  23
ENDBRANCH   2  19
TORSDOF 6
ENDMDL
MODEL 5
REMARK VINA RESULT:      -8.1      1.479      1.932
REMARK  6 active torsions:
REMARK  status: ('A' for Active; 'I' for Inactive)
REMARK    1  A    between atoms: O_2  and  C_3 
REMARK    2  A    between atoms: C_6  and  C_7 
REMARK    3  A    between atoms: C_11  and  C_12 
REMARK       I    between atoms: C_12  and  N_13 
REMARK    4  A    between atoms: N_13  and  N_14 
REMARK       I    between atoms: N_14  and  C_15 
REMARK    5  A    between atoms: C_15  and  C_16 
REMARK    6  A    between atoms: C_17  and  C_18 
ROOT
HETATM    1  C   UNL     1     -44.446  57.611 -50.847  1.00  0.00     0.288 C 
HETATM    2  N   UNL     1     -44.147  58.924 -50.565  1.00  0.00    -0.262 N 
HETATM    3  O   UNL     1     -45.599  57.188 -50.881  1.00  0.00    -0.264 OA
HETATM    4  H   UNL     1     -43.203  59.306 -50.595  1.00  0.00     0.190 HD
ENDROOT
BRANCH   1   5
HETATM    5  C   UNL     1     -43.300  56.774 -51.082  1.00  0.00     0.121 A 
HETATM    6  N   UNL     1     -42.034  57.140 -50.723  1.00  0.00    -0.272 N 
HETATM    7  N   UNL     1     -41.090  56.243 -51.046  1.00  0.00    -0.174 NA
HETATM    8  H   UNL     1     -41.756  57.997 -50.253  1.00  0.00     0.189 HD
HETATM    9  C   UNL     1     -41.754  55.260 -51.675  1.00  0.00     0.089 A 
HETATM   10  C   UNL     1     -43.147  55.544 -51.690  1.00  0.00     0.071 A 
BRANCH   9  11
HETATM   11  C   UNL     1     -41.071  54.096 -52.249  1.00  0.00    -0.005 A 
HETATM   12  C   UNL     1     -41.096  53.859 -53.630  1.00  0.00     0.016 A 
HETATM   13  C   UNL     1     -40.444  52.747 -54.183  1.00  0.00     0.037 A 
HETATM   14  C   UNL     1     -39.762  51.853 -53.360  1.00  0.00     0.068 A 
HETATM   15  C   UNL     1     -39.738  52.079 -51.984  1.00  0.00     0.037 A 
HETATM   16  C   UNL     1     -40.385  53.189 -51.431  1.00  0.00     0.016 A 
BRANCH  14  17
HETATM   17  O   UNL     1     -39.089  50.733 -53.764  1.00  0.00    -0.356 OA
HETATM   18  C   UNL     1     -39.802  49.815 -54.582  1.00  0.00     0.210 C 
ENDBRANCH  14  17
ENDBRANCH   9  11
ENDBRANCH   1   5
BRANCH   2  19
HETATM   19  N   UNL     1     -45.159  59.829 -50.226  1.00  0.00    -0.263 N 
HETATM   20  C   UNL     1     -44.748  61.045 -49.721  1.00  0.00     0.271 C 
HETATM   21  O   UNL     1     -43.559  61.353 -49.654  1.00  0.00    -0.266 OA
HETATM   22  H   UNL     1     -46.112  59.462 -50.209  1.00  0.00     0.190 HD
BRANCH  20  23
HETATM   23  C   UNL     1     -45.780  61.958 -49.161  1.00  0.00     0.048 A 
HETATM   24  C   UNL     1     -46.196  61.977 -47.818  1.00  0.00     0.063 A 
HETATM   25  C   UNL     1     -47.184  62.907 -47.434  1.00  0.00     0.017 A 
HETATM   26  C   UNL     1     -47.761  63.775 -48.361  1.00  0.00     0.001 A 
HETATM   27  C   UNL     1     -47.365  63.731 -49.692  1.00  0.00     0.001 A 
HETATM   28  C   UNL     1     -46.382  62.827 -50.090  1.00  0.00     0.018 A 
BRANCH  24  29
HETATM   29  C   UNL     1     -45.642  61.028 -46.792  1.00  0.00     0.418 C 
HETATM   30  F   UNL     1     -46.116  61.256 -45.540  1.00  0.00    -0.166 F 
HETATM   31  F   UNL     1     -45.944  59.733 -47.092  1.00  0.00    -0.166 F 
HETATM   32  F   UNL     1     -44.284  61.072 -46.688  1.00  0.00    -0.166 F 
ENDBRANCH  24  29
ENDBRANCH  20  23
ENDBRANCH   2  19
TORSDOF 6
ENDMDL
MODEL 6
REMARK VINA RESULT:      -8.0      6.832     10.098
REMARK  6 active torsions:
REMARK  status: ('A' for Active; 'I' for Inactive)
REMARK    1  A    between atoms: O_2  and  C_3 
REMARK    2  A    between atoms: C_6  and  C_7 
REMARK    3  A    between atoms: C_11  and  C_12 
REMARK       I    between atoms: C_12  and  N_13 
REMARK    4  A    between atoms: N_13  and  N_14 
REMARK       I    between atoms: N_14  and  C_15 
REMARK    5  A    between atoms: C_15  and  C_16 
REMARK    6  A    between atoms: C_17  and  C_18 
ROOT
HETATM    1  C   UNL     1     -42.944  55.901 -56.273  1.00  0.00     0.288 C 
HETATM    2  N   UNL     1     -42.855  56.370 -54.983  1.00  0.00    -0.262 N 
HETATM    3  O   UNL     1     -42.868  54.707 -56.550  1.00  0.00    -0.264 OA
HETATM    4  H   UNL     1     -42.979  57.348 -54.729  1.00  0.00     0.190 HD
ENDROOT
BRANCH   1   5
HETATM    5  C   UNL     1     -43.116  56.923 -57.270  1.00  0.00     0.121 A 
HETATM    6  N   UNL     1     -44.272  57.070 -57.983  1.00  0.00    -0.272 N 
HETATM    7  N   UNL     1     -44.238  58.063 -58.886  1.00  0.00    -0.174 NA
HETATM    8  H   UNL     1     -45.119  56.517 -57.893  1.00  0.00     0.189 HD
HETATM    9  C   UNL     1     -42.998  58.569 -58.791  1.00  0.00     0.089 A 
HETATM   10  C   UNL     1     -42.275  57.899 -57.766  1.00  0.00     0.071 A 
BRANCH   9  11
HETATM   11  C   UNL     1     -42.525  59.650 -59.662  1.00  0.00    -0.005 A 
HETATM   12  C   UNL     1     -42.757  59.612 -61.043  1.00  0.00     0.016 A 
HETATM   13  C   UNL     1     -42.307  60.644 -61.880  1.00  0.00     0.037 A 
HETATM   14  C   UNL     1     -41.611  61.727 -61.345  1.00  0.00     0.068 A 
HETATM   15  C   UNL     1     -41.370  61.768 -59.971  1.00  0.00     0.037 A 
HETATM   16  C   UNL     1     -41.821  60.741 -59.136  1.00  0.00     0.016 A 
BRANCH  14  17
HETATM   17  O   UNL     1     -41.116  62.794 -62.041  1.00  0.00    -0.356 OA
HETATM   18  C   UNL     1     -39.701  62.891 -62.148  1.00  0.00     0.210 C 
ENDBRANCH  14  17
ENDBRANCH   9  11
ENDBRANCH   1   5
BRANCH   2  19
HETATM   19  N   UNL     1     -42.595  55.494 -53.923  1.00  0.00    -0.263 N 
HETATM   20  C   UNL     1     -41.345  55.584 -53.347  1.00  0.00     0.271 C 
HETATM   21  O   UNL     1     -40.534  56.444 -53.686  1.00  0.00    -0.266 OA
HETATM   22  H   UNL     1     -43.273  54.745 -53.773  1.00  0.00     0.190 HD
BRANCH  20  23
HETATM   23  C   UNL     1     -40.951  54.547 -52.357  1.00  0.00     0.048 A 
HETATM   24  C   UNL     1     -40.501  53.254 -52.679  1.00  0.00     0.063 A 
HETATM   25  C   UNL     1     -40.157  52.380 -51.628  1.00  0.00     0.017 A 
HETATM   26  C   UNL     1     -40.281  52.769 -50.294  1.00  0.00     0.001 A 
HETATM   27  C   UNL     1     -40.753  54.038 -49.982  1.00  0.00     0.001 A 
HETATM   28  C   UNL     1     -41.088  54.921 -51.007  1.00  0.00     0.018 A 
BRANCH  24  29
HETATM   29  C   UNL     1     -40.399  52.771 -54.099  1.00  0.00     0.418 C 
HETATM   30  F   UNL     1     -39.699  51.614 -54.222  1.00  0.00    -0.166 F 
HETATM   31  F   UNL     1     -41.628  52.540 -54.641  1.00  0.00    -0.166 F 
HETATM   32  F   UNL     1     -39.793  53.661 -54.935  1.00  0.00    -0.166 F 
ENDBRANCH  24  29
ENDBRANCH  20  23
ENDBRANCH   2  19
TORSDOF 6
ENDMDL
MODEL 7
REMARK VINA RESULT:      -8.0      7.538      8.726
REMARK  6 active torsions:
REMARK  status: ('A' for Active; 'I' for Inactive)
REMARK    1  A    between atoms: O_2  and  C_3 
REMARK    2  A    between atoms: C_6  and  C_7 
REMARK    3  A    between atoms: C_11  and  C_12 
REMARK       I    between atoms: C_12  and  N_13 
REMARK    4  A    between atoms: N_13  and  N_14 
REMARK       I    between atoms: N_14  and  C_15 
REMARK    5  A    between atoms: C_15  and  C_16 
REMARK    6  A    between atoms: C_17  and  C_18 
ROOT
HETATM    1  C   UNL     1     -43.463  56.744 -57.149  1.00  0.00     0.288 C 
HETATM    2  N   UNL     1     -44.709  57.326 -57.095  1.00  0.00    -0.262 N 
HETATM    3  O   UNL     1     -42.685  56.932 -58.081  1.00  0.00    -0.264 OA
HETATM    4  H   UNL     1     -45.340  57.233 -56.301  1.00  0.00     0.190 HD
ENDROOT
BRANCH   1   5
HETATM    5  C   UNL     1     -43.155  55.887 -56.037  1.00  0.00     0.121 A 
HETATM    6  N   UNL     1     -43.950  55.803 -54.929  1.00  0.00    -0.272 N 
HETATM    7  N   UNL     1     -43.489  54.970 -53.982  1.00  0.00    -0.174 NA
HETATM    8  H   UNL     1     -44.824  56.296 -54.765  1.00  0.00     0.189 HD
HETATM    9  C   UNL     1     -42.323  54.513 -54.469  1.00  0.00     0.089 A 
HETATM   10  C   UNL     1     -42.096  55.043 -55.769  1.00  0.00     0.071 A 
BRANCH   9  11
HETATM   11  C   UNL     1     -41.458  53.607 -53.707  1.00  0.00    -0.005 A 
HETATM   12  C   UNL     1     -40.786  52.554 -54.341  1.00  0.00     0.016 A 
HETATM   13  C   UNL     1     -39.957  51.685 -53.616  1.00  0.00     0.037 A 
HETATM   14  C   UNL     1     -39.794  51.855 -52.242  1.00  0.00     0.068 A 
HETATM   15  C   UNL     1     -40.465  52.898 -51.603  1.00  0.00     0.037 A 
HETATM   16  C   UNL     1     -41.290  53.766 -52.325  1.00  0.00     0.016 A 
BRANCH  14  17
HETATM   17  O   UNL     1     -39.023  51.085 -51.418  1.00  0.00    -0.356 OA
HETATM   18  C   UNL     1     -39.523  49.795 -51.091  1.00  0.00     0.210 C 
ENDBRANCH  14  17
ENDBRANCH   9  11
ENDBRANCH   1   5
BRANCH   2  19
HETATM   19  N   UNL     1     -45.176  58.111 -58.155  1.00  0.00    -0.263 N 
HETATM   20  C   UNL     1     -46.544  58.243 -58.261  1.00  0.00     0.271 C 
HETATM   21  O   UNL     1     -47.310  57.772 -57.422  1.00  0.00    -0.266 OA
HETATM   22  H   UNL     1     -44.490  58.376 -58.864  1.00  0.00     0.190 HD
BRANCH  20  23
HETATM   23  C   UNL     1     -47.095  58.897 -59.478  1.00  0.00     0.048 A 
HETATM   24  C   UNL     1     -47.366  58.240 -60.692  1.00  0.00     0.063 A 
HETATM   25  C   UNL     1     -47.894  58.994 -61.761  1.00  0.00     0.017 A 
HETATM   26  C   UNL     1     -48.121  60.365 -61.637  1.00  0.00     0.001 A 
HETATM   27  C   UNL     1     -47.824  61.012 -60.443  1.00  0.00     0.001 A 
HETATM   28  C   UNL     1     -47.313  60.283 -59.372  1.00  0.00     0.018 A 
BRANCH  24  29
HETATM   29  C   UNL     1     -47.091  56.776 -60.892  1.00  0.00     0.418 C 
HETATM   30  F   UNL     1     -47.546  56.302 -62.081  1.00  0.00    -0.166 F 
HETATM   31  F   UNL     1     -45.755  56.506 -60.853  1.00  0.00    -0.166 F 
HETATM   32  F   UNL     1     -47.652  55.981 -59.937  1.00  0.00    -0.166 F 
ENDBRANCH  24  29
ENDBRANCH  20  23
ENDBRANCH   2  19
TORSDOF 6
ENDMDL
MODEL 8
REMARK VINA RESULT:      -8.0      1.573      2.040
REMARK  6 active torsions:
REMARK  status: ('A' for Active; 'I' for Inactive)
REMARK    1  A    between atoms: O_2  and  C_3 
REMARK    2  A    between atoms: C_6  and  C_7 
REMARK    3  A    between atoms: C_11  and  C_12 
REMARK       I    between atoms: C_12  and  N_13 
REMARK    4  A    between atoms: N_13  and  N_14 
REMARK       I    between atoms: N_14  and  C_15 
REMARK    5  A    between atoms: C_15  and  C_16 
REMARK    6  A    between atoms: C_17  and  C_18 
ROOT
HETATM    1  C   UNL     1     -42.501  58.507 -51.538  1.00  0.00     0.288 C 
HETATM    2  N   UNL     1     -43.452  58.870 -50.612  1.00  0.00    -0.262 N 
HETATM    3  O   UNL     1     -42.158  59.245 -52.458  1.00  0.00    -0.264 OA
HETATM    4  H   UNL     1     -43.702  58.299 -49.807  1.00  0.00     0.190 HD
ENDROOT
BRANCH   1   5
HETATM    5  C   UNL     1     -41.955  57.191 -51.348  1.00  0.00     0.121 A 
HETATM    6  N   UNL     1     -41.446  56.769 -50.152  1.00  0.00    -0.272 N 
HETATM    7  N   UNL     1     -40.958  55.518 -50.173  1.00  0.00    -0.174 NA
HETATM    8  H   UNL     1     -41.406  57.297 -49.285  1.00  0.00     0.189 HD
HETATM    9  C   UNL     1     -41.118  55.110 -51.442  1.00  0.00     0.089 A 
HETATM   10  C   UNL     1     -41.768  56.122 -52.202  1.00  0.00     0.071 A 
BRANCH   9  11
HETATM   11  C   UNL     1     -40.653  53.799 -51.907  1.00  0.00    -0.005 A 
HETATM   12  C   UNL     1     -40.126  52.864 -51.006  1.00  0.00     0.016 A 
HETATM   13  C   UNL     1     -39.680  51.609 -51.447  1.00  0.00     0.037 A 
HETATM   14  C   UNL     1     -39.751  51.275 -52.798  1.00  0.00     0.068 A 
HETATM   15  C   UNL     1     -40.269  52.203 -53.701  1.00  0.00     0.037 A 
HETATM   16  C   UNL     1     -40.716  53.454 -53.263  1.00  0.00     0.016 A 
BRANCH  14  17
HETATM   17  O   UNL     1     -39.353  50.095 -53.361  1.00  0.00    -0.356 OA
HETATM   18  C   UNL     1     -39.803  49.829 -54.683  1.00  0.00     0.210 C 
ENDBRANCH  14  17
ENDBRANCH   9  11
ENDBRANCH   1   5
BRANCH   2  19
HETATM   19  N   UNL     1     -44.132  60.088 -50.729  1.00  0.00    -0.263 N 
HETATM   20  C   UNL     1     -45.460  60.084 -50.358  1.00  0.00     0.271 C 
HETATM   21  O   UNL     1     -45.996  59.091 -49.869  1.00  0.00    -0.266 OA
HETATM   22  H   UNL     1     -43.653  60.831 -51.240  1.00  0.00     0.190 HD
BRANCH  20  23
HETATM   23  C   UNL     1     -46.275  61.293 -50.651  1.00  0.00     0.048 A 
HETATM   24  C   UNL     1     -46.492  62.355 -49.754  1.00  0.00     0.063 A 
HETATM   25  C   UNL     1     -47.286  63.440 -50.177  1.00  0.00     0.017 A 
HETATM   26  C   UNL     1     -47.870  63.459 -51.444  1.00  0.00     0.001 A 
HETATM   27  C   UNL     1     -47.676  62.394 -52.314  1.00  0.00     0.001 A 
HETATM   28  C   UNL     1     -46.885  61.316 -51.919  1.00  0.00     0.018 A 
BRANCH  24  29
HETATM   29  C   UNL     1     -45.926  62.357 -48.361  1.00  0.00     0.418 C 
HETATM   30  F   UNL     1     -46.218  63.487 -47.667  1.00  0.00    -0.166 F 
HETATM   31  F   UNL     1     -46.403  61.315 -47.624  1.00  0.00    -0.166 F 
HETATM   32  F   UNL     1     -44.569  62.240 -48.325  1.00  0.00    -0.166 F 
ENDBRANCH  24  29
ENDBRANCH  20  23
ENDBRANCH   2  19
TORSDOF 6
ENDMDL
MODEL 9
REMARK VINA RESULT:      -7.8      7.589     10.820
REMARK  6 active torsions:
REMARK  status: ('A' for Active; 'I' for Inactive)
REMARK    1  A    between atoms: O_2  and  C_3 
REMARK    2  A    between atoms: C_6  and  C_7 
REMARK    3  A    between atoms: C_11  and  C_12 
REMARK       I    between atoms: C_12  and  N_13 
REMARK    4  A    between atoms: N_13  and  N_14 
REMARK       I    between atoms: N_14  and  C_15 
REMARK    5  A    between atoms: C_15  and  C_16 
REMARK    6  A    between atoms: C_17  and  C_18 
ROOT
HETATM    1  C   UNL     1     -42.853  55.526 -55.537  1.00  0.00     0.288 C 
HETATM    2  N   UNL     1     -42.306  54.264 -55.568  1.00  0.00    -0.262 N 
HETATM    3  O   UNL     1     -43.104  56.112 -54.487  1.00  0.00    -0.264 OA
HETATM    4  H   UNL     1     -42.032  53.790 -56.426  1.00  0.00     0.190 HD
ENDROOT
BRANCH   1   5
HETATM    5  C   UNL     1     -43.119  56.094 -56.831  1.00  0.00     0.121 A 
HETATM    6  N   UNL     1     -43.633  55.363 -57.865  1.00  0.00    -0.272 N 
HETATM    7  N   UNL     1     -43.790  56.057 -59.003  1.00  0.00    -0.174 NA
HETATM    8  H   UNL     1     -43.895  54.382 -57.848  1.00  0.00     0.189 HD
HETATM    9  C   UNL     1     -43.329  57.286 -58.721  1.00  0.00     0.089 A 
HETATM   10  C   UNL     1     -42.927  57.355 -57.358  1.00  0.00     0.071 A 
BRANCH   9  11
HETATM   11  C   UNL     1     -43.268  58.350 -59.728  1.00  0.00    -0.005 A 
HETATM   12  C   UNL     1     -44.439  58.954 -60.205  1.00  0.00     0.016 A 
HETATM   13  C   UNL     1     -44.386  59.972 -61.169  1.00  0.00     0.037 A 
HETATM   14  C   UNL     1     -43.158  60.396 -61.673  1.00  0.00     0.068 A 
HETATM   15  C   UNL     1     -41.988  59.794 -61.208  1.00  0.00     0.037 A 
HETATM   16  C   UNL     1     -42.040  58.781 -60.246  1.00  0.00     0.016 A 
BRANCH  14  17
HETATM   17  O   UNL     1     -42.962  61.370 -62.611  1.00  0.00    -0.356 OA
HETATM   18  C   UNL     1     -43.713  61.265 -63.814  1.00  0.00     0.210 C 
ENDBRANCH  14  17
ENDBRANCH   9  11
ENDBRANCH   1   5
BRANCH   2  19
HETATM   19  N   UNL     1     -42.080  53.555 -54.383  1.00  0.00    -0.263 N 
HETATM   20  C   UNL     1     -40.774  53.497 -53.945  1.00  0.00     0.271 C 
HETATM   21  O   UNL     1     -39.870  54.107 -54.513  1.00  0.00    -0.266 OA
HETATM   22  H   UNL     1     -42.857  52.992 -54.032  1.00  0.00     0.190 HD
BRANCH  20  23
HETATM   23  C   UNL     1     -40.454  52.594 -52.807  1.00  0.00     0.048 A 
HETATM   24  C   UNL     1     -40.093  51.240 -52.930  1.00  0.00     0.063 A 
HETATM   25  C   UNL     1     -39.812  50.510 -51.757  1.00  0.00     0.017 A 
HETATM   26  C   UNL     1     -39.912  51.100 -50.496  1.00  0.00     0.001 A 
HETATM   27  C   UNL     1     -40.296  52.431 -50.381  1.00  0.00     0.001 A 
HETATM   28  C   UNL     1     -40.568  53.172 -51.529  1.00  0.00     0.018 A 
BRANCH  24  29
HETATM   29  C   UNL     1     -40.022  50.546 -54.261  1.00  0.00     0.418 C 
HETATM   30  F   UNL     1     -41.236  50.155 -54.727  1.00  0.00    -0.166 F 
HETATM   31  F   UNL     1     -39.480  51.351 -55.218  1.00  0.00    -0.166 F 
HETATM   32  F   UNL     1     -39.250  49.423 -54.249  1.00  0.00    -0.166 F 
ENDBRANCH  24  29
ENDBRANCH  20  23
ENDBRANCH   2  19
TORSDOF 6
ENDMDL
MODEL 10
REMARK VINA RESULT:      -7.8      2.118      2.558
REMARK  6 active torsions:
REMARK  status: ('A' for Active; 'I' for Inactive)
REMARK    1  A    between atoms: O_2  and  C_3 
REMARK    2  A    between atoms: C_6  and  C_7 
REMARK    3  A    between atoms: C_11  and  C_12 
REMARK       I    between atoms: C_12  and  N_13 
REMARK    4  A    between atoms: N_13  and  N_14 
REMARK       I    between atoms: N_14  and  C_15 
REMARK    5  A    between atoms: C_15  and  C_16 
REMARK    6  A    between atoms: C_17  and  C_18 
ROOT
HETATM    1  C   UNL     1     -42.435  59.082 -51.783  1.00  0.00     0.288 C 
HETATM    2  N   UNL     1     -43.435  58.966 -50.845  1.00  0.00    -0.262 N 
HETATM    3  O   UNL     1     -41.903  60.156 -52.053  1.00  0.00    -0.264 OA
HETATM    4  H   UNL     1     -43.842  58.076 -50.563  1.00  0.00     0.190 HD
ENDROOT
BRANCH   1   5
HETATM    5  C   UNL     1     -42.075  57.849 -52.429  1.00  0.00     0.121 A 
HETATM    6  N   UNL     1     -42.403  57.574 -53.726  1.00  0.00    -0.272 N 
HETATM    7  N   UNL     1     -42.006  56.363 -54.149  1.00  0.00    -0.174 NA
HETATM    8  H   UNL     1     -42.901  58.180 -54.372  1.00  0.00     0.189 HD
HETATM    9  C   UNL     1     -41.423  55.802 -53.077  1.00  0.00     0.089 A 
HETATM   10  C   UNL     1     -41.421  56.716 -51.988  1.00  0.00     0.071 A 
BRANCH   9  11
HETATM   11  C   UNL     1     -40.897  54.433 -53.100  1.00  0.00    -0.005 A 
HETATM   12  C   UNL     1     -40.564  53.773 -51.908  1.00  0.00     0.016 A 
HETATM   13  C   UNL     1     -40.060  52.464 -51.925  1.00  0.00     0.037 A 
HETATM   14  C   UNL     1     -39.878  51.798 -53.136  1.00  0.00     0.068 A 
HETATM   15  C   UNL     1     -40.201  52.451 -54.325  1.00  0.00     0.037 A 
HETATM   16  C   UNL     1     -40.705  53.755 -54.310  1.00  0.00     0.016 A 
BRANCH  14  17
HETATM   17  O   UNL     1     -39.396  50.529 -53.296  1.00  0.00    -0.356 OA
HETATM   18  C   UNL     1     -39.774  49.844 -54.483  1.00  0.00     0.210 C 
ENDBRANCH  14  17
ENDBRANCH   9  11
ENDBRANCH   1   5
BRANCH   2  19
HETATM   19  N   UNL     1     -43.948  60.100 -50.205  1.00  0.00    -0.263 N 
HETATM   20  C   UNL     1     -45.284  60.060 -49.868  1.00  0.00     0.271 C 
HETATM   21  O   UNL     1     -45.968  59.052 -50.039  1.00  0.00    -0.266 OA
HETATM   22  H   UNL     1     -43.350  60.928 -50.196  1.00  0.00     0.190 HD
BRANCH  20  23
HETATM   23  C   UNL     1     -45.921  61.308 -49.370  1.00  0.00     0.048 A 
HETATM   24  C   UNL     1     -46.557  62.267 -50.180  1.00  0.00     0.063 A 
HETATM   25  C   UNL     1     -47.121  63.401 -49.562  1.00  0.00     0.017 A 
HETATM   26  C   UNL     1     -47.034  63.592 -48.183  1.00  0.00     0.001 A 
HETATM   27  C   UNL     1     -46.380  62.655 -47.392  1.00  0.00     0.001 A 
HETATM   28  C   UNL     1     -45.825  61.522 -47.983  1.00  0.00     0.018 A 
BRANCH  24  29
HETATM   29  C   UNL     1     -46.632  62.131 -51.675  1.00  0.00     0.418 C 
HETATM   30  F   UNL     1     -45.412  62.054 -52.268  1.00  0.00    -0.166 F 
HETATM   31  F   UNL     1     -47.313  61.010 -52.044  1.00  0.00    -0.166 F 
HETATM   32  F   UNL     1     -47.276  63.166 -52.284  1.00  0.00    -0.166 F 
ENDBRANCH  24  29
ENDBRANCH  20  23
ENDBRANCH   2  19
TORSDOF 6
ENDMDL
