MODEL 1
REMARK VINA RESULT:      -7.1      0.000      0.000
REMARK  5 active torsions:
REMARK  status: ('A' for Active; 'I' for Inactive)
REMARK    1  A    between atoms: C_8  and  N_9 
REMARK       I    between atoms: N_9  and  C_10 
REMARK    2  A    between atoms: C_10  and  C_11 
REMARK    3  A    between atoms: C_11  and  N_12 
REMARK    4  A    between atoms: N_12  and  C_13 
REMARK    5  A    between atoms: C_13  and  C_14 
ROOT
HETATM    1  C   UNL     1     -41.847  55.328 -50.029  1.00  0.00     0.372 C 
ENDROOT
BRANCH   1   2
HETATM    2  C   UNL     1     -42.243  56.302 -51.155  1.00  0.00     0.250 C 
HETATM    3  N   UNL     1     -43.278  55.812 -51.929  1.00  0.00    -0.322 N 
HETATM    4  H   UNL     1     -43.698  54.937 -51.647  1.00  0.00     0.169 HD
HETATM    5  O   UNL     1     -41.717  57.406 -51.255  1.00  0.00    -0.271 OA
BRANCH   3   6
HETATM    6  C   UNL     1     -43.879  56.438 -53.010  1.00  0.00     0.085 A 
HETATM    7  C   UNL     1     -43.872  55.867 -54.270  1.00  0.00     0.052 A 
HETATM    8  C   UNL     1     -43.319  54.594 -54.792  1.00  0.00     0.072 C 
HETATM    9  N   UNL     1     -44.545  56.735 -55.079  1.00  0.00    -0.280 N 
HETATM   10  H   UNL     1     -44.746  56.646 -56.070  1.00  0.00     0.189 HD
HETATM   11  N   UNL     1     -44.981  57.830 -54.453  1.00  0.00    -0.177 NA
HETATM   12  C   UNL     1     -44.577  57.670 -53.182  1.00  0.00     0.079 A 
HETATM   13  C   UNL     1     -44.873  58.760 -52.217  1.00  0.00     0.075 C 
ENDBRANCH   3   6
ENDBRANCH   1   2
BRANCH   1  14
HETATM   14  N   UNL     1     -41.890  53.949 -50.525  1.00  0.00     0.101 N 
HETATM   15  H   UNL     1     -42.223  53.966 -51.497  1.00  0.00     0.317 HD
BRANCH  14  16
HETATM   16  C   UNL     1     -40.611  53.230 -50.448  1.00  0.00     0.254 C 
HETATM   17  C   UNL     1     -39.416  54.138 -50.127  1.00  0.00     0.048 C 
BRANCH  16  18
HETATM   18  C   UNL     1     -40.325  52.485 -51.747  1.00  0.00     0.035 A 
HETATM   19  C   UNL     1     -39.992  51.120 -51.786  1.00  0.00     0.045 A 
HETATM   20 CL   UNL     1     -39.880  50.152 -50.355  1.00  0.00    -0.084 Cl
HETATM   21  C   UNL     1     -39.698  50.482 -52.999  1.00  0.00     0.024 A 
HETATM   22  C   UNL     1     -39.724  51.192 -54.198  1.00  0.00     0.005 A 
HETATM   23  C   UNL     1     -40.032  52.546 -54.182  1.00  0.00     0.043 A 
HETATM   24  C   UNL     1     -40.317  53.176 -52.971  1.00  0.00     0.126 A 
HETATM   25  F   UNL     1     -40.563  54.495 -53.000  1.00  0.00    -0.205 F 
ENDBRANCH  16  18
ENDBRANCH  14  16
ENDBRANCH   1  14
TORSDOF 5
ENDMDL
MODEL 2
REMARK VINA RESULT:      -7.1      3.462      4.671
REMARK  5 active torsions:
REMARK  status: ('A' for Active; 'I' for Inactive)
REMARK    1  A    between atoms: C_8  and  N_9 
REMARK       I    between atoms: N_9  and  C_10 
REMARK    2  A    between atoms: C_10  and  C_11 
REMARK    3  A    between atoms: C_11  and  N_12 
REMARK    4  A    between atoms: N_12  and  C_13 
REMARK    5  A    between atoms: C_13  and  C_14 
ROOT
HETATM    1  C   UNL     1     -43.477  55.531 -54.667  1.00  0.00     0.372 C 
ENDROOT
BRANCH   1   2
HETATM    2  C   UNL     1     -42.893  55.493 -56.092  1.00  0.00     0.250 C 
HETATM    3  N   UNL     1     -43.694  56.157 -57.002  1.00  0.00    -0.322 N 
HETATM    4  H   UNL     1     -44.508  56.638 -56.644  1.00  0.00     0.169 HD
HETATM    5  O   UNL     1     -41.799  54.986 -56.318  1.00  0.00    -0.271 OA
BRANCH   3   6
HETATM    6  C   UNL     1     -43.456  56.321 -58.358  1.00  0.00     0.085 A 
HETATM    7  C   UNL     1     -42.742  57.404 -58.840  1.00  0.00     0.052 A 
HETATM    8  C   UNL     1     -42.087  58.553 -58.170  1.00  0.00     0.072 C 
HETATM    9  N   UNL     1     -42.695  57.248 -60.195  1.00  0.00    -0.280 N 
HETATM   10  H   UNL     1     -42.247  57.846 -60.881  1.00  0.00     0.189 HD
HETATM   11  N   UNL     1     -43.329  56.160 -60.637  1.00  0.00    -0.177 NA
HETATM   12  C   UNL     1     -43.809  55.580 -59.524  1.00  0.00     0.079 A 
HETATM   13  C   UNL     1     -44.619  54.345 -59.681  1.00  0.00     0.075 C 
ENDBRANCH   3   6
ENDBRANCH   1   2
BRANCH   1  14
HETATM   14  N   UNL     1     -42.927  54.427 -53.874  1.00  0.00     0.101 N 
HETATM   15  H   UNL     1     -42.367  53.831 -54.495  1.00  0.00     0.317 HD
BRANCH  14  16
HETATM   16  C   UNL     1     -42.118  54.845 -52.721  1.00  0.00     0.254 C 
HETATM   17  C   UNL     1     -41.179  56.020 -53.025  1.00  0.00     0.048 C 
BRANCH  16  18
HETATM   18  C   UNL     1     -41.290  53.682 -52.185  1.00  0.00     0.035 A 
HETATM   19  C   UNL     1     -41.159  53.408 -50.813  1.00  0.00     0.045 A 
HETATM   20 CL   UNL     1     -41.935  54.366 -49.598  1.00  0.00    -0.084 Cl
HETATM   21  C   UNL     1     -40.356  52.351 -50.361  1.00  0.00     0.024 A 
HETATM   22  C   UNL     1     -39.661  51.551 -51.266  1.00  0.00     0.005 A 
HETATM   23  C   UNL     1     -39.761  51.816 -52.626  1.00  0.00     0.043 A 
HETATM   24  C   UNL     1     -40.556  52.872 -53.068  1.00  0.00     0.126 A 
HETATM   25  F   UNL     1     -40.584  53.118 -54.387  1.00  0.00    -0.205 F 
ENDBRANCH  16  18
ENDBRANCH  14  16
ENDBRANCH   1  14
TORSDOF 5
ENDMDL
MODEL 3
REMARK VINA RESULT:      -6.7      3.772      5.337
REMARK  5 active torsions:
REMARK  status: ('A' for Active; 'I' for Inactive)
REMARK    1  A    between atoms: C_8  and  N_9 
REMARK       I    between atoms: N_9  and  C_10 
REMARK    2  A    between atoms: C_10  and  C_11 
REMARK    3  A    between atoms: C_11  and  N_12 
REMARK    4  A    between atoms: N_12  and  C_13 
REMARK    5  A    between atoms: C_13  and  C_14 
ROOT
HETATM    1  C   UNL     1     -45.098  57.518 -55.063  1.00  0.00     0.372 C 
ENDROOT
BRANCH   1   2
HETATM    2  C   UNL     1     -44.818  57.745 -56.562  1.00  0.00     0.250 C 
HETATM    3  N   UNL     1     -43.844  56.892 -57.045  1.00  0.00    -0.322 N 
HETATM    4  H   UNL     1     -43.481  56.191 -56.413  1.00  0.00     0.169 HD
HETATM    5  O   UNL     1     -45.473  58.550 -57.216  1.00  0.00    -0.271 OA
BRANCH   3   6
HETATM    6  C   UNL     1     -43.365  56.824 -58.345  1.00  0.00     0.085 A 
HETATM    7  C   UNL     1     -42.494  57.776 -58.844  1.00  0.00     0.052 A 
HETATM    8  C   UNL     1     -41.874  58.982 -58.245  1.00  0.00     0.072 C 
HETATM    9  N   UNL     1     -42.229  57.403 -60.129  1.00  0.00    -0.280 N 
HETATM   10  H   UNL     1     -41.624  57.859 -60.805  1.00  0.00     0.189 HD
HETATM   11  N   UNL     1     -42.863  56.294 -60.513  1.00  0.00    -0.177 NA
HETATM   12  C   UNL     1     -43.572  55.926 -59.433  1.00  0.00     0.079 A 
HETATM   13  C   UNL     1     -44.439  54.726 -59.548  1.00  0.00     0.075 C 
ENDBRANCH   3   6
ENDBRANCH   1   2
BRANCH   1  14
HETATM   14  N   UNL     1     -44.567  56.216 -54.650  1.00  0.00     0.101 N 
HETATM   15  H   UNL     1     -44.094  55.788 -55.455  1.00  0.00     0.317 HD
BRANCH  14  16
HETATM   16  C   UNL     1     -43.651  56.264 -53.501  1.00  0.00     0.254 C 
HETATM   17  C   UNL     1     -43.032  57.649 -53.269  1.00  0.00     0.048 C 
BRANCH  16  18
HETATM   18  C   UNL     1     -42.527  55.245 -53.656  1.00  0.00     0.035 A 
HETATM   19  C   UNL     1     -42.376  54.141 -52.800  1.00  0.00     0.045 A 
HETATM   20 CL   UNL     1     -43.460  53.830 -51.487  1.00  0.00    -0.084 Cl
HETATM   21  C   UNL     1     -41.305  53.248 -52.954  1.00  0.00     0.024 A 
HETATM   22  C   UNL     1     -40.360  53.442 -53.960  1.00  0.00     0.005 A 
HETATM   23  C   UNL     1     -40.479  54.537 -54.805  1.00  0.00     0.043 A 
HETATM   24  C   UNL     1     -41.542  55.424 -54.643  1.00  0.00     0.126 A 
HETATM   25  F   UNL     1     -41.590  56.492 -55.454  1.00  0.00    -0.205 F 
ENDBRANCH  16  18
ENDBRANCH  14  16
ENDBRANCH   1  14
TORSDOF 5
ENDMDL
MODEL 4
REMARK VINA RESULT:      -6.6      2.317      3.417
REMARK  5 active torsions:
REMARK  status: ('A' for Active; 'I' for Inactive)
REMARK    1  A    between atoms: C_8  and  N_9 
REMARK       I    between atoms: N_9  and  C_10 
REMARK    2  A    between atoms: C_10  and  C_11 
REMARK    3  A    between atoms: C_11  and  N_12 
REMARK    4  A    between atoms: N_12  and  C_13 
REMARK    5  A    between atoms: C_13  and  C_14 
ROOT
HETATM    1  C   UNL     1     -42.753  54.546 -55.806  1.00  0.00     0.372 C 
ENDROOT
BRANCH   1   2
HETATM    2  C   UNL     1     -43.007  56.040 -55.526  1.00  0.00     0.250 C 
HETATM    3  N   UNL     1     -44.139  56.241 -54.759  1.00  0.00    -0.322 N 
HETATM    4  H   UNL     1     -44.622  55.423 -54.416  1.00  0.00     0.169 HD
HETATM    5  O   UNL     1     -42.217  56.900 -55.901  1.00  0.00    -0.271 OA
BRANCH   3   6
HETATM    6  C   UNL     1     -44.643  57.456 -54.320  1.00  0.00     0.085 A 
HETATM    7  C   UNL     1     -45.284  58.326 -55.184  1.00  0.00     0.052 A 
HETATM    8  C   UNL     1     -45.604  58.252 -56.629  1.00  0.00     0.072 C 
HETATM    9  N   UNL     1     -45.649  59.402 -54.428  1.00  0.00    -0.280 N 
HETATM   10  H   UNL     1     -46.147  60.237 -54.721  1.00  0.00     0.189 HD
HETATM   11  N   UNL     1     -45.290  59.310 -53.146  1.00  0.00    -0.177 NA
HETATM   12  C   UNL     1     -44.664  58.124 -53.060  1.00  0.00     0.079 A 
HETATM   13  C   UNL     1     -44.094  57.735 -51.745  1.00  0.00     0.075 C 
ENDBRANCH   3   6
ENDBRANCH   1   2
BRANCH   1  14
HETATM   14  N   UNL     1     -42.404  53.859 -54.559  1.00  0.00     0.101 N 
HETATM   15  H   UNL     1     -42.499  52.847 -54.709  1.00  0.00     0.317 HD
BRANCH  14  16
HETATM   16  C   UNL     1     -41.060  54.163 -54.047  1.00  0.00     0.254 C 
HETATM   17  C   UNL     1     -40.006  54.323 -55.151  1.00  0.00     0.048 C 
BRANCH  16  18
HETATM   18  C   UNL     1     -40.590  53.087 -53.075  1.00  0.00     0.035 A 
HETATM   19  C   UNL     1     -40.498  53.300 -51.689  1.00  0.00     0.045 A 
HETATM   20 CL   UNL     1     -40.915  54.810 -50.953  1.00  0.00    -0.084 Cl
HETATM   21  C   UNL     1     -40.023  52.295 -50.833  1.00  0.00     0.024 A 
HETATM   22  C   UNL     1     -39.626  51.060 -51.342  1.00  0.00     0.005 A 
HETATM   23  C   UNL     1     -39.692  50.834 -52.710  1.00  0.00     0.043 A 
HETATM   24  C   UNL     1     -40.158  51.839 -53.556  1.00  0.00     0.126 A 
HETATM   25  F   UNL     1     -40.159  51.591 -54.875  1.00  0.00    -0.205 F 
ENDBRANCH  16  18
ENDBRANCH  14  16
ENDBRANCH   1  14
TORSDOF 5
ENDMDL
MODEL 5
REMARK VINA RESULT:      -6.6      2.376      3.519
REMARK  5 active torsions:
REMARK  status: ('A' for Active; 'I' for Inactive)
REMARK    1  A    between atoms: C_8  and  N_9 
REMARK       I    between atoms: N_9  and  C_10 
REMARK    2  A    between atoms: C_10  and  C_11 
REMARK    3  A    between atoms: C_11  and  N_12 
REMARK    4  A    between atoms: N_12  and  C_13 
REMARK    5  A    between atoms: C_13  and  C_14 
ROOT
HETATM    1  C   UNL     1     -43.270  55.693 -54.048  1.00  0.00     0.372 C 
ENDROOT
BRANCH   1   2
HETATM    2  C   UNL     1     -43.318  56.439 -52.701  1.00  0.00     0.250 C 
HETATM    3  N   UNL     1     -42.975  57.772 -52.831  1.00  0.00    -0.322 N 
HETATM    4  H   UNL     1     -42.806  58.122 -53.764  1.00  0.00     0.169 HD
HETATM    5  O   UNL     1     -43.699  55.880 -51.677  1.00  0.00    -0.271 OA
BRANCH   3   6
HETATM    6  C   UNL     1     -42.928  58.723 -51.823  1.00  0.00     0.085 A 
HETATM    7  C   UNL     1     -41.820  58.855 -51.006  1.00  0.00     0.052 A 
HETATM    8  C   UNL     1     -40.519  58.146 -50.957  1.00  0.00     0.072 C 
HETATM    9  N   UNL     1     -42.109  59.872 -50.144  1.00  0.00    -0.280 N 
HETATM   10  H   UNL     1     -41.528  60.256 -49.406  1.00  0.00     0.189 HD
HETATM   11  N   UNL     1     -43.318  60.407 -50.324  1.00  0.00    -0.177 NA
HETATM   12  C   UNL     1     -43.841  59.710 -51.347  1.00  0.00     0.079 A 
HETATM   13  C   UNL     1     -45.225  60.038 -51.774  1.00  0.00     0.075 C 
ENDBRANCH   3   6
ENDBRANCH   1   2
BRANCH   1  14
HETATM   14  N   UNL     1     -42.545  54.429 -53.891  1.00  0.00     0.101 N 
HETATM   15  H   UNL     1     -42.628  53.896 -54.765  1.00  0.00     0.317 HD
BRANCH  14  16
HETATM   16  C   UNL     1     -41.127  54.576 -53.531  1.00  0.00     0.254 C 
HETATM   17  C   UNL     1     -40.234  54.980 -54.712  1.00  0.00     0.048 C 
BRANCH  16  18
HETATM   18  C   UNL     1     -40.582  53.289 -52.923  1.00  0.00     0.035 A 
HETATM   19  C   UNL     1     -40.371  53.127 -51.543  1.00  0.00     0.045 A 
HETATM   20 CL   UNL     1     -40.717  54.378 -50.399  1.00  0.00    -0.084 Cl
HETATM   21  C   UNL     1     -39.830  51.938 -51.029  1.00  0.00     0.024 A 
HETATM   22  C   UNL     1     -39.484  50.891 -51.881  1.00  0.00     0.005 A 
HETATM   23  C   UNL     1     -39.666  51.037 -53.250  1.00  0.00     0.043 A 
HETATM   24  C   UNL     1     -40.198  52.222 -53.755  1.00  0.00     0.126 A 
HETATM   25  F   UNL     1     -40.312  52.334 -55.087  1.00  0.00    -0.205 F 
ENDBRANCH  16  18
ENDBRANCH  14  16
ENDBRANCH   1  14
TORSDOF 5
ENDMDL
MODEL 6
REMARK VINA RESULT:      -6.4      2.507      3.228
REMARK  5 active torsions:
REMARK  status: ('A' for Active; 'I' for Inactive)
REMARK    1  A    between atoms: C_8  and  N_9 
REMARK       I    between atoms: N_9  and  C_10 
REMARK    2  A    between atoms: C_10  and  C_11 
REMARK    3  A    between atoms: C_11  and  N_12 
REMARK    4  A    between atoms: N_12  and  C_13 
REMARK    5  A    between atoms: C_13  and  C_14 
ROOT
HETATM    1  C   UNL     1     -40.970  56.579 -53.514  1.00  0.00     0.372 C 
ENDROOT
BRANCH   1   2
HETATM    2  C   UNL     1     -41.360  58.060 -53.339  1.00  0.00     0.250 C 
HETATM    3  N   UNL     1     -42.600  58.205 -52.747  1.00  0.00    -0.322 N 
HETATM    4  H   UNL     1     -43.072  57.366 -52.439  1.00  0.00     0.169 HD
HETATM    5  O   UNL     1     -40.583  58.961 -53.638  1.00  0.00    -0.271 OA
BRANCH   3   6
HETATM    6  C   UNL     1     -43.241  59.395 -52.437  1.00  0.00     0.085 A 
HETATM    7  C   UNL     1     -44.321  59.847 -53.175  1.00  0.00     0.052 A 
HETATM    8  C   UNL     1     -45.041  59.289 -54.344  1.00  0.00     0.072 C 
HETATM    9  N   UNL     1     -44.701  61.024 -52.599  1.00  0.00    -0.280 N 
HETATM   10  H   UNL     1     -45.464  61.637 -52.867  1.00  0.00     0.189 HD
HETATM   11  N   UNL     1     -43.952  61.382 -51.555  1.00  0.00    -0.177 NA
HETATM   12  C   UNL     1     -43.045  60.398 -51.442  1.00  0.00     0.079 A 
HETATM   13  C   UNL     1     -42.016  60.522 -50.379  1.00  0.00     0.075 C 
ENDBRANCH   3   6
ENDBRANCH   1   2
BRANCH   1  14
HETATM   14  N   UNL     1     -41.291  55.832 -52.295  1.00  0.00     0.101 N 
HETATM   15  H   UNL     1     -41.781  56.463 -51.649  1.00  0.00     0.317 HD
BRANCH  14  16
HETATM   16  C   UNL     1     -42.093  54.620 -52.512  1.00  0.00     0.254 C 
HETATM   17  C   UNL     1     -43.030  54.288 -51.342  1.00  0.00     0.048 C 
BRANCH  16  18
HETATM   18  C   UNL     1     -41.199  53.415 -52.779  1.00  0.00     0.035 A 
HETATM   19  C   UNL     1     -40.224  52.972 -51.869  1.00  0.00     0.045 A 
HETATM   20 CL   UNL     1     -39.951  53.754 -50.349  1.00  0.00    -0.084 Cl
HETATM   21  C   UNL     1     -39.396  51.881 -52.171  1.00  0.00     0.024 A 
HETATM   22  C   UNL     1     -39.518  51.214 -53.388  1.00  0.00     0.005 A 
HETATM   23  C   UNL     1     -40.461  51.647 -54.311  1.00  0.00     0.043 A 
HETATM   24  C   UNL     1     -41.277  52.735 -54.007  1.00  0.00     0.126 A 
HETATM   25  F   UNL     1     -42.142  53.145 -54.948  1.00  0.00    -0.205 F 
ENDBRANCH  16  18
ENDBRANCH  14  16
ENDBRANCH   1  14
TORSDOF 5
ENDMDL
MODEL 7
REMARK VINA RESULT:      -6.2     14.601     16.143
REMARK  5 active torsions:
REMARK  status: ('A' for Active; 'I' for Inactive)
REMARK    1  A    between atoms: C_8  and  N_9 
REMARK       I    between atoms: N_9  and  C_10 
REMARK    2  A    between atoms: C_10  and  C_11 
REMARK    3  A    between atoms: C_11  and  N_12 
REMARK    4  A    between atoms: N_12  and  C_13 
REMARK    5  A    between atoms: C_13  and  C_14 
ROOT
HETATM    1  C   UNL     1     -34.911  42.244 -55.520  1.00  0.00     0.372 C 
ENDROOT
BRANCH   1   2
HETATM    2  C   UNL     1     -35.052  41.228 -54.370  1.00  0.00     0.250 C 
HETATM    3  N   UNL     1     -35.753  41.747 -53.298  1.00  0.00    -0.322 N 
HETATM    4  H   UNL     1     -36.145  42.674 -53.401  1.00  0.00     0.169 HD
HETATM    5  O   UNL     1     -34.637  40.079 -54.482  1.00  0.00    -0.271 OA
BRANCH   3   6
HETATM    6  C   UNL     1     -36.066  41.099 -52.113  1.00  0.00     0.085 A 
HETATM    7  C   UNL     1     -37.362  40.711 -51.823  1.00  0.00     0.052 A 
HETATM    8  C   UNL     1     -38.636  40.829 -52.571  1.00  0.00     0.072 C 
HETATM    9  N   UNL     1     -37.307  40.107 -50.601  1.00  0.00    -0.280 N 
HETATM   10  H   UNL     1     -38.065  39.690 -50.070  1.00  0.00     0.189 HD
HETATM   11  N   UNL     1     -36.085  40.079 -50.065  1.00  0.00    -0.177 NA
HETATM   12  C   UNL     1     -35.309  40.690 -50.976  1.00  0.00     0.079 A 
HETATM   13  C   UNL     1     -33.869  40.863 -50.655  1.00  0.00     0.075 C 
ENDBRANCH   3   6
ENDBRANCH   1   2
BRANCH   1  14
HETATM   14  N   UNL     1     -35.207  41.591 -56.799  1.00  0.00     0.101 N 
HETATM   15  H   UNL     1     -35.118  40.576 -56.672  1.00  0.00     0.317 HD
BRANCH  14  16
HETATM   16  C   UNL     1     -36.528  41.911 -57.358  1.00  0.00     0.254 C 
HETATM   17  C   UNL     1     -37.595  42.187 -56.290  1.00  0.00     0.048 C 
BRANCH  16  18
HETATM   18  C   UNL     1     -37.023  40.789 -58.265  1.00  0.00     0.035 A 
HETATM   19  C   UNL     1     -37.389  40.997 -59.605  1.00  0.00     0.045 A 
HETATM   20 CL   UNL     1     -37.308  42.554 -60.357  1.00  0.00    -0.084 Cl
HETATM   21  C   UNL     1     -37.876  39.944 -60.394  1.00  0.00     0.024 A 
HETATM   22  C   UNL     1     -38.013  38.664 -59.861  1.00  0.00     0.005 A 
HETATM   23  C   UNL     1     -37.674  38.439 -58.533  1.00  0.00     0.043 A 
HETATM   24  C   UNL     1     -37.197  39.491 -57.752  1.00  0.00     0.126 A 
HETATM   25  F   UNL     1     -36.927  39.236 -56.463  1.00  0.00    -0.205 F 
ENDBRANCH  16  18
ENDBRANCH  14  16
ENDBRANCH   1  14
TORSDOF 5
ENDMDL
MODEL 8
REMARK VINA RESULT:      -6.1     14.610     16.410
REMARK  5 active torsions:
REMARK  status: ('A' for Active; 'I' for Inactive)
REMARK    1  A    between atoms: C_8  and  N_9 
REMARK       I    between atoms: N_9  and  C_10 
REMARK    2  A    between atoms: C_10  and  C_11 
REMARK    3  A    between atoms: C_11  and  N_12 
REMARK    4  A    between atoms: N_12  and  C_13 
REMARK    5  A    between atoms: C_13  and  C_14 
ROOT
HETATM    1  C   UNL     1     -37.528  41.130 -54.474  1.00  0.00     0.372 C 
ENDROOT
BRANCH   1   2
HETATM    2  C   UNL     1     -36.431  41.430 -53.434  1.00  0.00     0.250 C 
HETATM    3  N   UNL     1     -35.769  40.286 -53.030  1.00  0.00    -0.322 N 
HETATM    4  H   UNL     1     -36.013  39.418 -53.488  1.00  0.00     0.169 HD
HETATM    5  O   UNL     1     -36.168  42.581 -53.101  1.00  0.00    -0.271 OA
BRANCH   3   6
HETATM    6  C   UNL     1     -34.727  40.203 -52.120  1.00  0.00     0.085 A 
HETATM    7  C   UNL     1     -34.961  40.129 -50.758  1.00  0.00     0.052 A 
HETATM    8  C   UNL     1     -36.206  40.103 -49.954  1.00  0.00     0.072 C 
HETATM    9  N   UNL     1     -33.732  40.055 -50.170  1.00  0.00    -0.280 N 
HETATM   10  H   UNL     1     -33.510  39.981 -49.183  1.00  0.00     0.189 HD
HETATM   11  N   UNL     1     -32.716  40.086 -51.035  1.00  0.00    -0.177 NA
HETATM   12  C   UNL     1     -33.306  40.184 -52.238  1.00  0.00     0.079 A 
HETATM   13  C   UNL     1     -32.430  40.286 -53.433  1.00  0.00     0.075 C 
ENDBRANCH   3   6
ENDBRANCH   1   2
BRANCH   1  14
HETATM   14  N   UNL     1     -37.224  41.820 -55.731  1.00  0.00     0.101 N 
HETATM   15  H   UNL     1     -37.132  42.824 -55.535  1.00  0.00     0.317 HD
BRANCH  14  16
HETATM   16  C   UNL     1     -36.022  41.334 -56.421  1.00  0.00     0.254 C 
HETATM   17  C   UNL     1     -34.942  42.410 -56.600  1.00  0.00     0.048 C 
BRANCH  16  18
HETATM   18  C   UNL     1     -36.372  40.760 -57.789  1.00  0.00     0.035 A 
HETATM   19  C   UNL     1     -35.992  39.469 -58.194  1.00  0.00     0.045 A 
HETATM   20 CL   UNL     1     -35.092  38.403 -57.170  1.00  0.00    -0.084 Cl
HETATM   21  C   UNL     1     -36.302  38.993 -59.477  1.00  0.00     0.024 A 
HETATM   22  C   UNL     1     -36.991  39.797 -60.384  1.00  0.00     0.005 A 
HETATM   23  C   UNL     1     -37.359  41.083 -60.012  1.00  0.00     0.043 A 
HETATM   24  C   UNL     1     -37.042  41.552 -58.738  1.00  0.00     0.126 A 
HETATM   25  F   UNL     1     -37.377  42.817 -58.440  1.00  0.00    -0.205 F 
ENDBRANCH  16  18
ENDBRANCH  14  16
ENDBRANCH   1  14
TORSDOF 5
ENDMDL
MODEL 9
REMARK VINA RESULT:      -6.0     14.817     16.538
REMARK  5 active torsions:
REMARK  status: ('A' for Active; 'I' for Inactive)
REMARK    1  A    between atoms: C_8  and  N_9 
REMARK       I    between atoms: N_9  and  C_10 
REMARK    2  A    between atoms: C_10  and  C_11 
REMARK    3  A    between atoms: C_11  and  N_12 
REMARK    4  A    between atoms: N_12  and  C_13 
REMARK    5  A    between atoms: C_13  and  C_14 
ROOT
HETATM    1  C   UNL     1     -35.366  42.255 -55.424  1.00  0.00     0.372 C 
ENDROOT
BRANCH   1   2
HETATM    2  C   UNL     1     -35.528  42.016 -53.910  1.00  0.00     0.250 C 
HETATM    3  N   UNL     1     -34.781  40.939 -53.470  1.00  0.00    -0.322 N 
HETATM    4  H   UNL     1     -34.178  40.483 -54.140  1.00  0.00     0.169 HD
HETATM    5  O   UNL     1     -36.194  42.776 -53.214  1.00  0.00    -0.271 OA
BRANCH   3   6
HETATM    6  C   UNL     1     -34.692  40.463 -52.171  1.00  0.00     0.085 A 
HETATM    7  C   UNL     1     -33.473  40.349 -51.526  1.00  0.00     0.052 A 
HETATM    8  C   UNL     1     -32.085  40.663 -51.941  1.00  0.00     0.072 C 
HETATM    9  N   UNL     1     -33.751  39.861 -50.283  1.00  0.00    -0.280 N 
HETATM   10  H   UNL     1     -33.104  39.656 -49.528  1.00  0.00     0.189 HD
HETATM   11  N   UNL     1     -35.049  39.636 -50.068  1.00  0.00    -0.177 NA
HETATM   12  C   UNL     1     -35.643  39.994 -51.218  1.00  0.00     0.079 A 
HETATM   13  C   UNL     1     -37.114  39.819 -51.321  1.00  0.00     0.075 C 
ENDBRANCH   3   6
ENDBRANCH   1   2
BRANCH   1  14
HETATM   14  N   UNL     1     -35.890  41.106 -56.168  1.00  0.00     0.101 N 
HETATM   15  H   UNL     1     -36.019  40.326 -55.511  1.00  0.00     0.317 HD
BRANCH  14  16
HETATM   16  C   UNL     1     -37.145  41.362 -56.889  1.00  0.00     0.254 C 
HETATM   17  C   UNL     1     -38.397  41.202 -56.015  1.00  0.00     0.048 C 
BRANCH  16  18
HETATM   18  C   UNL     1     -37.275  40.448 -58.102  1.00  0.00     0.035 A 
HETATM   19  C   UNL     1     -37.317  40.933 -59.420  1.00  0.00     0.045 A 
HETATM   20 CL   UNL     1     -37.219  42.620 -59.791  1.00  0.00    -0.084 Cl
HETATM   21  C   UNL     1     -37.475  40.060 -60.506  1.00  0.00     0.024 A 
HETATM   22  C   UNL     1     -37.602  38.687 -60.300  1.00  0.00     0.005 A 
HETATM   23  C   UNL     1     -37.582  38.188 -59.004  1.00  0.00     0.043 A 
HETATM   24  C   UNL     1     -37.431  39.062 -57.929  1.00  0.00     0.126 A 
HETATM   25  F   UNL     1     -37.464  38.539 -56.693  1.00  0.00    -0.205 F 
ENDBRANCH  16  18
ENDBRANCH  14  16
ENDBRANCH   1  14
TORSDOF 5
ENDMDL
MODEL 10
REMARK VINA RESULT:      -6.0      3.593      6.833
REMARK  5 active torsions:
REMARK  status: ('A' for Active; 'I' for Inactive)
REMARK    1  A    between atoms: C_8  and  N_9 
REMARK       I    between atoms: N_9  and  C_10 
REMARK    2  A    between atoms: C_10  and  C_11 
REMARK    3  A    between atoms: C_11  and  N_12 
REMARK    4  A    between atoms: N_12  and  C_13 
REMARK    5  A    between atoms: C_13  and  C_14 
ROOT
HETATM    1  C   UNL     1     -42.593  56.651 -54.674  1.00  0.00     0.372 C 
ENDROOT
BRANCH   1   2
HETATM    2  C   UNL     1     -42.333  55.265 -54.053  1.00  0.00     0.250 C 
HETATM    3  N   UNL     1     -41.245  55.271 -53.200  1.00  0.00    -0.322 N 
HETATM    4  H   UNL     1     -40.794  56.158 -53.024  1.00  0.00     0.169 HD
HETATM    5  O   UNL     1     -43.087  54.321 -54.267  1.00  0.00    -0.271 OA
BRANCH   3   6
HETATM    6  C   UNL     1     -40.749  54.199 -52.474  1.00  0.00     0.085 A 
HETATM    7  C   UNL     1     -40.571  54.277 -51.104  1.00  0.00     0.052 A 
HETATM    8  C   UNL     1     -40.824  55.354 -50.118  1.00  0.00     0.072 C 
HETATM    9  N   UNL     1     -40.081  53.062 -50.721  1.00  0.00    -0.280 N 
HETATM   10  H   UNL     1     -39.837  52.748 -49.788  1.00  0.00     0.189 HD
HETATM   11  N   UNL     1     -39.915  52.204 -51.729  1.00  0.00    -0.177 NA
HETATM   12  C   UNL     1     -40.314  52.885 -52.816  1.00  0.00     0.079 A 
HETATM   13  C   UNL     1     -40.210  52.210 -54.135  1.00  0.00     0.075 C 
ENDBRANCH   3   6
ENDBRANCH   1   2
BRANCH   1  14
HETATM   14  N   UNL     1     -43.223  57.530 -53.683  1.00  0.00     0.101 N 
HETATM   15  H   UNL     1     -43.096  57.113 -52.754  1.00  0.00     0.317 HD
BRANCH  14  16
HETATM   16  C   UNL     1     -42.722  58.911 -53.683  1.00  0.00     0.254 C 
HETATM   17  C   UNL     1     -41.898  59.264 -54.929  1.00  0.00     0.048 C 
BRANCH  16  18
HETATM   18  C   UNL     1     -41.877  59.185 -52.444  1.00  0.00     0.035 A 
HETATM   19  C   UNL     1     -42.357  59.910 -51.339  1.00  0.00     0.045 A 
HETATM   20 CL   UNL     1     -43.961  60.557 -51.281  1.00  0.00    -0.084 Cl
HETATM   21  C   UNL     1     -41.534  60.172 -50.234  1.00  0.00     0.024 A 
HETATM   22  C   UNL     1     -40.215  59.724 -50.211  1.00  0.00     0.005 A 
HETATM   23  C   UNL     1     -39.714  59.023 -51.300  1.00  0.00     0.043 A 
HETATM   24  C   UNL     1     -40.535  58.771 -52.397  1.00  0.00     0.126 A 
HETATM   25  F   UNL     1     -39.993  58.130 -53.445  1.00  0.00    -0.205 F 
ENDBRANCH  16  18
ENDBRANCH  14  16
ENDBRANCH   1  14
TORSDOF 5
ENDMDL
