MODEL 1
REMARK VINA RESULT:      -8.7      0.000      0.000
REMARK  11 active torsions:
REMARK  status: ('A' for Active; 'I' for Inactive)
REMARK    1  A    between atoms: N_13  and  C_14 
REMARK    2  A    between atoms: C_14  and  C_15 
REMARK    3  A    between atoms: N_20  and  C_21 
REMARK    4  A    between atoms: C_21  and  C_22 
REMARK    5  A    between atoms: C_22  and  O_23 
REMARK    6  A    between atoms: C_22  and  C_24 
REMARK    7  A    between atoms: C_24  and  N_25 
REMARK    8  A    between atoms: N_25  and  C_27 
REMARK    9  A    between atoms: N_25  and  C_34 
REMARK   10  A    between atoms: C_27  and  C_28 
REMARK   11  A    between atoms: C_34  and  C_35 
ROOT
HETATM    1  C   UNL     1     -43.462  61.717 -55.169  1.00  0.00     0.163 C 
HETATM    2  N   UNL     1     -43.826  60.646 -54.256  1.00  0.00    -0.285 N 
HETATM    3  C   UNL     1     -43.958  60.896 -52.887  1.00  0.00     0.332 A 
HETATM    4  O   UNL     1     -43.761  62.016 -52.411  1.00  0.00    -0.246 OA
HETATM    5  N   UNL     1     -44.303  59.801 -52.067  1.00  0.00    -0.269 N 
HETATM    6  C   UNL     1     -44.426  60.039 -50.641  1.00  0.00     0.164 C 
HETATM    7  C   UNL     1     -44.407  58.476 -52.491  1.00  0.00     0.282 A 
HETATM    8  O   UNL     1     -44.538  57.506 -51.747  1.00  0.00    -0.265 OA
HETATM    9  C   UNL     1     -44.287  58.331 -53.898  1.00  0.00     0.166 A 
HETATM   10  C   UNL     1     -43.998  59.368 -54.728  1.00  0.00     0.186 A 
HETATM   11  N   UNL     1     -43.851  58.954 -56.014  1.00  0.00    -0.044 NA
HETATM   12  C   UNL     1     -44.066  57.656 -55.991  1.00  0.00     0.705 A 
HETATM   13  N   UNL     1     -43.976  56.795 -57.026  1.00  0.00    -0.218 N 
HETATM   14  N   UNL     1     -44.345  57.229 -54.709  1.00  0.00    -0.170 N 
HETATM   15  H   UNL     1     -44.584  55.982 -57.068  1.00  0.00     0.178 HD
ENDROOT
BRANCH  14  16
HETATM   16  C   UNL     1     -44.521  55.860 -54.250  1.00  0.00     0.181 C 
BRANCH  16  17
HETATM   17  C   UNL     1     -43.383  54.964 -54.750  1.00  0.00     0.163 C 
BRANCH  17  18
HETATM   18  O   UNL     1     -43.868  53.990 -55.679  1.00  0.00    -0.392 OA
HETATM   19  H   UNL     1     -43.149  53.785 -56.316  1.00  0.00     0.210 HD
ENDBRANCH  17  18
BRANCH  17  20
HETATM   20  C   UNL     1     -42.622  54.266 -53.600  1.00  0.00     0.268 C 
BRANCH  20  21
HETATM   21  N   UNL     1     -41.115  54.538 -53.537  1.00  0.00    -0.061 N 
HETATM   22  H   UNL     1     -40.803  54.484 -52.565  1.00  0.00     0.280 HD
BRANCH  21  23
HETATM   23  C   UNL     1     -40.302  53.511 -54.316  1.00  0.00     0.273 C 
BRANCH  23  24
HETATM   24  C   UNL     1     -40.058  52.210 -53.599  1.00  0.00    -0.033 A 
HETATM   25  C   UNL     1     -39.852  52.182 -52.210  1.00  0.00     0.009 A 
HETATM   26  C   UNL     1     -39.611  50.972 -51.557  1.00  0.00     0.001 A 
HETATM   27  C   UNL     1     -39.577  49.783 -52.282  1.00  0.00     0.000 A 
HETATM   28  C   UNL     1     -39.789  49.796 -53.658  1.00  0.00     0.001 A 
HETATM   29  C   UNL     1     -40.028  51.003 -54.316  1.00  0.00     0.009 A 
ENDBRANCH  23  24
ENDBRANCH  21  23
BRANCH  21  30
HETATM   30  C   UNL     1     -40.817  55.967 -53.983  1.00  0.00     0.273 C 
BRANCH  30  31
HETATM   31  C   UNL     1     -40.878  56.964 -52.855  1.00  0.00    -0.033 A 
HETATM   32  C   UNL     1     -40.685  58.333 -53.107  1.00  0.00     0.009 A 
HETATM   33  C   UNL     1     -40.727  59.256 -52.061  1.00  0.00     0.001 A 
HETATM   34  C   UNL     1     -40.963  58.824 -50.758  1.00  0.00     0.000 A 
HETATM   35  C   UNL     1     -41.165  57.470 -50.498  1.00  0.00     0.001 A 
HETATM   36  C   UNL     1     -41.125  56.543 -51.541  1.00  0.00     0.009 A 
ENDBRANCH  30  31
ENDBRANCH  21  30
ENDBRANCH  20  21
ENDBRANCH  17  20
ENDBRANCH  16  17
ENDBRANCH  14  16
BRANCH  13  37
HETATM   37  C   UNL     1     -43.868  57.385 -58.365  1.00  0.00     0.203 C 
BRANCH  37  38
HETATM   38  C   UNL     1     -44.580  56.599 -59.418  1.00  0.00     0.070 A 
HETATM   39  O   UNL     1     -45.945  56.701 -59.454  1.00  0.00    -0.325 OA
HETATM   40  C   UNL     1     -46.369  55.931 -60.490  1.00  0.00     0.142 A 
HETATM   41  C   UNL     1     -45.301  55.336 -61.119  1.00  0.00     0.027 A 
HETATM   42  C   UNL     1     -44.143  55.766 -60.427  1.00  0.00     0.036 A 
ENDBRANCH  37  38
ENDBRANCH  13  37
TORSDOF 11
ENDMDL
MODEL 2
REMARK VINA RESULT:      -8.6      2.310      5.427
REMARK  11 active torsions:
REMARK  status: ('A' for Active; 'I' for Inactive)
REMARK    1  A    between atoms: N_13  and  C_14 
REMARK    2  A    between atoms: C_14  and  C_15 
REMARK    3  A    between atoms: N_20  and  C_21 
REMARK    4  A    between atoms: C_21  and  C_22 
REMARK    5  A    between atoms: C_22  and  O_23 
REMARK    6  A    between atoms: C_22  and  C_24 
REMARK    7  A    between atoms: C_24  and  N_25 
REMARK    8  A    between atoms: N_25  and  C_27 
REMARK    9  A    between atoms: N_25  and  C_34 
REMARK   10  A    between atoms: C_27  and  C_28 
REMARK   11  A    between atoms: C_34  and  C_35 
ROOT
HETATM    1  C   UNL     1     -41.099  62.108 -57.931  1.00  0.00     0.163 C 
HETATM    2  N   UNL     1     -41.790  60.872 -58.262  1.00  0.00    -0.285 N 
HETATM    3  C   UNL     1     -42.270  60.654 -59.557  1.00  0.00     0.332 A 
HETATM    4  O   UNL     1     -42.137  61.496 -60.448  1.00  0.00    -0.246 OA
HETATM    5  N   UNL     1     -42.938  59.434 -59.795  1.00  0.00    -0.269 N 
HETATM    6  C   UNL     1     -43.459  59.200 -61.128  1.00  0.00     0.164 C 
HETATM    7  C   UNL     1     -43.259  58.487 -58.822  1.00  0.00     0.282 A 
HETATM    8  O   UNL     1     -43.987  57.513 -59.001  1.00  0.00    -0.265 OA
HETATM    9  C   UNL     1     -42.703  58.785 -57.551  1.00  0.00     0.166 A 
HETATM   10  C   UNL     1     -42.015  59.927 -57.291  1.00  0.00     0.186 A 
HETATM   11  N   UNL     1     -41.664  60.014 -55.982  1.00  0.00    -0.044 NA
HETATM   12  C   UNL     1     -42.118  58.913 -55.423  1.00  0.00     0.705 A 
HETATM   13  N   UNL     1     -42.058  58.574 -54.119  1.00  0.00    -0.218 N 
HETATM   14  N   UNL     1     -42.760  58.121 -56.353  1.00  0.00    -0.170 N 
HETATM   15  H   UNL     1     -41.969  57.599 -53.848  1.00  0.00     0.178 HD
ENDROOT
BRANCH  14  16
HETATM   16  C   UNL     1     -43.495  56.889 -56.113  1.00  0.00     0.181 C 
BRANCH  16  17
HETATM   17  C   UNL     1     -42.564  55.674 -56.192  1.00  0.00     0.163 C 
BRANCH  17  18
HETATM   18  O   UNL     1     -42.273  55.340 -57.553  1.00  0.00    -0.392 OA
HETATM   19  H   UNL     1     -42.558  56.089 -58.122  1.00  0.00     0.210 HD
ENDBRANCH  17  18
BRANCH  17  20
HETATM   20  C   UNL     1     -43.129  54.439 -55.454  1.00  0.00     0.268 C 
BRANCH  20  21
HETATM   21  N   UNL     1     -42.601  54.213 -54.033  1.00  0.00    -0.061 N 
HETATM   22  H   UNL     1     -42.975  53.334 -53.670  1.00  0.00     0.280 HD
BRANCH  21  23
HETATM   23  C   UNL     1     -41.082  54.097 -53.984  1.00  0.00     0.273 C 
BRANCH  23  24
HETATM   24  C   UNL     1     -40.556  52.741 -53.595  1.00  0.00    -0.033 A 
HETATM   25  C   UNL     1     -39.989  52.527 -52.329  1.00  0.00     0.009 A 
HETATM   26  C   UNL     1     -39.489  51.270 -51.984  1.00  0.00     0.001 A 
HETATM   27  C   UNL     1     -39.556  50.218 -52.895  1.00  0.00     0.000 A 
HETATM   28  C   UNL     1     -40.124  50.416 -54.150  1.00  0.00     0.001 A 
HETATM   29  C   UNL     1     -40.622  51.671 -54.501  1.00  0.00     0.009 A 
ENDBRANCH  23  24
ENDBRANCH  21  23
BRANCH  21  30
HETATM   30  C   UNL     1     -43.126  55.298 -53.097  1.00  0.00     0.273 C 
BRANCH  30  31
HETATM   31  C   UNL     1     -42.441  55.304 -51.754  1.00  0.00    -0.033 A 
HETATM   32  C   UNL     1     -41.636  56.390 -51.373  1.00  0.00     0.009 A 
HETATM   33  C   UNL     1     -40.990  56.390 -50.135  1.00  0.00     0.001 A 
HETATM   34  C   UNL     1     -41.143  55.311 -49.269  1.00  0.00     0.000 A 
HETATM   35  C   UNL     1     -41.947  54.232 -49.632  1.00  0.00     0.001 A 
HETATM   36  C   UNL     1     -42.596  54.228 -50.868  1.00  0.00     0.009 A 
ENDBRANCH  30  31
ENDBRANCH  21  30
ENDBRANCH  20  21
ENDBRANCH  17  20
ENDBRANCH  16  17
ENDBRANCH  14  16
BRANCH  13  37
HETATM   37  C   UNL     1     -41.187  59.391 -53.266  1.00  0.00     0.203 C 
BRANCH  37  38
HETATM   38  C   UNL     1     -41.903  60.012 -52.111  1.00  0.00     0.070 A 
HETATM   39  O   UNL     1     -43.139  60.545 -52.358  1.00  0.00    -0.325 OA
HETATM   40  C   UNL     1     -43.603  61.026 -51.175  1.00  0.00     0.142 A 
HETATM   41  C   UNL     1     -42.687  60.812 -50.174  1.00  0.00     0.027 A 
HETATM   42  C   UNL     1     -41.586  60.157 -50.776  1.00  0.00     0.036 A 
ENDBRANCH  37  38
ENDBRANCH  13  37
TORSDOF 11
ENDMDL
MODEL 3
REMARK VINA RESULT:      -8.3      2.455      6.613
REMARK  11 active torsions:
REMARK  status: ('A' for Active; 'I' for Inactive)
REMARK    1  A    between atoms: N_13  and  C_14 
REMARK    2  A    between atoms: C_14  and  C_15 
REMARK    3  A    between atoms: N_20  and  C_21 
REMARK    4  A    between atoms: C_21  and  C_22 
REMARK    5  A    between atoms: C_22  and  O_23 
REMARK    6  A    between atoms: C_22  and  C_24 
REMARK    7  A    between atoms: C_24  and  N_25 
REMARK    8  A    between atoms: N_25  and  C_27 
REMARK    9  A    between atoms: N_25  and  C_34 
REMARK   10  A    between atoms: C_27  and  C_28 
REMARK   11  A    between atoms: C_34  and  C_35 
ROOT
HETATM    1  C   UNL     1     -45.700  62.890 -54.744  1.00  0.00     0.163 C 
HETATM    2  N   UNL     1     -44.504  62.063 -54.726  1.00  0.00    -0.285 N 
HETATM    3  C   UNL     1     -43.768  61.857 -55.897  1.00  0.00     0.332 A 
HETATM    4  O   UNL     1     -44.108  62.353 -56.973  1.00  0.00    -0.246 OA
HETATM    5  N   UNL     1     -42.626  61.033 -55.798  1.00  0.00    -0.269 N 
HETATM    6  C   UNL     1     -41.861  60.794 -57.007  1.00  0.00     0.164 C 
HETATM    7  C   UNL     1     -42.243  60.318 -54.663  1.00  0.00     0.282 A 
HETATM    8  O   UNL     1     -41.351  59.473 -54.631  1.00  0.00    -0.265 OA
HETATM    9  C   UNL     1     -43.034  60.618 -53.523  1.00  0.00     0.166 A 
HETATM   10  C   UNL     1     -44.115  61.440 -53.566  1.00  0.00     0.186 A 
HETATM   11  N   UNL     1     -44.751  61.493 -52.367  1.00  0.00    -0.044 NA
HETATM   12  C   UNL     1     -44.055  60.715 -51.566  1.00  0.00     0.705 A 
HETATM   13  N   UNL     1     -44.333  60.408 -50.281  1.00  0.00    -0.218 N 
HETATM   14  N   UNL     1     -42.983  60.159 -52.233  1.00  0.00    -0.170 N 
HETATM   15  H   UNL     1     -43.578  60.239 -49.622  1.00  0.00     0.178 HD
ENDROOT
BRANCH  14  16
HETATM   16  C   UNL     1     -42.050  59.160 -51.735  1.00  0.00     0.181 C 
BRANCH  16  17
HETATM   17  C   UNL     1     -42.661  57.757 -51.811  1.00  0.00     0.163 C 
BRANCH  17  18
HETATM   18  O   UNL     1     -43.229  57.377 -50.553  1.00  0.00    -0.392 OA
HETATM   19  H   UNL     1     -43.596  58.182 -50.124  1.00  0.00     0.210 HD
ENDBRANCH  17  18
BRANCH  17  20
HETATM   20  C   UNL     1     -41.648  56.688 -52.277  1.00  0.00     0.268 C 
BRANCH  20  21
HETATM   21  N   UNL     1     -42.225  55.545 -53.120  1.00  0.00    -0.061 N 
HETATM   22  H   UNL     1     -41.618  55.381 -53.926  1.00  0.00     0.280 HD
BRANCH  21  23
HETATM   23  C   UNL     1     -42.300  54.231 -52.352  1.00  0.00     0.273 C 
BRANCH  23  24
HETATM   24  C   UNL     1     -41.269  53.203 -52.740  1.00  0.00    -0.033 A 
HETATM   25  C   UNL     1     -40.341  52.726 -51.801  1.00  0.00     0.009 A 
HETATM   26  C   UNL     1     -39.380  51.785 -52.175  1.00  0.00     0.001 A 
HETATM   27  C   UNL     1     -39.340  51.311 -53.484  1.00  0.00     0.000 A 
HETATM   28  C   UNL     1     -40.261  51.770 -54.422  1.00  0.00     0.001 A 
HETATM   29  C   UNL     1     -41.222  52.712 -54.054  1.00  0.00     0.009 A 
ENDBRANCH  23  24
ENDBRANCH  21  23
BRANCH  21  30
HETATM   30  C   UNL     1     -43.577  55.950 -53.702  1.00  0.00     0.273 C 
BRANCH  30  31
HETATM   31  C   UNL     1     -43.525  56.229 -55.181  1.00  0.00    -0.033 A 
HETATM   32  C   UNL     1     -42.967  55.288 -56.062  1.00  0.00     0.009 A 
HETATM   33  C   UNL     1     -42.906  55.552 -57.432  1.00  0.00     0.001 A 
HETATM   34  C   UNL     1     -43.401  56.753 -57.934  1.00  0.00     0.000 A 
HETATM   35  C   UNL     1     -43.966  57.690 -57.071  1.00  0.00     0.001 A 
HETATM   36  C   UNL     1     -44.031  57.430 -55.701  1.00  0.00     0.009 A 
ENDBRANCH  30  31
ENDBRANCH  21  30
ENDBRANCH  20  21
ENDBRANCH  17  20
ENDBRANCH  16  17
ENDBRANCH  14  16
BRANCH  13  37
HETATM   37  C   UNL     1     -45.375  61.206 -49.625  1.00  0.00     0.203 C 
BRANCH  37  38
HETATM   38  C   UNL     1     -45.444  60.990 -48.148  1.00  0.00     0.070 A 
HETATM   39  O   UNL     1     -46.257  59.982 -47.703  1.00  0.00    -0.325 OA
HETATM   40  C   UNL     1     -46.145  59.956 -46.350  1.00  0.00     0.142 A 
HETATM   41  C   UNL     1     -45.276  60.928 -45.917  1.00  0.00     0.027 A 
HETATM   42  C   UNL     1     -44.821  61.599 -47.078  1.00  0.00     0.036 A 
ENDBRANCH  37  38
ENDBRANCH  13  37
TORSDOF 11
ENDMDL
MODEL 4
REMARK VINA RESULT:      -8.2      1.876      6.537
REMARK  11 active torsions:
REMARK  status: ('A' for Active; 'I' for Inactive)
REMARK    1  A    between atoms: N_13  and  C_14 
REMARK    2  A    between atoms: C_14  and  C_15 
REMARK    3  A    between atoms: N_20  and  C_21 
REMARK    4  A    between atoms: C_21  and  C_22 
REMARK    5  A    between atoms: C_22  and  O_23 
REMARK    6  A    between atoms: C_22  and  C_24 
REMARK    7  A    between atoms: C_24  and  N_25 
REMARK    8  A    between atoms: N_25  and  C_27 
REMARK    9  A    between atoms: N_25  and  C_34 
REMARK   10  A    between atoms: C_27  and  C_28 
REMARK   11  A    between atoms: C_34  and  C_35 
ROOT
HETATM    1  C   UNL     1     -45.464  59.849 -58.669  1.00  0.00     0.163 C 
HETATM    2  N   UNL     1     -44.998  58.478 -58.800  1.00  0.00    -0.285 N 
HETATM    3  C   UNL     1     -45.487  57.658 -59.822  1.00  0.00     0.332 A 
HETATM    4  O   UNL     1     -46.328  58.060 -60.629  1.00  0.00    -0.246 OA
HETATM    5  N   UNL     1     -44.992  56.337 -59.875  1.00  0.00    -0.269 N 
HETATM    6  C   UNL     1     -45.503  55.468 -60.918  1.00  0.00     0.164 C 
HETATM    7  C   UNL     1     -44.151  55.753 -58.928  1.00  0.00     0.282 A 
HETATM    8  O   UNL     1     -43.862  54.559 -58.885  1.00  0.00    -0.265 OA
HETATM    9  C   UNL     1     -43.688  56.672 -57.952  1.00  0.00     0.166 A 
HETATM   10  C   UNL     1     -44.105  57.964 -57.892  1.00  0.00     0.186 A 
HETATM   11  N   UNL     1     -43.583  58.610 -56.817  1.00  0.00    -0.044 NA
HETATM   12  C   UNL     1     -42.822  57.724 -56.211  1.00  0.00     0.705 A 
HETATM   13  N   UNL     1     -42.137  57.887 -55.060  1.00  0.00    -0.218 N 
HETATM   14  N   UNL     1     -42.850  56.517 -56.879  1.00  0.00    -0.170 N 
HETATM   15  H   UNL     1     -41.253  57.406 -54.920  1.00  0.00     0.178 HD
ENDROOT
BRANCH  14  16
HETATM   16  C   UNL     1     -42.240  55.262 -56.467  1.00  0.00     0.181 C 
BRANCH  16  17
HETATM   17  C   UNL     1     -43.164  54.492 -55.516  1.00  0.00     0.163 C 
BRANCH  17  18
HETATM   18  O   UNL     1     -44.079  55.378 -54.863  1.00  0.00    -0.392 OA
HETATM   19  H   UNL     1     -44.494  54.895 -54.115  1.00  0.00     0.210 HD
ENDBRANCH  17  18
BRANCH  17  20
HETATM   20  C   UNL     1     -42.386  53.667 -54.467  1.00  0.00     0.268 C 
BRANCH  20  21
HETATM   21  N   UNL     1     -40.969  54.157 -54.150  1.00  0.00    -0.061 N 
HETATM   22  H   UNL     1     -40.791  55.025 -54.660  1.00  0.00     0.280 HD
BRANCH  21  23
HETATM   23  C   UNL     1     -40.773  54.468 -52.672  1.00  0.00     0.273 C 
BRANCH  23  24
HETATM   24  C   UNL     1     -42.012  54.920 -51.943  1.00  0.00    -0.033 A 
HETATM   25  C   UNL     1     -42.814  53.998 -51.251  1.00  0.00     0.009 A 
HETATM   26  C   UNL     1     -43.969  54.425 -50.592  1.00  0.00     0.001 A 
HETATM   27  C   UNL     1     -44.328  55.771 -50.615  1.00  0.00     0.000 A 
HETATM   28  C   UNL     1     -43.536  56.695 -51.290  1.00  0.00     0.001 A 
HETATM   29  C   UNL     1     -42.382  56.274 -51.952  1.00  0.00     0.009 A 
ENDBRANCH  23  24
ENDBRANCH  21  23
BRANCH  21  30
HETATM   30  C   UNL     1     -39.937  53.159 -54.670  1.00  0.00     0.273 C 
BRANCH  30  31
HETATM   31  C   UNL     1     -39.826  51.923 -53.815  1.00  0.00    -0.033 A 
HETATM   32  C   UNL     1     -39.906  50.648 -54.399  1.00  0.00     0.009 A 
HETATM   33  C   UNL     1     -39.817  49.502 -53.606  1.00  0.00     0.001 A 
HETATM   34  C   UNL     1     -39.646  49.618 -52.229  1.00  0.00     0.000 A 
HETATM   35  C   UNL     1     -39.555  50.878 -51.640  1.00  0.00     0.001 A 
HETATM   36  C   UNL     1     -39.642  52.026 -52.429  1.00  0.00     0.009 A 
ENDBRANCH  30  31
ENDBRANCH  21  30
ENDBRANCH  20  21
ENDBRANCH  17  20
ENDBRANCH  16  17
ENDBRANCH  14  16
BRANCH  13  37
HETATM   37  C   UNL     1     -42.023  59.259 -54.551  1.00  0.00     0.203 C 
BRANCH  37  38
HETATM   38  C   UNL     1     -41.373  59.340 -53.208  1.00  0.00     0.070 A 
HETATM   39  O   UNL     1     -42.077  59.964 -52.213  1.00  0.00    -0.325 OA
HETATM   40  C   UNL     1     -41.312  59.899 -51.092  1.00  0.00     0.142 A 
HETATM   41  C   UNL     1     -40.131  59.246 -51.349  1.00  0.00     0.027 A 
HETATM   42  C   UNL     1     -40.168  58.883 -52.717  1.00  0.00     0.036 A 
ENDBRANCH  37  38
ENDBRANCH  13  37
TORSDOF 11
ENDMDL
MODEL 5
REMARK VINA RESULT:      -8.2      2.422      3.476
REMARK  11 active torsions:
REMARK  status: ('A' for Active; 'I' for Inactive)
REMARK    1  A    between atoms: N_13  and  C_14 
REMARK    2  A    between atoms: C_14  and  C_15 
REMARK    3  A    between atoms: N_20  and  C_21 
REMARK    4  A    between atoms: C_21  and  C_22 
REMARK    5  A    between atoms: C_22  and  O_23 
REMARK    6  A    between atoms: C_22  and  C_24 
REMARK    7  A    between atoms: C_24  and  N_25 
REMARK    8  A    between atoms: N_25  and  C_27 
REMARK    9  A    between atoms: N_25  and  C_34 
REMARK   10  A    between atoms: C_27  and  C_28 
REMARK   11  A    between atoms: C_34  and  C_35 
ROOT
HETATM    1  C   UNL     1     -44.388  62.601 -53.797  1.00  0.00     0.163 C 
HETATM    2  N   UNL     1     -44.525  61.154 -53.765  1.00  0.00    -0.285 N 
HETATM    3  C   UNL     1     -44.797  60.495 -52.561  1.00  0.00     0.332 A 
HETATM    4  O   UNL     1     -44.917  61.108 -51.499  1.00  0.00    -0.246 OA
HETATM    5  N   UNL     1     -44.905  59.089 -52.613  1.00  0.00    -0.269 N 
HETATM    6  C   UNL     1     -45.169  58.388 -51.371  1.00  0.00     0.164 C 
HETATM    7  C   UNL     1     -44.648  58.300 -53.734  1.00  0.00     0.282 A 
HETATM    8  O   UNL     1     -44.576  57.073 -53.731  1.00  0.00    -0.265 OA
HETATM    9  C   UNL     1     -44.412  59.062 -54.908  1.00  0.00     0.166 A 
HETATM   10  C   UNL     1     -44.343  60.419 -54.911  1.00  0.00     0.186 A 
HETATM   11  N   UNL     1     -44.021  60.903 -56.138  1.00  0.00    -0.044 NA
HETATM   12  C   UNL     1     -43.904  59.845 -56.912  1.00  0.00     0.705 A 
HETATM   13  N   UNL     1     -43.539  59.819 -58.211  1.00  0.00    -0.218 N 
HETATM   14  N   UNL     1     -44.143  58.688 -56.199  1.00  0.00    -0.170 N 
HETATM   15  H   UNL     1     -43.921  59.113 -58.834  1.00  0.00     0.178 HD
ENDROOT
BRANCH  14  16
HETATM   16  C   UNL     1     -43.998  57.317 -56.660  1.00  0.00     0.181 C 
BRANCH  16  17
HETATM   17  C   UNL     1     -42.521  56.911 -56.713  1.00  0.00     0.163 C 
BRANCH  17  18
HETATM   18  O   UNL     1     -42.037  56.914 -58.060  1.00  0.00    -0.392 OA
HETATM   19  H   UNL     1     -41.947  57.848 -58.353  1.00  0.00     0.210 HD
ENDBRANCH  17  18
BRANCH  17  20
HETATM   20  C   UNL     1     -42.255  55.537 -56.059  1.00  0.00     0.268 C 
BRANCH  20  21
HETATM   21  N   UNL     1     -42.285  55.511 -54.526  1.00  0.00    -0.061 N 
HETATM   22  H   UNL     1     -42.987  56.176 -54.192  1.00  0.00     0.280 HD
BRANCH  21  23
HETATM   23  C   UNL     1     -42.672  54.147 -53.970  1.00  0.00     0.273 C 
BRANCH  23  24
HETATM   24  C   UNL     1     -41.531  53.332 -53.420  1.00  0.00    -0.033 A 
HETATM   25  C   UNL     1     -40.759  52.516 -54.262  1.00  0.00     0.009 A 
HETATM   26  C   UNL     1     -39.714  51.752 -53.739  1.00  0.00     0.001 A 
HETATM   27  C   UNL     1     -39.428  51.801 -52.376  1.00  0.00     0.000 A 
HETATM   28  C   UNL     1     -40.180  52.614 -51.533  1.00  0.00     0.001 A 
HETATM   29  C   UNL     1     -41.228  53.377 -52.050  1.00  0.00     0.009 A 
ENDBRANCH  23  24
ENDBRANCH  21  23
BRANCH  21  30
HETATM   30  C   UNL     1     -40.954  56.005 -53.965  1.00  0.00     0.273 C 
BRANCH  30  31
HETATM   31  C   UNL     1     -41.101  57.200 -53.059  1.00  0.00    -0.033 A 
HETATM   32  C   UNL     1     -41.308  57.025 -51.681  1.00  0.00     0.009 A 
HETATM   33  C   UNL     1     -41.458  58.131 -50.843  1.00  0.00     0.001 A 
HETATM   34  C   UNL     1     -41.401  59.419 -51.370  1.00  0.00     0.000 A 
HETATM   35  C   UNL     1     -41.187  59.606 -52.734  1.00  0.00     0.001 A 
HETATM   36  C   UNL     1     -41.035  58.503 -53.576  1.00  0.00     0.009 A 
ENDBRANCH  30  31
ENDBRANCH  21  30
ENDBRANCH  20  21
ENDBRANCH  17  20
ENDBRANCH  16  17
ENDBRANCH  14  16
BRANCH  13  37
HETATM   37  C   UNL     1     -43.504  61.109 -58.910  1.00  0.00     0.203 C 
BRANCH  37  38
HETATM   38  C   UNL     1     -42.121  61.641 -59.102  1.00  0.00     0.070 A 
HETATM   39  O   UNL     1     -41.842  62.229 -60.307  1.00  0.00    -0.325 OA
HETATM   40  C   UNL     1     -40.553  62.652 -60.248  1.00  0.00     0.142 A 
HETATM   41  C   UNL     1     -39.999  62.347 -59.028  1.00  0.00     0.027 A 
HETATM   42  C   UNL     1     -41.011  61.692 -58.285  1.00  0.00     0.036 A 
ENDBRANCH  37  38
ENDBRANCH  13  37
TORSDOF 11
ENDMDL
MODEL 6
REMARK VINA RESULT:      -8.1      2.330      7.167
REMARK  11 active torsions:
REMARK  status: ('A' for Active; 'I' for Inactive)
REMARK    1  A    between atoms: N_13  and  C_14 
REMARK    2  A    between atoms: C_14  and  C_15 
REMARK    3  A    between atoms: N_20  and  C_21 
REMARK    4  A    between atoms: C_21  and  C_22 
REMARK    5  A    between atoms: C_22  and  O_23 
REMARK    6  A    between atoms: C_22  and  C_24 
REMARK    7  A    between atoms: C_24  and  N_25 
REMARK    8  A    between atoms: N_25  and  C_27 
REMARK    9  A    between atoms: N_25  and  C_34 
REMARK   10  A    between atoms: C_27  and  C_28 
REMARK   11  A    between atoms: C_34  and  C_35 
ROOT
HETATM    1  C   UNL     1     -40.479  58.418 -50.137  1.00  0.00     0.163 C 
HETATM    2  N   UNL     1     -41.512  58.528 -51.153  1.00  0.00    -0.285 N 
HETATM    3  C   UNL     1     -42.222  59.722 -51.316  1.00  0.00     0.332 A 
HETATM    4  O   UNL     1     -42.006  60.706 -50.605  1.00  0.00    -0.246 OA
HETATM    5  N   UNL     1     -43.216  59.744 -52.317  1.00  0.00    -0.269 N 
HETATM    6  C   UNL     1     -43.974  60.969 -52.487  1.00  0.00     0.164 C 
HETATM    7  C   UNL     1     -43.626  58.644 -53.071  1.00  0.00     0.282 A 
HETATM    8  O   UNL     1     -44.604  58.626 -53.817  1.00  0.00    -0.265 OA
HETATM    9  C   UNL     1     -42.827  57.491 -52.855  1.00  0.00     0.166 A 
HETATM   10  C   UNL     1     -41.831  57.442 -51.932  1.00  0.00     0.186 A 
HETATM   11  N   UNL     1     -41.277  56.204 -51.859  1.00  0.00    -0.044 NA
HETATM   12  C   UNL     1     -41.917  55.480 -52.752  1.00  0.00     0.705 A 
HETATM   13  N   UNL     1     -41.753  54.165 -53.006  1.00  0.00    -0.218 N 
HETATM   14  N   UNL     1     -42.877  56.233 -53.395  1.00  0.00    -0.170 N 
HETATM   15  H   UNL     1     -41.885  53.807 -53.948  1.00  0.00     0.178 HD
ENDROOT
BRANCH  14  16
HETATM   16  C   UNL     1     -43.866  55.774 -54.358  1.00  0.00     0.181 C 
BRANCH  16  17
HETATM   17  C   UNL     1     -43.260  55.682 -55.762  1.00  0.00     0.163 C 
BRANCH  17  18
HETATM   18  O   UNL     1     -42.507  54.475 -55.917  1.00  0.00    -0.392 OA
HETATM   19  H   UNL     1     -42.552  54.202 -56.860  1.00  0.00     0.210 HD
ENDBRANCH  17  18
BRANCH  17  20
HETATM   20  C   UNL     1     -42.381  56.903 -56.115  1.00  0.00     0.268 C 
BRANCH  20  21
HETATM   21  N   UNL     1     -42.767  57.656 -57.393  1.00  0.00    -0.061 N 
HETATM   22  H   UNL     1     -42.371  57.172 -58.202  1.00  0.00     0.280 HD
BRANCH  21  23
HETATM   23  C   UNL     1     -44.274  57.710 -57.608  1.00  0.00     0.273 C 
BRANCH  23  24
HETATM   24  C   UNL     1     -44.782  56.916 -58.783  1.00  0.00    -0.033 A 
HETATM   25  C   UNL     1     -44.016  55.876 -59.333  1.00  0.00     0.009 A 
HETATM   26  C   UNL     1     -44.489  55.157 -60.432  1.00  0.00     0.001 A 
HETATM   27  C   UNL     1     -45.729  55.466 -60.987  1.00  0.00     0.000 A 
HETATM   28  C   UNL     1     -46.502  56.489 -60.445  1.00  0.00     0.001 A 
HETATM   29  C   UNL     1     -46.033  57.213 -59.349  1.00  0.00     0.009 A 
ENDBRANCH  23  24
ENDBRANCH  21  23
BRANCH  21  30
HETATM   30  C   UNL     1     -42.135  59.045 -57.398  1.00  0.00     0.273 C 
BRANCH  30  31
HETATM   31  C   UNL     1     -42.021  59.639 -58.779  1.00  0.00    -0.033 A 
HETATM   32  C   UNL     1     -41.970  61.032 -58.950  1.00  0.00     0.009 A 
HETATM   33  C   UNL     1     -41.879  61.583 -60.229  1.00  0.00     0.001 A 
HETATM   34  C   UNL     1     -41.835  60.752 -61.346  1.00  0.00     0.000 A 
HETATM   35  C   UNL     1     -41.876  59.369 -61.188  1.00  0.00     0.001 A 
HETATM   36  C   UNL     1     -41.965  58.812 -59.911  1.00  0.00     0.009 A 
ENDBRANCH  30  31
ENDBRANCH  21  30
ENDBRANCH  20  21
ENDBRANCH  17  20
ENDBRANCH  16  17
ENDBRANCH  14  16
BRANCH  13  37
HETATM   37  C   UNL     1     -40.580  53.520 -52.406  1.00  0.00     0.203 C 
BRANCH  37  38
HETATM   38  C   UNL     1     -40.262  52.190 -53.008  1.00  0.00     0.070 A 
HETATM   39  O   UNL     1     -39.672  51.262 -52.192  1.00  0.00    -0.325 OA
HETATM   40  C   UNL     1     -39.500  50.139 -52.937  1.00  0.00     0.142 A 
HETATM   41  C   UNL     1     -39.967  50.329 -54.215  1.00  0.00     0.027 A 
HETATM   42  C   UNL     1     -40.460  51.655 -54.264  1.00  0.00     0.036 A 
ENDBRANCH  37  38
ENDBRANCH  13  37
TORSDOF 11
ENDMDL
MODEL 7
REMARK VINA RESULT:      -8.1      2.308      5.503
REMARK  11 active torsions:
REMARK  status: ('A' for Active; 'I' for Inactive)
REMARK    1  A    between atoms: N_13  and  C_14 
REMARK    2  A    between atoms: C_14  and  C_15 
REMARK    3  A    between atoms: N_20  and  C_21 
REMARK    4  A    between atoms: C_21  and  C_22 
REMARK    5  A    between atoms: C_22  and  O_23 
REMARK    6  A    between atoms: C_22  and  C_24 
REMARK    7  A    between atoms: C_24  and  N_25 
REMARK    8  A    between atoms: N_25  and  C_27 
REMARK    9  A    between atoms: N_25  and  C_34 
REMARK   10  A    between atoms: C_27  and  C_28 
REMARK   11  A    between atoms: C_34  and  C_35 
ROOT
HETATM    1  C   UNL     1     -41.087  62.699 -58.112  1.00  0.00     0.163 C 
HETATM    2  N   UNL     1     -41.613  61.401 -58.501  1.00  0.00    -0.285 N 
HETATM    3  C   UNL     1     -41.562  60.988 -59.836  1.00  0.00     0.332 A 
HETATM    4  O   UNL     1     -41.085  61.704 -60.719  1.00  0.00    -0.246 OA
HETATM    5  N   UNL     1     -42.104  59.719 -60.134  1.00  0.00    -0.269 N 
HETATM    6  C   UNL     1     -42.075  59.282 -61.517  1.00  0.00     0.164 C 
HETATM    7  C   UNL     1     -42.787  58.902 -59.233  1.00  0.00     0.282 A 
HETATM    8  O   UNL     1     -43.403  57.882 -59.535  1.00  0.00    -0.265 OA
HETATM    9  C   UNL     1     -42.758  59.394 -57.902  1.00  0.00     0.166 A 
HETATM   10  C   UNL     1     -42.207  60.590 -57.566  1.00  0.00     0.186 A 
HETATM   11  N   UNL     1     -42.385  60.870 -56.249  1.00  0.00    -0.044 NA
HETATM   12  C   UNL     1     -43.034  59.838 -55.755  1.00  0.00     0.705 A 
HETATM   13  N   UNL     1     -43.484  59.684 -54.492  1.00  0.00    -0.218 N 
HETATM   14  N   UNL     1     -43.279  58.899 -56.736  1.00  0.00    -0.170 N 
HETATM   15  H   UNL     1     -43.519  58.760 -54.072  1.00  0.00     0.178 HD
ENDROOT
BRANCH  14  16
HETATM   16  C   UNL     1     -44.067  57.682 -56.621  1.00  0.00     0.181 C 
BRANCH  16  17
HETATM   17  C   UNL     1     -43.158  56.453 -56.501  1.00  0.00     0.163 C 
BRANCH  17  18
HETATM   18  O   UNL     1     -43.440  55.505 -57.535  1.00  0.00    -0.392 OA
HETATM   19  H   UNL     1     -44.332  55.701 -57.899  1.00  0.00     0.210 HD
ENDBRANCH  17  18
BRANCH  17  20
HETATM   20  C   UNL     1     -43.255  55.771 -55.118  1.00  0.00     0.268 C 
BRANCH  20  21
HETATM   21  N   UNL     1     -41.921  55.516 -54.406  1.00  0.00    -0.061 N 
HETATM   22  H   UNL     1     -42.100  55.304 -53.422  1.00  0.00     0.280 HD
BRANCH  21  23
HETATM   23  C   UNL     1     -41.168  54.324 -54.983  1.00  0.00     0.273 C 
BRANCH  23  24
HETATM   24  C   UNL     1     -40.626  53.355 -53.964  1.00  0.00    -0.033 A 
HETATM   25  C   UNL     1     -40.634  53.672 -52.596  1.00  0.00     0.009 A 
HETATM   26  C   UNL     1     -40.115  52.774 -51.662  1.00  0.00     0.001 A 
HETATM   27  C   UNL     1     -39.590  51.554 -52.084  1.00  0.00     0.000 A 
HETATM   28  C   UNL     1     -39.586  51.225 -53.436  1.00  0.00     0.001 A 
HETATM   29  C   UNL     1     -40.100  52.120 -54.374  1.00  0.00     0.009 A 
ENDBRANCH  23  24
ENDBRANCH  21  23
BRANCH  21  30
HETATM   30  C   UNL     1     -41.074  56.786 -54.403  1.00  0.00     0.273 C 
BRANCH  30  31
HETATM   31  C   UNL     1     -40.995  57.442 -53.049  1.00  0.00    -0.033 A 
HETATM   32  C   UNL     1     -41.765  56.957 -51.979  1.00  0.00     0.009 A 
HETATM   33  C   UNL     1     -41.703  57.573 -50.728  1.00  0.00     0.001 A 
HETATM   34  C   UNL     1     -40.873  58.674 -50.533  1.00  0.00     0.000 A 
HETATM   35  C   UNL     1     -40.098  59.159 -51.584  1.00  0.00     0.001 A 
HETATM   36  C   UNL     1     -40.155  58.545 -52.836  1.00  0.00     0.009 A 
ENDBRANCH  30  31
ENDBRANCH  21  30
ENDBRANCH  20  21
ENDBRANCH  17  20
ENDBRANCH  16  17
ENDBRANCH  14  16
BRANCH  13  37
HETATM   37  C   UNL     1     -42.997  60.647 -53.498  1.00  0.00     0.203 C 
BRANCH  37  38
HETATM   38  C   UNL     1     -43.635  60.488 -52.157  1.00  0.00     0.070 A 
HETATM   39  O   UNL     1     -43.168  61.286 -51.146  1.00  0.00    -0.325 OA
HETATM   40  C   UNL     1     -43.900  60.988 -50.041  1.00  0.00     0.142 A 
HETATM   41  C   UNL     1     -44.828  60.015 -50.323  1.00  0.00     0.027 A 
HETATM   42  C   UNL     1     -44.658  59.689 -51.691  1.00  0.00     0.036 A 
ENDBRANCH  37  38
ENDBRANCH  13  37
TORSDOF 11
ENDMDL
MODEL 8
REMARK VINA RESULT:      -8.0      1.852      5.400
REMARK  11 active torsions:
REMARK  status: ('A' for Active; 'I' for Inactive)
REMARK    1  A    between atoms: N_13  and  C_14 
REMARK    2  A    between atoms: C_14  and  C_15 
REMARK    3  A    between atoms: N_20  and  C_21 
REMARK    4  A    between atoms: C_21  and  C_22 
REMARK    5  A    between atoms: C_22  and  O_23 
REMARK    6  A    between atoms: C_22  and  C_24 
REMARK    7  A    between atoms: C_24  and  N_25 
REMARK    8  A    between atoms: N_25  and  C_27 
REMARK    9  A    between atoms: N_25  and  C_34 
REMARK   10  A    between atoms: C_27  and  C_28 
REMARK   11  A    between atoms: C_34  and  C_35 
ROOT
HETATM    1  C   UNL     1     -47.620  58.787 -58.513  1.00  0.00     0.163 C 
HETATM    2  N   UNL     1     -46.448  57.975 -58.793  1.00  0.00    -0.285 N 
HETATM    3  C   UNL     1     -46.440  57.094 -59.879  1.00  0.00     0.332 A 
HETATM    4  O   UNL     1     -47.418  56.968 -60.619  1.00  0.00    -0.246 OA
HETATM    5  N   UNL     1     -45.268  56.333 -60.078  1.00  0.00    -0.269 N 
HETATM    6  C   UNL     1     -45.250  55.400 -61.188  1.00  0.00     0.164 C 
HETATM    7  C   UNL     1     -44.171  56.302 -59.217  1.00  0.00     0.282 A 
HETATM    8  O   UNL     1     -43.231  55.515 -59.302  1.00  0.00    -0.265 OA
HETATM    9  C   UNL     1     -44.262  57.251 -58.165  1.00  0.00     0.166 A 
HETATM   10  C   UNL     1     -45.354  58.034 -57.965  1.00  0.00     0.186 A 
HETATM   11  N   UNL     1     -45.228  58.792 -56.845  1.00  0.00    -0.044 NA
HETATM   12  C   UNL     1     -44.045  58.495 -56.351  1.00  0.00     0.705 A 
HETATM   13  N   UNL     1     -43.497  58.958 -55.208  1.00  0.00    -0.218 N 
HETATM   14  N   UNL     1     -43.410  57.555 -57.136  1.00  0.00    -0.170 N 
HETATM   15  H   UNL     1     -42.492  59.088 -55.140  1.00  0.00     0.178 HD
ENDROOT
BRANCH  14  16
HETATM   16  C   UNL     1     -42.147  56.885 -56.869  1.00  0.00     0.181 C 
BRANCH  16  17
HETATM   17  C   UNL     1     -42.148  56.254 -55.472  1.00  0.00     0.163 C 
BRANCH  17  18
HETATM   18  O   UNL     1     -41.181  56.883 -54.625  1.00  0.00    -0.392 OA
HETATM   19  H   UNL     1     -40.484  57.280 -55.194  1.00  0.00     0.210 HD
ENDBRANCH  17  18
BRANCH  17  20
HETATM   20  C   UNL     1     -41.909  54.728 -55.505  1.00  0.00     0.268 C 
BRANCH  20  21
HETATM   21  N   UNL     1     -42.001  54.009 -54.154  1.00  0.00    -0.061 N 
HETATM   22  H   UNL     1     -42.417  53.086 -54.291  1.00  0.00     0.280 HD
BRANCH  21  23
HETATM   23  C   UNL     1     -40.636  53.785 -53.515  1.00  0.00     0.273 C 
BRANCH  23  24
HETATM   24  C   UNL     1     -40.268  52.344 -53.279  1.00  0.00    -0.033 A 
HETATM   25  C   UNL     1     -39.826  51.912 -52.018  1.00  0.00     0.009 A 
HETATM   26  C   UNL     1     -39.472  50.577 -51.814  1.00  0.00     0.001 A 
HETATM   27  C   UNL     1     -39.562  49.664 -52.862  1.00  0.00     0.000 A 
HETATM   28  C   UNL     1     -40.008  50.078 -54.114  1.00  0.00     0.001 A 
HETATM   29  C   UNL     1     -40.360  51.411 -54.324  1.00  0.00     0.009 A 
ENDBRANCH  23  24
ENDBRANCH  21  23
BRANCH  21  30
HETATM   30  C   UNL     1     -42.956  54.754 -53.225  1.00  0.00     0.273 C 
BRANCH  30  31
HETATM   31  C   UNL     1     -42.366  55.029 -51.865  1.00  0.00    -0.033 A 
HETATM   32  C   UNL     1     -41.737  56.256 -51.600  1.00  0.00     0.009 A 
HETATM   33  C   UNL     1     -41.178  56.505 -50.345  1.00  0.00     0.001 A 
HETATM   34  C   UNL     1     -41.243  55.537 -49.347  1.00  0.00     0.000 A 
HETATM   35  C   UNL     1     -41.873  54.319 -49.596  1.00  0.00     0.001 A 
HETATM   36  C   UNL     1     -42.435  54.065 -50.848  1.00  0.00     0.009 A 
ENDBRANCH  30  31
ENDBRANCH  21  30
ENDBRANCH  20  21
ENDBRANCH  17  20
ENDBRANCH  16  17
ENDBRANCH  14  16
BRANCH  13  37
HETATM   37  C   UNL     1     -44.173  60.092 -54.567  1.00  0.00     0.203 C 
BRANCH  37  38
HETATM   38  C   UNL     1     -44.795  59.745 -53.254  1.00  0.00     0.070 A 
HETATM   39  O   UNL     1     -45.781  60.576 -52.792  1.00  0.00    -0.325 OA
HETATM   40  C   UNL     1     -46.209  60.059 -51.611  1.00  0.00     0.142 A 
HETATM   41  C   UNL     1     -45.516  58.912 -51.306  1.00  0.00     0.027 A 
HETATM   42  C   UNL     1     -44.600  58.707 -52.366  1.00  0.00     0.036 A 
ENDBRANCH  37  38
ENDBRANCH  13  37
TORSDOF 11
ENDMDL
MODEL 9
REMARK VINA RESULT:      -7.9      2.171      6.578
REMARK  11 active torsions:
REMARK  status: ('A' for Active; 'I' for Inactive)
REMARK    1  A    between atoms: N_13  and  C_14 
REMARK    2  A    between atoms: C_14  and  C_15 
REMARK    3  A    between atoms: N_20  and  C_21 
REMARK    4  A    between atoms: C_21  and  C_22 
REMARK    5  A    between atoms: C_22  and  O_23 
REMARK    6  A    between atoms: C_22  and  C_24 
REMARK    7  A    between atoms: C_24  and  N_25 
REMARK    8  A    between atoms: N_25  and  C_27 
REMARK    9  A    between atoms: N_25  and  C_34 
REMARK   10  A    between atoms: C_27  and  C_28 
REMARK   11  A    between atoms: C_34  and  C_35 
ROOT
HETATM    1  C   UNL     1     -43.998  54.303 -59.139  1.00  0.00     0.163 C 
HETATM    2  N   UNL     1     -43.572  55.649 -58.793  1.00  0.00    -0.285 N 
HETATM    3  C   UNL     1     -43.615  56.673 -59.745  1.00  0.00     0.332 A 
HETATM    4  O   UNL     1     -44.001  56.470 -60.898  1.00  0.00    -0.246 OA
HETATM    5  N   UNL     1     -43.174  57.949 -59.332  1.00  0.00    -0.269 N 
HETATM    6  C   UNL     1     -43.195  59.018 -60.312  1.00  0.00     0.164 C 
HETATM    7  C   UNL     1     -42.592  58.241 -58.099  1.00  0.00     0.282 A 
HETATM    8  O   UNL     1     -42.055  59.309 -57.809  1.00  0.00    -0.265 OA
HETATM    9  C   UNL     1     -42.621  57.147 -57.196  1.00  0.00     0.166 A 
HETATM   10  C   UNL     1     -43.079  55.914 -57.539  1.00  0.00     0.186 A 
HETATM   11  N   UNL     1     -42.920  55.022 -56.527  1.00  0.00    -0.044 NA
HETATM   12  C   UNL     1     -42.377  55.703 -55.541  1.00  0.00     0.705 A 
HETATM   13  N   UNL     1     -41.982  55.228 -54.341  1.00  0.00    -0.218 N 
HETATM   14  N   UNL     1     -42.181  57.019 -55.905  1.00  0.00    -0.170 N 
HETATM   15  H   UNL     1     -42.040  55.817 -53.515  1.00  0.00     0.178 HD
ENDROOT
BRANCH  14  16
HETATM   16  C   UNL     1     -41.504  58.058 -55.144  1.00  0.00     0.181 C 
BRANCH  16  17
HETATM   17  C   UNL     1     -42.497  58.827 -54.266  1.00  0.00     0.163 C 
BRANCH  17  18
HETATM   18  O   UNL     1     -43.368  59.634 -55.066  1.00  0.00    -0.392 OA
HETATM   19  H   UNL     1     -43.960  59.038 -55.574  1.00  0.00     0.210 HD
ENDBRANCH  17  18
BRANCH  17  20
HETATM   20  C   UNL     1     -41.800  59.700 -53.198  1.00  0.00     0.268 C 
BRANCH  20  21
HETATM   21  N   UNL     1     -42.092  59.328 -51.740  1.00  0.00    -0.061 N 
HETATM   22  H   UNL     1     -43.032  58.933 -51.675  1.00  0.00     0.280 HD
BRANCH  21  23
HETATM   23  C   UNL     1     -41.134  58.272 -51.202  1.00  0.00     0.273 C 
BRANCH  23  24
HETATM   24  C   UNL     1     -41.771  56.958 -50.834  1.00  0.00    -0.033 A 
HETATM   25  C   UNL     1     -43.087  56.662 -51.225  1.00  0.00     0.009 A 
HETATM   26  C   UNL     1     -43.673  55.448 -50.865  1.00  0.00     0.001 A 
HETATM   27  C   UNL     1     -42.952  54.519 -50.117  1.00  0.00     0.000 A 
HETATM   28  C   UNL     1     -41.644  54.797 -49.731  1.00  0.00     0.001 A 
HETATM   29  C   UNL     1     -41.054  56.010 -50.086  1.00  0.00     0.009 A 
ENDBRANCH  23  24
ENDBRANCH  21  23
BRANCH  21  30
HETATM   30  C   UNL     1     -42.114  60.582 -50.871  1.00  0.00     0.273 C 
BRANCH  30  31
HETATM   31  C   UNL     1     -43.502  60.982 -50.443  1.00  0.00    -0.033 A 
HETATM   32  C   UNL     1     -44.607  60.185 -50.786  1.00  0.00     0.009 A 
HETATM   33  C   UNL     1     -45.896  60.562 -50.403  1.00  0.00     0.001 A 
HETATM   34  C   UNL     1     -46.092  61.732 -49.674  1.00  0.00     0.000 A 
HETATM   35  C   UNL     1     -45.003  62.525 -49.320  1.00  0.00     0.001 A 
HETATM   36  C   UNL     1     -43.713  62.152 -49.699  1.00  0.00     0.009 A 
ENDBRANCH  30  31
ENDBRANCH  21  30
ENDBRANCH  20  21
ENDBRANCH  17  20
ENDBRANCH  16  17
ENDBRANCH  14  16
BRANCH  13  37
HETATM   37  C   UNL     1     -42.418  53.870 -53.995  1.00  0.00     0.203 C 
BRANCH  37  38
HETATM   38  C   UNL     1     -41.295  52.976 -53.580  1.00  0.00     0.070 A 
HETATM   39  O   UNL     1     -41.028  51.899 -54.383  1.00  0.00    -0.325 OA
HETATM   40  C   UNL     1     -39.969  51.251 -53.831  1.00  0.00     0.142 A 
HETATM   41  C   UNL     1     -39.552  51.892 -52.689  1.00  0.00     0.027 A 
HETATM   42  C   UNL     1     -40.408  53.007 -52.524  1.00  0.00     0.036 A 
ENDBRANCH  37  38
ENDBRANCH  13  37
TORSDOF 11
ENDMDL
MODEL 10
REMARK VINA RESULT:      -7.9      2.621      6.685
REMARK  11 active torsions:
REMARK  status: ('A' for Active; 'I' for Inactive)
REMARK    1  A    between atoms: N_13  and  C_14 
REMARK    2  A    between atoms: C_14  and  C_15 
REMARK    3  A    between atoms: N_20  and  C_21 
REMARK    4  A    between atoms: C_21  and  C_22 
REMARK    5  A    between atoms: C_22  and  O_23 
REMARK    6  A    between atoms: C_22  and  C_24 
REMARK    7  A    between atoms: C_24  and  N_25 
REMARK    8  A    between atoms: N_25  and  C_27 
REMARK    9  A    between atoms: N_25  and  C_34 
REMARK   10  A    between atoms: C_27  and  C_28 
REMARK   11  A    between atoms: C_34  and  C_35 
ROOT
HETATM    1  C   UNL     1     -45.723  60.709 -47.899  1.00  0.00     0.163 C 
HETATM    2  N   UNL     1     -45.696  61.176 -49.276  1.00  0.00    -0.285 N 
HETATM    3  C   UNL     1     -45.964  62.516 -49.574  1.00  0.00     0.332 A 
HETATM    4  O   UNL     1     -46.241  63.334 -48.694  1.00  0.00    -0.246 OA
HETATM    5  N   UNL     1     -45.928  62.888 -50.935  1.00  0.00    -0.269 N 
HETATM    6  C   UNL     1     -46.222  64.270 -51.264  1.00  0.00     0.164 C 
HETATM    7  C   UNL     1     -45.765  62.011 -52.007  1.00  0.00     0.282 A 
HETATM    8  O   UNL     1     -45.905  62.311 -53.191  1.00  0.00    -0.265 OA
HETATM    9  C   UNL     1     -45.469  60.683 -51.600  1.00  0.00     0.166 A 
HETATM   10  C   UNL     1     -45.450  60.293 -50.299  1.00  0.00     0.186 A 
HETATM   11  N   UNL     1     -45.229  58.959 -50.179  1.00  0.00    -0.044 NA
HETATM   12  C   UNL     1     -45.091  58.514 -51.409  1.00  0.00     0.705 A 
HETATM   13  N   UNL     1     -44.911  57.235 -51.801  1.00  0.00    -0.218 N 
HETATM   14  N   UNL     1     -45.225  59.543 -52.319  1.00  0.00    -0.170 N 
HETATM   15  H   UNL     1     -44.356  57.028 -52.626  1.00  0.00     0.178 HD
ENDROOT
BRANCH  14  16
HETATM   16  C   UNL     1     -45.256  59.445 -53.770  1.00  0.00     0.181 C 
BRANCH  16  17
HETATM   17  C   UNL     1     -43.844  59.565 -54.355  1.00  0.00     0.163 C 
BRANCH  17  18
HETATM   18  O   UNL     1     -43.364  60.909 -54.261  1.00  0.00    -0.392 OA
HETATM   19  H   UNL     1     -43.606  61.262 -53.376  1.00  0.00     0.210 HD
ENDBRANCH  17  18
BRANCH  17  20
HETATM   20  C   UNL     1     -43.761  59.075 -55.819  1.00  0.00     0.268 C 
BRANCH  20  21
HETATM   21  N   UNL     1     -43.209  57.659 -56.016  1.00  0.00    -0.061 N 
HETATM   22  H   UNL     1     -43.967  56.982 -55.899  1.00  0.00     0.280 HD
BRANCH  21  23
HETATM   23  C   UNL     1     -42.641  57.441 -57.413  1.00  0.00     0.273 C 
BRANCH  23  24
HETATM   24  C   UNL     1     -43.547  56.706 -58.366  1.00  0.00    -0.033 A 
HETATM   25  C   UNL     1     -44.597  57.373 -59.018  1.00  0.00     0.009 A 
HETATM   26  C   UNL     1     -45.440  56.678 -59.887  1.00  0.00     0.001 A 
HETATM   27  C   UNL     1     -45.240  55.319 -60.116  1.00  0.00     0.000 A 
HETATM   28  C   UNL     1     -44.197  54.649 -59.483  1.00  0.00     0.001 A 
HETATM   29  C   UNL     1     -43.352  55.338 -58.611  1.00  0.00     0.009 A 
ENDBRANCH  23  24
ENDBRANCH  21  23
BRANCH  21  30
HETATM   30  C   UNL     1     -42.195  57.331 -54.924  1.00  0.00     0.273 C 
BRANCH  30  31
HETATM   31  C   UNL     1     -41.853  55.864 -54.854  1.00  0.00    -0.033 A 
HETATM   32  C   UNL     1     -42.873  54.898 -54.839  1.00  0.00     0.009 A 
HETATM   33  C   UNL     1     -42.558  53.540 -54.760  1.00  0.00     0.001 A 
HETATM   34  C   UNL     1     -41.227  53.136 -54.697  1.00  0.00     0.000 A 
HETATM   35  C   UNL     1     -40.207  54.084 -54.721  1.00  0.00     0.001 A 
HETATM   36  C   UNL     1     -40.517  55.443 -54.802  1.00  0.00     0.009 A 
ENDBRANCH  30  31
ENDBRANCH  21  30
ENDBRANCH  20  21
ENDBRANCH  17  20
ENDBRANCH  16  17
ENDBRANCH  14  16
BRANCH  13  37
HETATM   37  C   UNL     1     -44.589  56.265 -50.748  1.00  0.00     0.203 C 
BRANCH  37  38
HETATM   38  C   UNL     1     -43.273  55.587 -50.949  1.00  0.00     0.070 A 
HETATM   39  O   UNL     1     -42.159  56.382 -50.962  1.00  0.00    -0.325 OA
HETATM   40  C   UNL     1     -41.091  55.559 -51.133  1.00  0.00     0.142 A 
HETATM   41  C   UNL     1     -41.500  54.251 -51.231  1.00  0.00     0.027 A 
HETATM   42  C   UNL     1     -42.910  54.266 -51.113  1.00  0.00     0.036 A 
ENDBRANCH  37  38
ENDBRANCH  13  37
TORSDOF 11
ENDMDL
