MODEL 1
REMARK VINA RESULT:      -7.5      0.000      0.000
REMARK  7 active torsions:
REMARK  status: ('A' for Active; 'I' for Inactive)
REMARK    1  A    between atoms: O_2  and  C_3 
REMARK    2  A    between atoms: C_6  and  C_7 
REMARK    3  A    between atoms: C_7  and  N_8 
REMARK    4  A    between atoms: N_8  and  C_11 
REMARK    5  A    between atoms: C_11  and  C_12 
REMARK    6  A    between atoms: C_11  and  C_20 
REMARK       I    between atoms: C_12  and  N_13 
REMARK    7  A    between atoms: N_13  and  C_14 
ROOT
HETATM    1  C   UNL     1     -40.869  53.843 -52.886  1.00  0.00     0.310 C 
ENDROOT
BRANCH   1   2
HETATM    2  N   UNL     1     -42.147  53.947 -52.075  1.00  0.00    -0.054 N 
HETATM    3  H   UNL     1     -42.422  52.974 -51.870  1.00  0.00     0.278 HD
HETATM    4  H   UNL     1     -42.904  54.367 -52.622  1.00  0.00     0.278 HD
BRANCH   2   5
HETATM    5  C   UNL     1     -42.051  54.625 -50.751  1.00  0.00     0.272 C 
BRANCH   5   6
HETATM    6  C   UNL     1     -42.055  56.116 -50.920  1.00  0.00    -0.033 A 
HETATM    7  C   UNL     1     -40.970  56.884 -50.467  1.00  0.00     0.011 A 
HETATM    8  C   UNL     1     -40.979  58.277 -50.598  1.00  0.00     0.037 A 
HETATM    9  C   UNL     1     -42.070  58.920 -51.180  1.00  0.00     0.068 A 
HETATM   10  C   UNL     1     -43.155  58.159 -51.620  1.00  0.00     0.037 A 
HETATM   11  C   UNL     1     -43.153  56.769 -51.493  1.00  0.00     0.011 A 
BRANCH   9  12
HETATM   12  O   UNL     1     -42.205  60.266 -51.369  1.00  0.00    -0.356 OA
HETATM   13  C   UNL     1     -42.619  60.701 -52.659  1.00  0.00     0.210 C 
ENDBRANCH   9  12
ENDBRANCH   5   6
ENDBRANCH   2   5
ENDBRANCH   1   2
BRANCH   1  14
HETATM   14  C   UNL     1     -41.008  54.656 -54.195  1.00  0.00     0.259 C 
HETATM   15  N   UNL     1     -42.293  54.947 -54.587  1.00  0.00    -0.304 N 
HETATM   16  H   UNL     1     -43.111  54.651 -54.068  1.00  0.00     0.171 HD
HETATM   17  O   UNL     1     -39.966  54.930 -54.796  1.00  0.00    -0.270 OA
BRANCH  15  18
HETATM   18  C   UNL     1     -42.544  55.741 -55.673  1.00  0.00     0.172 A 
HETATM   19  S   UNL     1     -42.472  57.414 -55.355  1.00  0.00    -0.062 SA
HETATM   20  C   UNL     1     -42.823  57.718 -57.008  1.00  0.00     0.072 A 
HETATM   21  C   UNL     1     -42.966  56.520 -57.675  1.00  0.00     0.126 A 
HETATM   22  N   UNL     1     -42.799  55.385 -56.903  1.00  0.00    -0.236 NA
ENDBRANCH  15  18
ENDBRANCH   1  14
BRANCH   1  23
HETATM   23  C   UNL     1     -40.393  52.413 -53.034  1.00  0.00    -0.019 A 
HETATM   24  C   UNL     1     -39.818  51.760 -51.929  1.00  0.00     0.010 A 
HETATM   25  C   UNL     1     -39.402  50.432 -52.025  1.00  0.00     0.001 A 
HETATM   26  C   UNL     1     -39.559  49.736 -53.220  1.00  0.00     0.000 A 
HETATM   27  C   UNL     1     -40.134  50.364 -54.322  1.00  0.00     0.001 A 
HETATM   28  C   UNL     1     -40.553  51.692 -54.231  1.00  0.00     0.010 A 
ENDBRANCH   1  23
TORSDOF 7
ENDMDL
MODEL 2
REMARK VINA RESULT:      -7.2      1.598      2.162
REMARK  7 active torsions:
REMARK  status: ('A' for Active; 'I' for Inactive)
REMARK    1  A    between atoms: O_2  and  C_3 
REMARK    2  A    between atoms: C_6  and  C_7 
REMARK    3  A    between atoms: C_7  and  N_8 
REMARK    4  A    between atoms: N_8  and  C_11 
REMARK    5  A    between atoms: C_11  and  C_12 
REMARK    6  A    between atoms: C_11  and  C_20 
REMARK       I    between atoms: C_12  and  N_13 
REMARK    7  A    between atoms: N_13  and  C_14 
ROOT
HETATM    1  C   UNL     1     -42.381  54.772 -53.073  1.00  0.00     0.310 C 
ENDROOT
BRANCH   1   2
HETATM    2  N   UNL     1     -43.383  54.695 -51.937  1.00  0.00    -0.054 N 
HETATM    3  H   UNL     1     -42.924  54.133 -51.203  1.00  0.00     0.278 HD
HETATM    4  H   UNL     1     -44.229  54.191 -52.219  1.00  0.00     0.278 HD
BRANCH   2   5
HETATM    5  C   UNL     1     -43.761  55.979 -51.283  1.00  0.00     0.272 C 
BRANCH   5   6
HETATM    6  C   UNL     1     -42.623  56.956 -51.339  1.00  0.00    -0.033 A 
HETATM    7  C   UNL     1     -42.673  58.054 -52.211  1.00  0.00     0.011 A 
HETATM    8  C   UNL     1     -41.603  58.953 -52.288  1.00  0.00     0.037 A 
HETATM    9  C   UNL     1     -40.471  58.766 -51.497  1.00  0.00     0.068 A 
HETATM   10  C   UNL     1     -40.415  57.666 -50.638  1.00  0.00     0.037 A 
HETATM   11  C   UNL     1     -41.477  56.765 -50.556  1.00  0.00     0.011 A 
BRANCH   9  12
HETATM   12  O   UNL     1     -39.365  59.565 -51.472  1.00  0.00    -0.356 OA
HETATM   13  C   UNL     1     -38.816  59.874 -50.196  1.00  0.00     0.210 C 
ENDBRANCH   9  12
ENDBRANCH   5   6
ENDBRANCH   2   5
ENDBRANCH   1   2
BRANCH   1  14
HETATM   14  C   UNL     1     -43.115  55.043 -54.407  1.00  0.00     0.259 C 
HETATM   15  N   UNL     1     -42.554  56.003 -55.216  1.00  0.00    -0.304 N 
HETATM   16  H   UNL     1     -41.717  56.516 -54.969  1.00  0.00     0.171 HD
HETATM   17  O   UNL     1     -44.158  54.415 -54.608  1.00  0.00    -0.270 OA
BRANCH  15  18
HETATM   18  C   UNL     1     -43.055  56.265 -56.462  1.00  0.00     0.172 A 
HETATM   19  S   UNL     1     -43.846  57.769 -56.602  1.00  0.00    -0.062 SA
HETATM   20  C   UNL     1     -44.137  57.433 -58.261  1.00  0.00     0.072 A 
HETATM   21  C   UNL     1     -43.607  56.200 -58.580  1.00  0.00     0.126 A 
HETATM   22  N   UNL     1     -42.981  55.535 -57.542  1.00  0.00    -0.236 NA
ENDBRANCH  15  18
ENDBRANCH   1  14
BRANCH   1  23
HETATM   23  C   UNL     1     -41.409  53.611 -53.067  1.00  0.00    -0.019 A 
HETATM   24  C   UNL     1     -40.771  53.251 -51.866  1.00  0.00     0.010 A 
HETATM   25  C   UNL     1     -39.898  52.164 -51.823  1.00  0.00     0.001 A 
HETATM   26  C   UNL     1     -39.655  51.417 -52.972  1.00  0.00     0.000 A 
HETATM   27  C   UNL     1     -40.286  51.753 -54.168  1.00  0.00     0.001 A 
HETATM   28  C   UNL     1     -41.160  52.839 -54.217  1.00  0.00     0.010 A 
ENDBRANCH   1  23
TORSDOF 7
ENDMDL
MODEL 3
REMARK VINA RESULT:      -7.1      2.520      3.871
REMARK  7 active torsions:
REMARK  status: ('A' for Active; 'I' for Inactive)
REMARK    1  A    between atoms: O_2  and  C_3 
REMARK    2  A    between atoms: C_6  and  C_7 
REMARK    3  A    between atoms: C_7  and  N_8 
REMARK    4  A    between atoms: N_8  and  C_11 
REMARK    5  A    between atoms: C_11  and  C_12 
REMARK    6  A    between atoms: C_11  and  C_20 
REMARK       I    between atoms: C_12  and  N_13 
REMARK    7  A    between atoms: N_13  and  C_14 
ROOT
HETATM    1  C   UNL     1     -42.755  56.465 -54.531  1.00  0.00     0.310 C 
ENDROOT
BRANCH   1   2
HETATM    2  N   UNL     1     -44.067  56.292 -53.791  1.00  0.00    -0.054 N 
HETATM    3  H   UNL     1     -44.108  55.293 -53.534  1.00  0.00     0.278 HD
HETATM    4  H   UNL     1     -44.868  56.479 -54.401  1.00  0.00     0.278 HD
BRANCH   2   5
HETATM    5  C   UNL     1     -44.225  57.043 -52.514  1.00  0.00     0.272 C 
BRANCH   5   6
HETATM    6  C   UNL     1     -43.264  56.534 -51.480  1.00  0.00    -0.033 A 
HETATM    7  C   UNL     1     -42.142  57.295 -51.119  1.00  0.00     0.011 A 
HETATM    8  C   UNL     1     -41.227  56.814 -50.175  1.00  0.00     0.037 A 
HETATM    9  C   UNL     1     -41.422  55.568 -49.582  1.00  0.00     0.068 A 
HETATM   10  C   UNL     1     -42.532  54.804 -49.949  1.00  0.00     0.037 A 
HETATM   11  C   UNL     1     -43.448  55.277 -50.890  1.00  0.00     0.011 A 
BRANCH   9  12
HETATM   12  O   UNL     1     -40.613  54.984 -48.649  1.00  0.00    -0.356 OA
HETATM   13  C   UNL     1     -40.600  53.562 -48.600  1.00  0.00     0.210 C 
ENDBRANCH   9  12
ENDBRANCH   5   6
ENDBRANCH   2   5
ENDBRANCH   1   2
BRANCH   1  14
HETATM   14  C   UNL     1     -43.006  57.142 -55.900  1.00  0.00     0.259 C 
HETATM   15  N   UNL     1     -43.645  56.371 -56.841  1.00  0.00    -0.304 N 
HETATM   16  H   UNL     1     -43.936  55.415 -56.671  1.00  0.00     0.171 HD
HETATM   17  O   UNL     1     -42.572  58.287 -56.044  1.00  0.00    -0.270 OA
BRANCH  15  18
HETATM   18  C   UNL     1     -44.009  56.886 -58.055  1.00  0.00     0.172 A 
HETATM   19  S   UNL     1     -42.887  56.601 -59.307  1.00  0.00    -0.062 SA
HETATM   20  C   UNL     1     -43.932  57.421 -60.396  1.00  0.00     0.072 A 
HETATM   21  C   UNL     1     -45.057  57.847 -59.721  1.00  0.00     0.126 A 
HETATM   22  N   UNL     1     -45.098  57.531 -58.375  1.00  0.00    -0.236 NA
ENDBRANCH  15  18
ENDBRANCH   1  14
BRANCH   1  23
HETATM   23  C   UNL     1     -41.931  55.195 -54.554  1.00  0.00    -0.019 A 
HETATM   24  C   UNL     1     -40.593  55.248 -54.986  1.00  0.00     0.010 A 
HETATM   25  C   UNL     1     -39.800  54.100 -54.985  1.00  0.00     0.001 A 
HETATM   26  C   UNL     1     -40.326  52.888 -54.547  1.00  0.00     0.000 A 
HETATM   27  C   UNL     1     -41.645  52.819 -54.107  1.00  0.00     0.001 A 
HETATM   28  C   UNL     1     -42.443  53.964 -54.105  1.00  0.00     0.010 A 
ENDBRANCH   1  23
TORSDOF 7
ENDMDL
MODEL 4
REMARK VINA RESULT:      -7.1      2.370      5.592
REMARK  7 active torsions:
REMARK  status: ('A' for Active; 'I' for Inactive)
REMARK    1  A    between atoms: O_2  and  C_3 
REMARK    2  A    between atoms: C_6  and  C_7 
REMARK    3  A    between atoms: C_7  and  N_8 
REMARK    4  A    between atoms: N_8  and  C_11 
REMARK    5  A    between atoms: C_11  and  C_12 
REMARK    6  A    between atoms: C_11  and  C_20 
REMARK       I    between atoms: C_12  and  N_13 
REMARK    7  A    between atoms: N_13  and  C_14 
ROOT
HETATM    1  C   UNL     1     -41.791  54.695 -53.786  1.00  0.00     0.310 C 
ENDROOT
BRANCH   1   2
HETATM    2  N   UNL     1     -41.839  54.741 -55.302  1.00  0.00    -0.054 N 
HETATM    3  H   UNL     1     -41.700  53.767 -55.611  1.00  0.00     0.278 HD
HETATM    4  H   UNL     1     -41.066  55.293 -55.684  1.00  0.00     0.278 HD
BRANCH   2   5
HETATM    5  C   UNL     1     -43.121  55.180 -55.923  1.00  0.00     0.272 C 
BRANCH   5   6
HETATM    6  C   UNL     1     -42.858  55.987 -57.161  1.00  0.00    -0.033 A 
HETATM    7  C   UNL     1     -42.376  57.301 -57.062  1.00  0.00     0.011 A 
HETATM    8  C   UNL     1     -42.155  58.068 -58.212  1.00  0.00     0.037 A 
HETATM    9  C   UNL     1     -42.413  57.532 -59.472  1.00  0.00     0.068 A 
HETATM   10  C   UNL     1     -42.905  56.229 -59.571  1.00  0.00     0.037 A 
HETATM   11  C   UNL     1     -43.128  55.459 -58.429  1.00  0.00     0.011 A 
BRANCH   9  12
HETATM   12  O   UNL     1     -42.239  58.167 -60.668  1.00  0.00    -0.356 OA
HETATM   13  C   UNL     1     -41.995  59.569 -60.630  1.00  0.00     0.210 C 
ENDBRANCH   9  12
ENDBRANCH   5   6
ENDBRANCH   2   5
ENDBRANCH   1   2
BRANCH   1  14
HETATM   14  C   UNL     1     -41.428  56.091 -53.227  1.00  0.00     0.259 C 
HETATM   15  N   UNL     1     -42.115  56.483 -52.102  1.00  0.00    -0.304 N 
HETATM   16  H   UNL     1     -42.822  55.911 -51.657  1.00  0.00     0.171 HD
HETATM   17  O   UNL     1     -40.597  56.746 -53.860  1.00  0.00    -0.270 OA
BRANCH  15  18
HETATM   18  C   UNL     1     -41.816  57.653 -51.458  1.00  0.00     0.172 A 
HETATM   19  S   UNL     1     -42.961  58.895 -51.688  1.00  0.00    -0.062 SA
HETATM   20  C   UNL     1     -42.024  59.912 -50.669  1.00  0.00     0.072 A 
HETATM   21  C   UNL     1     -40.912  59.224 -50.231  1.00  0.00     0.126 A 
HETATM   22  N   UNL     1     -40.800  57.923 -50.684  1.00  0.00    -0.236 NA
ENDBRANCH  15  18
ENDBRANCH   1  14
BRANCH   1  23
HETATM   23  C   UNL     1     -40.971  53.532 -53.269  1.00  0.00    -0.019 A 
HETATM   24  C   UNL     1     -40.504  52.561 -54.173  1.00  0.00     0.010 A 
HETATM   25  C   UNL     1     -39.717  51.498 -53.730  1.00  0.00     0.001 A 
HETATM   26  C   UNL     1     -39.379  51.392 -52.384  1.00  0.00     0.000 A 
HETATM   27  C   UNL     1     -39.825  52.349 -51.476  1.00  0.00     0.001 A 
HETATM   28  C   UNL     1     -40.612  53.415 -51.913  1.00  0.00     0.010 A 
ENDBRANCH   1  23
TORSDOF 7
ENDMDL
MODEL 5
REMARK VINA RESULT:      -6.9      2.436      6.129
REMARK  7 active torsions:
REMARK  status: ('A' for Active; 'I' for Inactive)
REMARK    1  A    between atoms: O_2  and  C_3 
REMARK    2  A    between atoms: C_6  and  C_7 
REMARK    3  A    between atoms: C_7  and  N_8 
REMARK    4  A    between atoms: N_8  and  C_11 
REMARK    5  A    between atoms: C_11  and  C_12 
REMARK    6  A    between atoms: C_11  and  C_20 
REMARK       I    between atoms: C_12  and  N_13 
REMARK    7  A    between atoms: N_13  and  C_14 
ROOT
HETATM    1  C   UNL     1     -42.300  56.678 -54.819  1.00  0.00     0.310 C 
ENDROOT
BRANCH   1   2
HETATM    2  N   UNL     1     -41.335  55.592 -55.255  1.00  0.00    -0.054 N 
HETATM    3  H   UNL     1     -40.563  55.619 -54.570  1.00  0.00     0.278 HD
HETATM    4  H   UNL     1     -40.932  55.796 -56.173  1.00  0.00     0.278 HD
BRANCH   2   5
HETATM    5  C   UNL     1     -41.842  54.190 -55.232  1.00  0.00     0.272 C 
BRANCH   5   6
HETATM    6  C   UNL     1     -41.142  53.393 -54.171  1.00  0.00    -0.033 A 
HETATM    7  C   UNL     1     -41.204  53.792 -52.826  1.00  0.00     0.011 A 
HETATM    8  C   UNL     1     -40.532  53.068 -51.835  1.00  0.00     0.037 A 
HETATM    9  C   UNL     1     -39.788  51.939 -52.175  1.00  0.00     0.068 A 
HETATM   10  C   UNL     1     -39.715  51.548 -53.513  1.00  0.00     0.037 A 
HETATM   11  C   UNL     1     -40.383  52.265 -54.507  1.00  0.00     0.011 A 
BRANCH   9  12
HETATM   12  O   UNL     1     -39.090  51.144 -51.311  1.00  0.00    -0.356 OA
HETATM   13  C   UNL     1     -39.537  49.802 -51.158  1.00  0.00     0.210 C 
ENDBRANCH   9  12
ENDBRANCH   5   6
ENDBRANCH   2   5
ENDBRANCH   1   2
BRANCH   1  14
HETATM   14  C   UNL     1     -42.653  57.584 -56.023  1.00  0.00     0.259 C 
HETATM   15  N   UNL     1     -42.121  57.206 -57.233  1.00  0.00    -0.304 N 
HETATM   16  H   UNL     1     -41.529  56.393 -57.349  1.00  0.00     0.171 HD
HETATM   17  O   UNL     1     -43.334  58.585 -55.787  1.00  0.00    -0.270 OA
BRANCH  15  18
HETATM   18  C   UNL     1     -42.437  57.870 -58.387  1.00  0.00     0.172 A 
HETATM   19  S   UNL     1     -43.749  57.202 -59.247  1.00  0.00    -0.062 SA
HETATM   20  C   UNL     1     -43.584  58.449 -60.417  1.00  0.00     0.072 A 
HETATM   21  C   UNL     1     -42.543  59.279 -60.060  1.00  0.00     0.126 A 
HETATM   22  N   UNL     1     -41.889  58.944 -58.888  1.00  0.00    -0.236 NA
ENDBRANCH  15  18
ENDBRANCH   1  14
BRANCH   1  23
HETATM   23  C   UNL     1     -41.845  57.385 -53.559  1.00  0.00    -0.019 A 
HETATM   24  C   UNL     1     -42.520  57.140 -52.350  1.00  0.00     0.010 A 
HETATM   25  C   UNL     1     -42.102  57.751 -51.167  1.00  0.00     0.001 A 
HETATM   26  C   UNL     1     -41.003  58.605 -51.172  1.00  0.00     0.000 A 
HETATM   27  C   UNL     1     -40.318  58.851 -52.359  1.00  0.00     0.001 A 
HETATM   28  C   UNL     1     -40.731  58.243 -53.545  1.00  0.00     0.010 A 
ENDBRANCH   1  23
TORSDOF 7
ENDMDL
MODEL 6
REMARK VINA RESULT:      -6.8      2.700      5.235
REMARK  7 active torsions:
REMARK  status: ('A' for Active; 'I' for Inactive)
REMARK    1  A    between atoms: O_2  and  C_3 
REMARK    2  A    between atoms: C_6  and  C_7 
REMARK    3  A    between atoms: C_7  and  N_8 
REMARK    4  A    between atoms: N_8  and  C_11 
REMARK    5  A    between atoms: C_11  and  C_12 
REMARK    6  A    between atoms: C_11  and  C_20 
REMARK       I    between atoms: C_12  and  N_13 
REMARK    7  A    between atoms: N_13  and  C_14 
ROOT
HETATM    1  C   UNL     1     -42.764  56.395 -54.673  1.00  0.00     0.310 C 
ENDROOT
BRANCH   1   2
HETATM    2  N   UNL     1     -41.882  55.185 -54.922  1.00  0.00    -0.054 N 
HETATM    3  H   UNL     1     -40.951  55.444 -54.560  1.00  0.00     0.278 HD
HETATM    4  H   UNL     1     -41.777  54.999 -55.923  1.00  0.00     0.278 HD
BRANCH   2   5
HETATM    5  C   UNL     1     -42.251  53.926 -54.215  1.00  0.00     0.272 C 
BRANCH   5   6
HETATM    6  C   UNL     1     -42.014  54.059 -52.739  1.00  0.00    -0.033 A 
HETATM    7  C   UNL     1     -40.707  54.045 -52.227  1.00  0.00     0.011 A 
HETATM    8  C   UNL     1     -40.480  54.142 -50.850  1.00  0.00     0.037 A 
HETATM    9  C   UNL     1     -41.554  54.252 -49.968  1.00  0.00     0.068 A 
HETATM   10  C   UNL     1     -42.854  54.254 -50.475  1.00  0.00     0.037 A 
HETATM   11  C   UNL     1     -43.089  54.158 -51.848  1.00  0.00     0.011 A 
BRANCH   9  12
HETATM   12  O   UNL     1     -41.472  54.357 -48.609  1.00  0.00    -0.356 OA
HETATM   13  C   UNL     1     -40.241  53.982 -48.002  1.00  0.00     0.210 C 
ENDBRANCH   9  12
ENDBRANCH   5   6
ENDBRANCH   2   5
ENDBRANCH   1   2
BRANCH   1  14
HETATM   14  C   UNL     1     -43.198  57.017 -56.021  1.00  0.00     0.259 C 
HETATM   15  N   UNL     1     -42.488  56.609 -57.125  1.00  0.00    -0.304 N 
HETATM   16  H   UNL     1     -41.722  55.949 -57.080  1.00  0.00     0.171 HD
HETATM   17  O   UNL     1     -44.104  57.853 -55.984  1.00  0.00    -0.270 OA
BRANCH  15  18
HETATM   18  C   UNL     1     -42.838  57.013 -58.385  1.00  0.00     0.172 A 
HETATM   19  S   UNL     1     -42.028  58.412 -58.927  1.00  0.00    -0.062 SA
HETATM   20  C   UNL     1     -42.871  58.292 -60.418  1.00  0.00     0.072 A 
HETATM   21  C   UNL     1     -43.704  57.194 -60.388  1.00  0.00     0.126 A 
HETATM   22  N   UNL     1     -43.677  56.458 -59.218  1.00  0.00    -0.236 NA
ENDBRANCH  15  18
ENDBRANCH   1  14
BRANCH   1  23
HETATM   23  C   UNL     1     -42.166  57.347 -53.658  1.00  0.00    -0.019 A 
HETATM   24  C   UNL     1     -42.938  57.751 -52.554  1.00  0.00     0.010 A 
HETATM   25  C   UNL     1     -42.403  58.599 -51.585  1.00  0.00     0.001 A 
HETATM   26  C   UNL     1     -41.091  59.050 -51.699  1.00  0.00     0.000 A 
HETATM   27  C   UNL     1     -40.309  58.652 -52.781  1.00  0.00     0.001 A 
HETATM   28  C   UNL     1     -40.839  57.803 -53.753  1.00  0.00     0.010 A 
ENDBRANCH   1  23
TORSDOF 7
ENDMDL
MODEL 7
REMARK VINA RESULT:      -6.7      2.594      5.580
REMARK  7 active torsions:
REMARK  status: ('A' for Active; 'I' for Inactive)
REMARK    1  A    between atoms: O_2  and  C_3 
REMARK    2  A    between atoms: C_6  and  C_7 
REMARK    3  A    between atoms: C_7  and  N_8 
REMARK    4  A    between atoms: N_8  and  C_11 
REMARK    5  A    between atoms: C_11  and  C_12 
REMARK    6  A    between atoms: C_11  and  C_20 
REMARK       I    between atoms: C_12  and  N_13 
REMARK    7  A    between atoms: N_13  and  C_14 
ROOT
HETATM    1  C   UNL     1     -42.397  55.790 -53.160  1.00  0.00     0.310 C 
ENDROOT
BRANCH   1   2
HETATM    2  N   UNL     1     -43.893  55.991 -53.010  1.00  0.00    -0.054 N 
HETATM    3  H   UNL     1     -44.050  56.149 -52.003  1.00  0.00     0.278 HD
HETATM    4  H   UNL     1     -44.412  55.147 -53.268  1.00  0.00     0.278 HD
BRANCH   2   5
HETATM    5  C   UNL     1     -44.487  57.172 -53.699  1.00  0.00     0.272 C 
BRANCH   5   6
HETATM    6  C   UNL     1     -44.577  58.340 -52.761  1.00  0.00    -0.033 A 
HETATM    7  C   UNL     1     -44.058  59.590 -53.132  1.00  0.00     0.011 A 
HETATM    8  C   UNL     1     -44.114  60.676 -52.252  1.00  0.00     0.037 A 
HETATM    9  C   UNL     1     -44.688  60.527 -50.990  1.00  0.00     0.068 A 
HETATM   10  C   UNL     1     -45.194  59.281 -50.615  1.00  0.00     0.037 A 
HETATM   11  C   UNL     1     -45.141  58.193 -51.487  1.00  0.00     0.011 A 
BRANCH   9  12
HETATM   12  O   UNL     1     -44.809  61.501 -50.041  1.00  0.00    -0.356 OA
HETATM   13  C   UNL     1     -46.128  61.912 -49.698  1.00  0.00     0.210 C 
ENDBRANCH   9  12
ENDBRANCH   5   6
ENDBRANCH   2   5
ENDBRANCH   1   2
BRANCH   1  14
HETATM   14  C   UNL     1     -42.014  54.351 -52.742  1.00  0.00     0.259 C 
HETATM   15  N   UNL     1     -40.827  53.876 -53.249  1.00  0.00    -0.304 N 
HETATM   16  H   UNL     1     -40.231  54.416 -53.864  1.00  0.00     0.171 HD
HETATM   17  O   UNL     1     -42.821  53.741 -52.037  1.00  0.00    -0.270 OA
BRANCH  15  18
HETATM   18  C   UNL     1     -40.332  52.656 -52.877  1.00  0.00     0.172 A 
HETATM   19  S   UNL     1     -40.263  51.509 -54.137  1.00  0.00    -0.062 SA
HETATM   20  C   UNL     1     -39.587  50.378 -53.036  1.00  0.00     0.072 A 
HETATM   21  C   UNL     1     -39.464  50.963 -51.793  1.00  0.00     0.126 A 
HETATM   22  N   UNL     1     -39.890  52.275 -51.709  1.00  0.00    -0.236 NA
ENDBRANCH  15  18
ENDBRANCH   1  14
BRANCH   1  23
HETATM   23  C   UNL     1     -41.597  56.908 -52.524  1.00  0.00    -0.019 A 
HETATM   24  C   UNL     1     -40.846  57.771 -53.343  1.00  0.00     0.010 A 
HETATM   25  C   UNL     1     -40.127  58.829 -52.788  1.00  0.00     0.001 A 
HETATM   26  C   UNL     1     -40.153  59.047 -51.414  1.00  0.00     0.000 A 
HETATM   27  C   UNL     1     -40.898  58.209 -50.589  1.00  0.00     0.001 A 
HETATM   28  C   UNL     1     -41.620  57.148 -51.138  1.00  0.00     0.010 A 
ENDBRANCH   1  23
TORSDOF 7
ENDMDL
MODEL 8
REMARK VINA RESULT:      -6.7      2.409      6.669
REMARK  7 active torsions:
REMARK  status: ('A' for Active; 'I' for Inactive)
REMARK    1  A    between atoms: O_2  and  C_3 
REMARK    2  A    between atoms: C_6  and  C_7 
REMARK    3  A    between atoms: C_7  and  N_8 
REMARK    4  A    between atoms: N_8  and  C_11 
REMARK    5  A    between atoms: C_11  and  C_12 
REMARK    6  A    between atoms: C_11  and  C_20 
REMARK       I    between atoms: C_12  and  N_13 
REMARK    7  A    between atoms: N_13  and  C_14 
ROOT
HETATM    1  C   UNL     1     -41.962  56.497 -55.621  1.00  0.00     0.310 C 
ENDROOT
BRANCH   1   2
HETATM    2  N   UNL     1     -42.021  55.034 -55.227  1.00  0.00    -0.054 N 
HETATM    3  H   UNL     1     -42.659  54.592 -55.907  1.00  0.00     0.278 HD
HETATM    4  H   UNL     1     -42.437  54.913 -54.299  1.00  0.00     0.278 HD
BRANCH   2   5
HETATM    5  C   UNL     1     -40.749  54.261 -55.308  1.00  0.00     0.272 C 
BRANCH   5   6
HETATM    6  C   UNL     1     -40.536  53.463 -54.055  1.00  0.00    -0.033 A 
HETATM    7  C   UNL     1     -40.860  54.007 -52.803  1.00  0.00     0.011 A 
HETATM    8  C   UNL     1     -40.638  53.278 -51.629  1.00  0.00     0.037 A 
HETATM    9  C   UNL     1     -40.089  51.999 -51.691  1.00  0.00     0.068 A 
HETATM   10  C   UNL     1     -39.755  51.461 -52.936  1.00  0.00     0.037 A 
HETATM   11  C   UNL     1     -39.973  52.182 -54.111  1.00  0.00     0.011 A 
BRANCH   9  12
HETATM   12  O   UNL     1     -39.825  51.183 -50.629  1.00  0.00    -0.356 OA
HETATM   13  C   UNL     1     -39.562  49.813 -50.912  1.00  0.00     0.210 C 
ENDBRANCH   9  12
ENDBRANCH   5   6
ENDBRANCH   2   5
ENDBRANCH   1   2
BRANCH   1  14
HETATM   14  C   UNL     1     -42.509  57.376 -54.471  1.00  0.00     0.259 C 
HETATM   15  N   UNL     1     -43.848  57.234 -54.195  1.00  0.00    -0.304 N 
HETATM   16  H   UNL     1     -44.456  56.605 -54.704  1.00  0.00     0.171 HD
HETATM   17  O   UNL     1     -41.717  58.157 -53.939  1.00  0.00    -0.270 OA
BRANCH  15  18
HETATM   18  C   UNL     1     -44.430  57.884 -53.141  1.00  0.00     0.172 A 
HETATM   19  S   UNL     1     -45.089  59.408 -53.528  1.00  0.00    -0.062 SA
HETATM   20  C   UNL     1     -45.605  59.572 -51.899  1.00  0.00     0.072 A 
HETATM   21  C   UNL     1     -45.237  58.451 -51.185  1.00  0.00     0.126 A 
HETATM   22  N   UNL     1     -44.566  57.480 -51.906  1.00  0.00    -0.236 NA
ENDBRANCH  15  18
ENDBRANCH   1  14
BRANCH   1  23
HETATM   23  C   UNL     1     -42.547  56.751 -56.995  1.00  0.00    -0.019 A 
HETATM   24  C   UNL     1     -43.134  55.686 -57.701  1.00  0.00     0.010 A 
HETATM   25  C   UNL     1     -43.712  55.896 -58.953  1.00  0.00     0.001 A 
HETATM   26  C   UNL     1     -43.719  57.170 -59.514  1.00  0.00     0.000 A 
HETATM   27  C   UNL     1     -43.149  58.238 -58.824  1.00  0.00     0.001 A 
HETATM   28  C   UNL     1     -42.571  58.034 -57.571  1.00  0.00     0.010 A 
ENDBRANCH   1  23
TORSDOF 7
ENDMDL
MODEL 9
REMARK VINA RESULT:      -6.7     15.232     17.379
REMARK  7 active torsions:
REMARK  status: ('A' for Active; 'I' for Inactive)
REMARK    1  A    between atoms: O_2  and  C_3 
REMARK    2  A    between atoms: C_6  and  C_7 
REMARK    3  A    between atoms: C_7  and  N_8 
REMARK    4  A    between atoms: N_8  and  C_11 
REMARK    5  A    between atoms: C_11  and  C_12 
REMARK    6  A    between atoms: C_11  and  C_20 
REMARK       I    between atoms: C_12  and  N_13 
REMARK    7  A    between atoms: N_13  and  C_14 
ROOT
HETATM    1  C   UNL     1     -35.883  41.194 -54.159  1.00  0.00     0.310 C 
ENDROOT
BRANCH   1   2
HETATM    2  N   UNL     1     -37.145  41.192 -54.999  1.00  0.00    -0.054 N 
HETATM    3  H   UNL     1     -37.912  41.414 -54.345  1.00  0.00     0.278 HD
HETATM    4  H   UNL     1     -37.337  40.263 -55.385  1.00  0.00     0.278 HD
BRANCH   2   5
HETATM    5  C   UNL     1     -37.235  42.211 -56.084  1.00  0.00     0.272 C 
BRANCH   5   6
HETATM    6  C   UNL     1     -37.419  41.547 -57.417  1.00  0.00    -0.033 A 
HETATM    7  C   UNL     1     -37.989  40.267 -57.501  1.00  0.00     0.011 A 
HETATM    8  C   UNL     1     -38.138  39.632 -58.739  1.00  0.00     0.037 A 
HETATM    9  C   UNL     1     -37.720  40.266 -59.907  1.00  0.00     0.068 A 
HETATM   10  C   UNL     1     -37.141  41.534 -59.824  1.00  0.00     0.037 A 
HETATM   11  C   UNL     1     -36.988  42.174 -58.593  1.00  0.00     0.011 A 
BRANCH   9  12
HETATM   12  O   UNL     1     -37.809  39.763 -61.173  1.00  0.00    -0.356 OA
HETATM   13  C   UNL     1     -38.373  38.464 -61.317  1.00  0.00     0.210 C 
ENDBRANCH   9  12
ENDBRANCH   5   6
ENDBRANCH   2   5
ENDBRANCH   1   2
BRANCH   1  14
HETATM   14  C   UNL     1     -34.761  40.418 -54.890  1.00  0.00     0.259 C 
HETATM   15  N   UNL     1     -33.488  40.909 -54.725  1.00  0.00    -0.304 N 
HETATM   16  H   UNL     1     -33.277  41.729 -54.170  1.00  0.00     0.171 HD
HETATM   17  O   UNL     1     -35.108  39.464 -55.590  1.00  0.00    -0.270 OA
BRANCH  15  18
HETATM   18  C   UNL     1     -32.402  40.256 -55.241  1.00  0.00     0.172 A 
HETATM   19  S   UNL     1     -31.741  39.067 -54.214  1.00  0.00    -0.062 SA
HETATM   20  C   UNL     1     -30.573  38.709 -55.421  1.00  0.00     0.072 A 
HETATM   21  C   UNL     1     -30.779  39.522 -56.515  1.00  0.00     0.126 A 
HETATM   22  N   UNL     1     -31.836  40.407 -56.408  1.00  0.00    -0.236 NA
ENDBRANCH  15  18
ENDBRANCH   1  14
BRANCH   1  23
HETATM   23  C   UNL     1     -36.144  40.797 -52.721  1.00  0.00    -0.019 A 
HETATM   24  C   UNL     1     -37.298  40.056 -52.410  1.00  0.00     0.010 A 
HETATM   25  C   UNL     1     -37.548  39.647 -51.099  1.00  0.00     0.001 A 
HETATM   26  C   UNL     1     -36.648  39.964 -50.085  1.00  0.00     0.000 A 
HETATM   27  C   UNL     1     -35.496  40.689 -50.378  1.00  0.00     0.001 A 
HETATM   28  C   UNL     1     -35.241  41.101 -51.686  1.00  0.00     0.010 A 
ENDBRANCH   1  23
TORSDOF 7
ENDMDL
MODEL 10
REMARK VINA RESULT:      -6.6     14.973     17.195
REMARK  7 active torsions:
REMARK  status: ('A' for Active; 'I' for Inactive)
REMARK    1  A    between atoms: O_2  and  C_3 
REMARK    2  A    between atoms: C_6  and  C_7 
REMARK    3  A    between atoms: C_7  and  N_8 
REMARK    4  A    between atoms: N_8  and  C_11 
REMARK    5  A    between atoms: C_11  and  C_12 
REMARK    6  A    between atoms: C_11  and  C_20 
REMARK       I    between atoms: C_12  and  N_13 
REMARK    7  A    between atoms: N_13  and  C_14 
ROOT
HETATM    1  C   UNL     1     -34.828  40.794 -52.128  1.00  0.00     0.310 C 
ENDROOT
BRANCH   1   2
HETATM    2  N   UNL     1     -36.037  41.471 -52.745  1.00  0.00    -0.054 N 
HETATM    3  H   UNL     1     -36.582  41.839 -51.950  1.00  0.00     0.278 HD
HETATM    4  H   UNL     1     -36.634  40.798 -53.234  1.00  0.00     0.278 HD
BRANCH   2   5
HETATM    5  C   UNL     1     -35.776  42.642 -53.629  1.00  0.00     0.272 C 
BRANCH   5   6
HETATM    6  C   UNL     1     -35.994  42.276 -55.068  1.00  0.00    -0.033 A 
HETATM    7  C   UNL     1     -34.910  42.215 -55.957  1.00  0.00     0.011 A 
HETATM    8  C   UNL     1     -35.110  41.901 -57.306  1.00  0.00     0.037 A 
HETATM    9  C   UNL     1     -36.394  41.646 -57.783  1.00  0.00     0.068 A 
HETATM   10  C   UNL     1     -37.475  41.719 -56.903  1.00  0.00     0.037 A 
HETATM   11  C   UNL     1     -37.284  42.032 -55.557  1.00  0.00     0.011 A 
BRANCH   9  12
HETATM   12  O   UNL     1     -36.727  41.326 -59.069  1.00  0.00    -0.356 OA
HETATM   13  C   UNL     1     -37.280  42.362 -59.872  1.00  0.00     0.210 C 
ENDBRANCH   9  12
ENDBRANCH   5   6
ENDBRANCH   2   5
ENDBRANCH   1   2
BRANCH   1  14
HETATM   14  C   UNL     1     -34.036  40.034 -53.219  1.00  0.00     0.259 C 
HETATM   15  N   UNL     1     -32.765  40.496 -53.468  1.00  0.00    -0.304 N 
HETATM   16  H   UNL     1     -32.357  41.286 -52.984  1.00  0.00     0.171 HD
HETATM   17  O   UNL     1     -34.624  39.118 -53.799  1.00  0.00    -0.270 OA
BRANCH  15  18
HETATM   18  C   UNL     1     -31.931  39.849 -54.339  1.00  0.00     0.172 A 
HETATM   19  S   UNL     1     -31.392  38.325 -53.799  1.00  0.00    -0.062 SA
HETATM   20  C   UNL     1     -30.521  38.141 -55.267  1.00  0.00     0.072 A 
HETATM   21  C   UNL     1     -30.710  39.256 -56.057  1.00  0.00     0.126 A 
HETATM   22  N   UNL     1     -31.527  40.233 -55.520  1.00  0.00    -0.236 NA
ENDBRANCH  15  18
ENDBRANCH   1  14
BRANCH   1  23
HETATM   23  C   UNL     1     -35.178  40.007 -50.883  1.00  0.00    -0.019 A 
HETATM   24  C   UNL     1     -34.173  39.277 -50.224  1.00  0.00     0.010 A 
HETATM   25  C   UNL     1     -34.458  38.570 -49.055  1.00  0.00     0.001 A 
HETATM   26  C   UNL     1     -35.745  38.587 -48.525  1.00  0.00     0.000 A 
HETATM   27  C   UNL     1     -36.750  39.312 -49.160  1.00  0.00     0.001 A 
HETATM   28  C   UNL     1     -36.471  40.021 -50.329  1.00  0.00     0.010 A 
ENDBRANCH   1  23
TORSDOF 7
ENDMDL
