MODEL 1
REMARK VINA RESULT:      -8.5      0.000      0.000
REMARK  4 active torsions:
REMARK  status: ('A' for Active; 'I' for Inactive)
REMARK    1  A    between atoms: C_9  and  C_10 
REMARK    2  A    between atoms: C_20  and  C_21 
REMARK       I    between atoms: C_21  and  N_22 
REMARK    3  A    between atoms: N_22  and  C_23 
REMARK    4  A    between atoms: C_26  and  O_27 
ROOT
HETATM    1  C   UNL     1     -40.257  52.115 -53.798  1.00  0.00     0.070 C 
HETATM    2  C   UNL     1     -40.531  53.035 -52.634  1.00  0.00     0.037 A 
HETATM    3  N   UNL     1     -40.403  52.461 -51.376  1.00  0.00    -0.192 N 
HETATM    4  C   UNL     1     -40.536  53.150 -50.228  1.00  0.00     0.725 A 
HETATM    5  N   UNL     1     -40.794  54.495 -50.273  1.00  0.00    -0.084 N 
HETATM    6  N   UNL     1     -40.794  55.025 -49.030  1.00  0.00    -0.149 NA
HETATM    7  C   UNL     1     -40.610  53.929 -48.288  1.00  0.00     0.275 A 
HETATM    8  N   UNL     1     -40.436  52.761 -48.983  1.00  0.00    -0.054 NA
HETATM    9  C   UNL     1     -40.918  55.268 -51.515  1.00  0.00     0.203 A 
HETATM   10  C   UNL     1     -40.834  54.352 -52.743  1.00  0.00     0.062 A 
HETATM   11  H   UNL     1     -40.150  51.478 -51.323  1.00  0.00     0.184 HD
ENDROOT
BRANCH  10  12
HETATM   12  C   UNL     1     -41.062  55.044 -54.042  1.00  0.00     0.256 C 
HETATM   13  N   UNL     1     -42.385  54.995 -54.434  1.00  0.00    -0.323 N 
HETATM   14  H   UNL     1     -43.007  54.415 -53.889  1.00  0.00     0.169 HD
HETATM   15  O   UNL     1     -40.133  55.613 -54.594  1.00  0.00    -0.267 OA
BRANCH  13  16
HETATM   16  C   UNL     1     -42.998  55.709 -55.481  1.00  0.00     0.035 A 
HETATM   17  C   UNL     1     -42.860  55.386 -56.828  1.00  0.00     0.032 A 
HETATM   18  C   UNL     1     -43.452  56.193 -57.807  1.00  0.00     0.039 A 
HETATM   19  C   UNL     1     -44.201  57.319 -57.455  1.00  0.00     0.068 A 
HETATM   20  C   UNL     1     -44.355  57.633 -56.107  1.00  0.00     0.039 A 
HETATM   21  C   UNL     1     -43.749  56.837 -55.128  1.00  0.00     0.032 A 
BRANCH  19  22
HETATM   22  O   UNL     1     -44.715  58.022 -58.508  1.00  0.00    -0.356 OA
HETATM   23  C   UNL     1     -44.736  57.366 -59.770  1.00  0.00     0.210 C 
ENDBRANCH  19  22
ENDBRANCH  13  16
ENDBRANCH  10  12
BRANCH   9  24
HETATM   24  C   UNL     1     -42.162  56.166 -51.460  1.00  0.00    -0.017 A 
HETATM   25  C   UNL     1     -42.126  57.528 -51.907  1.00  0.00    -0.017 A 
HETATM   26  C   UNL     1     -43.332  58.277 -51.904  1.00  0.00    -0.025 A 
HETATM   27  C   UNL     1     -40.959  58.204 -52.347  1.00  0.00     0.013 A 
HETATM   28  C   UNL     1     -43.344  59.610 -52.351  1.00  0.00     0.012 A 
HETATM   29  C   UNL     1     -44.520  57.694 -51.445  1.00  0.00     0.012 A 
HETATM   30  C   UNL     1     -42.179  60.234 -52.788  1.00  0.00     0.001 A 
HETATM   31  C   UNL     1     -40.984  59.532 -52.780  1.00  0.00     0.001 A 
HETATM   32  C   UNL     1     -44.539  56.391 -50.963  1.00  0.00     0.002 A 
HETATM   33  C   UNL     1     -43.370  55.638 -50.956  1.00  0.00     0.010 A 
ENDBRANCH   9  24
TORSDOF 4
ENDMDL
MODEL 2
REMARK VINA RESULT:      -8.1      2.595      6.130
REMARK  4 active torsions:
REMARK  status: ('A' for Active; 'I' for Inactive)
REMARK    1  A    between atoms: C_9  and  C_10 
REMARK    2  A    between atoms: C_20  and  C_21 
REMARK       I    between atoms: C_21  and  N_22 
REMARK    3  A    between atoms: N_22  and  C_23 
REMARK    4  A    between atoms: C_26  and  O_27 
ROOT
HETATM    1  C   UNL     1     -42.689  56.077 -57.772  1.00  0.00     0.070 C 
HETATM    2  C   UNL     1     -43.230  56.691 -56.504  1.00  0.00     0.037 A 
HETATM    3  N   UNL     1     -43.679  58.000 -56.620  1.00  0.00    -0.192 N 
HETATM    4  C   UNL     1     -44.260  58.677 -55.613  1.00  0.00     0.725 A 
HETATM    5  N   UNL     1     -44.447  58.062 -54.402  1.00  0.00    -0.084 N 
HETATM    6  N   UNL     1     -45.130  58.863 -53.557  1.00  0.00    -0.149 NA
HETATM    7  C   UNL     1     -45.248  59.970 -54.298  1.00  0.00     0.275 A 
HETATM    8  N   UNL     1     -44.739  59.894 -55.567  1.00  0.00    -0.054 NA
HETATM    9  C   UNL     1     -44.070  56.671 -54.120  1.00  0.00     0.203 A 
HETATM   10  C   UNL     1     -43.343  56.045 -55.318  1.00  0.00     0.062 A 
HETATM   11  H   UNL     1     -43.606  58.452 -57.527  1.00  0.00     0.184 HD
ENDROOT
BRANCH  10  12
HETATM   12  C   UNL     1     -42.828  54.669 -55.073  1.00  0.00     0.256 C 
HETATM   13  N   UNL     1     -41.604  54.676 -54.433  1.00  0.00    -0.323 N 
HETATM   14  H   UNL     1     -41.148  55.571 -54.318  1.00  0.00     0.169 HD
HETATM   15  O   UNL     1     -43.510  53.705 -55.383  1.00  0.00    -0.267 OA
BRANCH  13  16
HETATM   16  C   UNL     1     -40.926  53.582 -53.863  1.00  0.00     0.035 A 
HETATM   17  C   UNL     1     -40.447  52.498 -54.592  1.00  0.00     0.032 A 
HETATM   18  C   UNL     1     -39.843  51.421 -53.932  1.00  0.00     0.039 A 
HETATM   19  C   UNL     1     -39.696  51.420 -52.542  1.00  0.00     0.068 A 
HETATM   20  C   UNL     1     -40.158  52.512 -51.813  1.00  0.00     0.039 A 
HETATM   21  C   UNL     1     -40.778  53.582 -52.470  1.00  0.00     0.032 A 
BRANCH  19  22
HETATM   22  O   UNL     1     -39.097  50.304 -52.026  1.00  0.00    -0.356 OA
HETATM   23  C   UNL     1     -39.593  49.824 -50.782  1.00  0.00     0.210 C 
ENDBRANCH  19  22
ENDBRANCH  13  16
ENDBRANCH  10  12
BRANCH   9  24
HETATM   24  C   UNL     1     -43.315  56.585 -52.786  1.00  0.00    -0.017 A 
HETATM   25  C   UNL     1     -42.153  57.384 -52.527  1.00  0.00    -0.017 A 
HETATM   26  C   UNL     1     -41.552  57.315 -51.243  1.00  0.00    -0.025 A 
HETATM   27  C   UNL     1     -41.536  58.244 -53.473  1.00  0.00     0.013 A 
HETATM   28  C   UNL     1     -40.422  58.096 -50.943  1.00  0.00     0.012 A 
HETATM   29  C   UNL     1     -42.077  56.459 -50.267  1.00  0.00     0.012 A 
HETATM   30  C   UNL     1     -39.853  58.937 -51.894  1.00  0.00     0.001 A 
HETATM   31  C   UNL     1     -40.407  59.006 -53.162  1.00  0.00     0.001 A 
HETATM   32  C   UNL     1     -43.171  55.646 -50.540  1.00  0.00     0.002 A 
HETATM   33  C   UNL     1     -43.776  55.697 -51.791  1.00  0.00     0.010 A 
ENDBRANCH   9  24
TORSDOF 4
ENDMDL
MODEL 3
REMARK VINA RESULT:      -8.0      3.259      8.253
REMARK  4 active torsions:
REMARK  status: ('A' for Active; 'I' for Inactive)
REMARK    1  A    between atoms: C_9  and  C_10 
REMARK    2  A    between atoms: C_20  and  C_21 
REMARK       I    between atoms: C_21  and  N_22 
REMARK    3  A    between atoms: N_22  and  C_23 
REMARK    4  A    between atoms: C_26  and  O_27 
ROOT
HETATM    1  C   UNL     1     -42.093  59.647 -54.605  1.00  0.00     0.070 C 
HETATM    2  C   UNL     1     -42.159  59.372 -56.087  1.00  0.00     0.037 A 
HETATM    3  N   UNL     1     -42.038  60.485 -56.907  1.00  0.00    -0.192 N 
HETATM    4  C   UNL     1     -41.999  60.418 -58.250  1.00  0.00     0.725 A 
HETATM    5  N   UNL     1     -42.062  59.197 -58.869  1.00  0.00    -0.084 N 
HETATM    6  N   UNL     1     -41.909  59.326 -60.205  1.00  0.00    -0.149 NA
HETATM    7  C   UNL     1     -41.840  60.656 -60.323  1.00  0.00     0.275 A 
HETATM    8  N   UNL     1     -41.880  61.361 -59.149  1.00  0.00    -0.054 NA
HETATM    9  C   UNL     1     -42.150  57.917 -58.154  1.00  0.00     0.203 A 
HETATM   10  C   UNL     1     -42.274  58.140 -56.642  1.00  0.00     0.062 A 
HETATM   11  H   UNL     1     -41.927  61.394 -56.466  1.00  0.00     0.184 HD
ENDROOT
BRANCH  10  12
HETATM   12  C   UNL     1     -42.479  56.893 -55.852  1.00  0.00     0.256 C 
HETATM   13  N   UNL     1     -41.286  56.269 -55.544  1.00  0.00    -0.323 N 
HETATM   14  H   UNL     1     -40.448  56.637 -55.973  1.00  0.00     0.169 HD
HETATM   15  O   UNL     1     -43.607  56.572 -55.512  1.00  0.00    -0.267 OA
BRANCH  13  16
HETATM   16  C   UNL     1     -41.081  55.203 -54.648  1.00  0.00     0.035 A 
HETATM   17  C   UNL     1     -41.361  55.266 -53.286  1.00  0.00     0.032 A 
HETATM   18  C   UNL     1     -41.063  54.177 -52.458  1.00  0.00     0.039 A 
HETATM   19  C   UNL     1     -40.499  53.010 -52.979  1.00  0.00     0.068 A 
HETATM   20  C   UNL     1     -40.235  52.938 -54.344  1.00  0.00     0.039 A 
HETATM   21  C   UNL     1     -40.516  54.032 -55.171  1.00  0.00     0.032 A 
BRANCH  19  22
HETATM   22  O   UNL     1     -40.251  52.029 -52.059  1.00  0.00    -0.356 OA
HETATM   23  C   UNL     1     -40.235  52.419 -50.691  1.00  0.00     0.210 C 
ENDBRANCH  19  22
ENDBRANCH  13  16
ENDBRANCH  10  12
BRANCH   9  24
HETATM   24  C   UNL     1     -43.245  57.037 -58.773  1.00  0.00    -0.017 A 
HETATM   25  C   UNL     1     -44.615  57.457 -58.809  1.00  0.00    -0.017 A 
HETATM   26  C   UNL     1     -45.563  56.631 -59.469  1.00  0.00    -0.025 A 
HETATM   27  C   UNL     1     -45.111  58.648 -58.218  1.00  0.00     0.013 A 
HETATM   28  C   UNL     1     -46.914  57.016 -59.543  1.00  0.00     0.012 A 
HETATM   29  C   UNL     1     -45.159  55.419 -60.043  1.00  0.00     0.012 A 
HETATM   30  C   UNL     1     -47.359  58.199 -58.961  1.00  0.00     0.001 A 
HETATM   31  C   UNL     1     -46.459  59.012 -58.292  1.00  0.00     0.001 A 
HETATM   32  C   UNL     1     -43.840  54.990 -59.958  1.00  0.00     0.002 A 
HETATM   33  C   UNL     1     -42.894  55.782 -59.317  1.00  0.00     0.010 A 
ENDBRANCH   9  24
TORSDOF 4
ENDMDL
MODEL 4
REMARK VINA RESULT:      -7.9      3.270      7.969
REMARK  4 active torsions:
REMARK  status: ('A' for Active; 'I' for Inactive)
REMARK    1  A    between atoms: C_9  and  C_10 
REMARK    2  A    between atoms: C_20  and  C_21 
REMARK       I    between atoms: C_21  and  N_22 
REMARK    3  A    between atoms: N_22  and  C_23 
REMARK    4  A    between atoms: C_26  and  O_27 
ROOT
HETATM    1  C   UNL     1     -41.963  59.520 -53.995  1.00  0.00     0.070 C 
HETATM    2  C   UNL     1     -42.066  59.439 -55.497  1.00  0.00     0.037 A 
HETATM    3  N   UNL     1     -42.011  60.654 -56.167  1.00  0.00    -0.192 N 
HETATM    4  C   UNL     1     -42.012  60.764 -57.508  1.00  0.00     0.725 A 
HETATM    5  N   UNL     1     -42.052  59.633 -58.280  1.00  0.00    -0.084 N 
HETATM    6  N   UNL     1     -41.946  59.941 -59.591  1.00  0.00    -0.149 NA
HETATM    7  C   UNL     1     -41.928  61.277 -59.534  1.00  0.00     0.275 A 
HETATM    8  N   UNL     1     -41.956  61.821 -58.277  1.00  0.00    -0.054 NA
HETATM    9  C   UNL     1     -42.071  58.268 -57.738  1.00  0.00     0.203 A 
HETATM   10  C   UNL     1     -42.156  58.286 -56.206  1.00  0.00     0.062 A 
HETATM   11  H   UNL     1     -41.918  61.501 -55.613  1.00  0.00     0.184 HD
ENDROOT
BRANCH  10  12
HETATM   12  C   UNL     1     -42.291  56.940 -55.582  1.00  0.00     0.256 C 
HETATM   13  N   UNL     1     -41.067  56.328 -55.393  1.00  0.00    -0.323 N 
HETATM   14  H   UNL     1     -40.257  56.780 -55.793  1.00  0.00     0.169 HD
HETATM   15  O   UNL     1     -43.395  56.534 -55.256  1.00  0.00    -0.267 OA
BRANCH  13  16
HETATM   16  C   UNL     1     -40.796  55.163 -54.651  1.00  0.00     0.035 A 
HETATM   17  C   UNL     1     -40.423  53.948 -55.219  1.00  0.00     0.032 A 
HETATM   18  C   UNL     1     -40.237  52.822 -54.408  1.00  0.00     0.039 A 
HETATM   19  C   UNL     1     -40.405  52.898 -53.023  1.00  0.00     0.068 A 
HETATM   20  C   UNL     1     -40.760  54.117 -52.451  1.00  0.00     0.039 A 
HETATM   21  C   UNL     1     -40.963  55.239 -53.263  1.00  0.00     0.032 A 
BRANCH  19  22
HETATM   22  O   UNL     1     -40.201  51.724 -52.352  1.00  0.00    -0.356 OA
HETATM   23  C   UNL     1     -39.591  50.665 -53.080  1.00  0.00     0.210 C 
ENDBRANCH  19  22
ENDBRANCH  13  16
ENDBRANCH  10  12
BRANCH   9  24
HETATM   24  C   UNL     1     -43.154  57.434 -58.437  1.00  0.00    -0.017 A 
HETATM   25  C   UNL     1     -44.542  57.783 -58.354  1.00  0.00    -0.017 A 
HETATM   26  C   UNL     1     -45.482  57.016 -59.091  1.00  0.00    -0.025 A 
HETATM   27  C   UNL     1     -45.063  58.845 -57.570  1.00  0.00     0.013 A 
HETATM   28  C   UNL     1     -46.851  57.337 -59.052  1.00  0.00     0.012 A 
HETATM   29  C   UNL     1     -45.052  55.926 -59.858  1.00  0.00     0.012 A 
HETATM   30  C   UNL     1     -47.321  58.395 -58.281  1.00  0.00     0.001 A 
HETATM   31  C   UNL     1     -46.427  59.146 -57.534  1.00  0.00     0.001 A 
HETATM   32  C   UNL     1     -43.712  55.558 -59.892  1.00  0.00     0.002 A 
HETATM   33  C   UNL     1     -42.774  56.294 -59.178  1.00  0.00     0.010 A 
ENDBRANCH   9  24
TORSDOF 4
ENDMDL
MODEL 5
REMARK VINA RESULT:      -7.8      2.666      6.575
REMARK  4 active torsions:
REMARK  status: ('A' for Active; 'I' for Inactive)
REMARK    1  A    between atoms: C_9  and  C_10 
REMARK    2  A    between atoms: C_20  and  C_21 
REMARK       I    between atoms: C_21  and  N_22 
REMARK    3  A    between atoms: N_22  and  C_23 
REMARK    4  A    between atoms: C_26  and  O_27 
ROOT
HETATM    1  C   UNL     1     -43.129  55.672 -58.084  1.00  0.00     0.070 C 
HETATM    2  C   UNL     1     -43.191  56.753 -57.033  1.00  0.00     0.037 A 
HETATM    3  N   UNL     1     -43.387  58.041 -57.511  1.00  0.00    -0.192 N 
HETATM    4  C   UNL     1     -43.541  59.114 -56.715  1.00  0.00     0.725 A 
HETATM    5  N   UNL     1     -43.527  58.954 -55.354  1.00  0.00    -0.084 N 
HETATM    6  N   UNL     1     -43.796  60.122 -54.730  1.00  0.00    -0.149 NA
HETATM    7  C   UNL     1     -43.880  60.952 -55.775  1.00  0.00     0.275 A 
HETATM    8  N   UNL     1     -43.741  60.373 -57.009  1.00  0.00    -0.054 NA
HETATM    9  C   UNL     1     -43.373  57.659 -54.680  1.00  0.00     0.203 A 
HETATM   10  C   UNL     1     -43.119  56.538 -55.696  1.00  0.00     0.062 A 
HETATM   11  H   UNL     1     -43.462  58.171 -58.517  1.00  0.00     0.184 HD
ENDROOT
BRANCH  10  12
HETATM   12  C   UNL     1     -42.841  55.207 -55.086  1.00  0.00     0.256 C 
HETATM   13  N   UNL     1     -41.488  54.962 -54.963  1.00  0.00    -0.323 N 
HETATM   14  H   UNL     1     -40.857  55.624 -55.394  1.00  0.00     0.169 HD
HETATM   15  O   UNL     1     -43.771  54.509 -54.713  1.00  0.00    -0.267 OA
BRANCH  13  16
HETATM   16  C   UNL     1     -40.865  53.919 -54.252  1.00  0.00     0.035 A 
HETATM   17  C   UNL     1     -40.406  52.743 -54.837  1.00  0.00     0.032 A 
HETATM   18  C   UNL     1     -39.858  51.730 -54.041  1.00  0.00     0.039 A 
HETATM   19  C   UNL     1     -39.748  51.884 -52.657  1.00  0.00     0.068 A 
HETATM   20  C   UNL     1     -40.190  53.067 -52.071  1.00  0.00     0.039 A 
HETATM   21  C   UNL     1     -40.754  54.074 -52.864  1.00  0.00     0.032 A 
BRANCH  19  22
HETATM   22  O   UNL     1     -39.203  50.816 -52.000  1.00  0.00    -0.356 OA
HETATM   23  C   UNL     1     -39.826  50.423 -50.783  1.00  0.00     0.210 C 
ENDBRANCH  19  22
ENDBRANCH  13  16
ENDBRANCH  10  12
BRANCH   9  24
HETATM   24  C   UNL     1     -42.332  57.765 -53.556  1.00  0.00    -0.017 A 
HETATM   25  C   UNL     1     -42.462  57.019 -52.339  1.00  0.00    -0.017 A 
HETATM   26  C   UNL     1     -41.421  57.101 -51.377  1.00  0.00    -0.025 A 
HETATM   27  C   UNL     1     -43.572  56.199 -52.008  1.00  0.00     0.013 A 
HETATM   28  C   UNL     1     -41.501  56.371 -50.177  1.00  0.00     0.012 A 
HETATM   29  C   UNL     1     -40.310  57.920 -51.612  1.00  0.00     0.012 A 
HETATM   30  C   UNL     1     -42.601  55.568 -49.894  1.00  0.00     0.001 A 
HETATM   31  C   UNL     1     -43.641  55.487 -50.807  1.00  0.00     0.001 A 
HETATM   32  C   UNL     1     -40.215  58.684 -52.769  1.00  0.00     0.002 A 
HETATM   33  C   UNL     1     -41.221  58.619 -53.726  1.00  0.00     0.010 A 
ENDBRANCH   9  24
TORSDOF 4
ENDMDL
MODEL 6
REMARK VINA RESULT:      -7.4     15.353     18.469
REMARK  4 active torsions:
REMARK  status: ('A' for Active; 'I' for Inactive)
REMARK    1  A    between atoms: C_9  and  C_10 
REMARK    2  A    between atoms: C_20  and  C_21 
REMARK       I    between atoms: C_21  and  N_22 
REMARK    3  A    between atoms: N_22  and  C_23 
REMARK    4  A    between atoms: C_26  and  O_27 
ROOT
HETATM    1  C   UNL     1     -34.782  41.127 -52.054  1.00  0.00     0.070 C 
HETATM    2  C   UNL     1     -35.944  41.085 -53.014  1.00  0.00     0.037 A 
HETATM    3  N   UNL     1     -37.203  41.104 -52.430  1.00  0.00    -0.192 N 
HETATM    4  C   UNL     1     -38.349  41.148 -53.134  1.00  0.00     0.725 A 
HETATM    5  N   UNL     1     -38.301  41.195 -54.503  1.00  0.00    -0.084 N 
HETATM    6  N   UNL     1     -39.540  41.335 -55.022  1.00  0.00    -0.149 NA
HETATM    7  C   UNL     1     -40.285  41.283 -53.914  1.00  0.00     0.275 A 
HETATM    8  N   UNL     1     -39.595  41.179 -52.736  1.00  0.00    -0.054 NA
HETATM    9  C   UNL     1     -37.055  41.225 -55.281  1.00  0.00     0.203 A 
HETATM   10  C   UNL     1     -35.832  41.082 -54.366  1.00  0.00     0.062 A 
HETATM   11  H   UNL     1     -37.259  41.132 -51.415  1.00  0.00     0.184 HD
ENDROOT
BRANCH  10  12
HETATM   12  C   UNL     1     -34.532  40.992 -55.088  1.00  0.00     0.256 C 
HETATM   13  N   UNL     1     -33.913  39.772 -54.897  1.00  0.00    -0.323 N 
HETATM   14  H   UNL     1     -34.325  39.146 -54.219  1.00  0.00     0.169 HD
HETATM   15  O   UNL     1     -34.168  41.920 -55.792  1.00  0.00    -0.267 OA
BRANCH  13  16
HETATM   16  C   UNL     1     -32.795  39.261 -55.581  1.00  0.00     0.035 A 
HETATM   17  C   UNL     1     -31.481  39.408 -55.145  1.00  0.00     0.032 A 
HETATM   18  C   UNL     1     -30.425  38.922 -55.925  1.00  0.00     0.039 A 
HETATM   19  C   UNL     1     -30.666  38.273 -57.138  1.00  0.00     0.068 A 
HETATM   20  C   UNL     1     -31.980  38.109 -57.568  1.00  0.00     0.039 A 
HETATM   21  C   UNL     1     -33.037  38.608 -56.797  1.00  0.00     0.032 A 
BRANCH  19  22
HETATM   22  O   UNL     1     -29.545  37.858 -57.802  1.00  0.00    -0.356 OA
HETATM   23  C   UNL     1     -28.309  37.957 -57.104  1.00  0.00     0.210 C 
ENDBRANCH  19  22
ENDBRANCH  13  16
ENDBRANCH  10  12
BRANCH   9  24
HETATM   24  C   UNL     1     -37.125  40.214 -56.434  1.00  0.00    -0.017 A 
HETATM   25  C   UNL     1     -37.189  40.637 -57.802  1.00  0.00    -0.017 A 
HETATM   26  C   UNL     1     -37.169  39.650 -58.821  1.00  0.00    -0.025 A 
HETATM   27  C   UNL     1     -37.286  41.988 -58.226  1.00  0.00     0.013 A 
HETATM   28  C   UNL     1     -37.212  40.024 -60.176  1.00  0.00     0.012 A 
HETATM   29  C   UNL     1     -37.116  38.292 -58.483  1.00  0.00     0.012 A 
HETATM   30  C   UNL     1     -37.293  41.361 -60.553  1.00  0.00     0.001 A 
HETATM   31  C   UNL     1     -37.337  42.344 -59.577  1.00  0.00     0.001 A 
HETATM   32  C   UNL     1     -37.109  37.885 -57.154  1.00  0.00     0.002 A 
HETATM   33  C   UNL     1     -37.128  38.833 -56.139  1.00  0.00     0.010 A 
ENDBRANCH   9  24
TORSDOF 4
ENDMDL
MODEL 7
REMARK VINA RESULT:      -7.4      3.066      7.207
REMARK  4 active torsions:
REMARK  status: ('A' for Active; 'I' for Inactive)
REMARK    1  A    between atoms: C_9  and  C_10 
REMARK    2  A    between atoms: C_20  and  C_21 
REMARK       I    between atoms: C_21  and  N_22 
REMARK    3  A    between atoms: N_22  and  C_23 
REMARK    4  A    between atoms: C_26  and  O_27 
ROOT
HETATM    1  C   UNL     1     -44.690  57.662 -51.580  1.00  0.00     0.070 C 
HETATM    2  C   UNL     1     -44.734  58.479 -52.848  1.00  0.00     0.037 A 
HETATM    3  N   UNL     1     -45.239  59.765 -52.712  1.00  0.00    -0.192 N 
HETATM    4  C   UNL     1     -45.282  60.657 -53.719  1.00  0.00     0.725 A 
HETATM    5  N   UNL     1     -44.791  60.310 -54.951  1.00  0.00    -0.084 N 
HETATM    6  N   UNL     1     -44.829  61.363 -55.796  1.00  0.00    -0.149 NA
HETATM    7  C   UNL     1     -45.429  62.280 -55.030  1.00  0.00     0.275 A 
HETATM    8  N   UNL     1     -45.713  61.891 -53.748  1.00  0.00    -0.054 NA
HETATM    9  C   UNL     1     -44.183  59.009 -55.257  1.00  0.00     0.203 A 
HETATM   10  C   UNL     1     -44.277  58.062 -54.054  1.00  0.00     0.062 A 
HETATM   11  H   UNL     1     -45.552  60.062 -51.791  1.00  0.00     0.184 HD
ENDROOT
BRANCH  10  12
HETATM   12  C   UNL     1     -43.782  56.682 -54.319  1.00  0.00     0.256 C 
HETATM   13  N   UNL     1     -42.413  56.581 -54.163  1.00  0.00    -0.323 N 
HETATM   14  H   UNL     1     -41.900  57.439 -54.017  1.00  0.00     0.169 HD
HETATM   15  O   UNL     1     -44.578  55.794 -54.579  1.00  0.00    -0.267 OA
BRANCH  13  16
HETATM   16  C   UNL     1     -41.638  55.407 -54.125  1.00  0.00     0.035 A 
HETATM   17  C   UNL     1     -40.875  54.943 -55.193  1.00  0.00     0.032 A 
HETATM   18  C   UNL     1     -40.186  53.728 -55.088  1.00  0.00     0.039 A 
HETATM   19  C   UNL     1     -40.238  52.971 -53.914  1.00  0.00     0.068 A 
HETATM   20  C   UNL     1     -40.986  53.442 -52.839  1.00  0.00     0.039 A 
HETATM   21  C   UNL     1     -41.689  54.649 -52.948  1.00  0.00     0.032 A 
BRANCH  19  22
HETATM   22  O   UNL     1     -39.528  51.803 -53.950  1.00  0.00    -0.356 OA
HETATM   23  C   UNL     1     -40.235  50.632 -54.339  1.00  0.00     0.210 C 
ENDBRANCH  19  22
ENDBRANCH  13  16
ENDBRANCH  10  12
BRANCH   9  24
HETATM   24  C   UNL     1     -44.755  58.452 -56.568  1.00  0.00    -0.017 A 
HETATM   25  C   UNL     1     -43.909  58.132 -57.681  1.00  0.00    -0.017 A 
HETATM   26  C   UNL     1     -44.494  57.544 -58.833  1.00  0.00    -0.025 A 
HETATM   27  C   UNL     1     -42.511  58.373 -57.729  1.00  0.00     0.013 A 
HETATM   28  C   UNL     1     -43.696  57.199 -59.939  1.00  0.00     0.012 A 
HETATM   29  C   UNL     1     -45.874  57.312 -58.880  1.00  0.00     0.012 A 
HETATM   30  C   UNL     1     -42.326  57.439 -59.943  1.00  0.00     0.001 A 
HETATM   31  C   UNL     1     -41.734  58.033 -58.840  1.00  0.00     0.001 A 
HETATM   32  C   UNL     1     -46.697  57.673 -57.820  1.00  0.00     0.002 A 
HETATM   33  C   UNL     1     -46.147  58.250 -56.681  1.00  0.00     0.010 A 
ENDBRANCH   9  24
TORSDOF 4
ENDMDL
MODEL 8
REMARK VINA RESULT:      -7.4      2.843      6.843
REMARK  4 active torsions:
REMARK  status: ('A' for Active; 'I' for Inactive)
REMARK    1  A    between atoms: C_9  and  C_10 
REMARK    2  A    between atoms: C_20  and  C_21 
REMARK       I    between atoms: C_21  and  N_22 
REMARK    3  A    between atoms: N_22  and  C_23 
REMARK    4  A    between atoms: C_26  and  O_27 
ROOT
HETATM    1  C   UNL     1     -43.105  55.534 -58.152  1.00  0.00     0.070 C 
HETATM    2  C   UNL     1     -43.352  56.862 -57.479  1.00  0.00     0.037 A 
HETATM    3  N   UNL     1     -43.466  57.952 -58.332  1.00  0.00    -0.192 N 
HETATM    4  C   UNL     1     -43.760  59.196 -57.912  1.00  0.00     0.725 A 
HETATM    5  N   UNL     1     -43.981  59.426 -56.579  1.00  0.00    -0.084 N 
HETATM    6  N   UNL     1     -44.358  60.705 -56.368  1.00  0.00    -0.149 NA
HETATM    7  C   UNL     1     -44.263  61.203 -57.606  1.00  0.00     0.275 A 
HETATM    8  N   UNL     1     -43.910  60.309 -58.582  1.00  0.00    -0.054 NA
HETATM    9  C   UNL     1     -43.942  58.381 -55.547  1.00  0.00     0.203 A 
HETATM   10  C   UNL     1     -43.512  57.035 -56.144  1.00  0.00     0.062 A 
HETATM   11  H   UNL     1     -43.367  57.790 -59.331  1.00  0.00     0.184 HD
ENDROOT
BRANCH  10  12
HETATM   12  C   UNL     1     -43.340  55.946 -55.142  1.00  0.00     0.256 C 
HETATM   13  N   UNL     1     -42.033  55.502 -55.074  1.00  0.00    -0.323 N 
HETATM   14  H   UNL     1     -41.388  55.856 -55.766  1.00  0.00     0.169 HD
HETATM   15  O   UNL     1     -44.291  55.595 -54.463  1.00  0.00    -0.267 OA
BRANCH  13  16
HETATM   16  C   UNL     1     -41.467  54.646 -54.110  1.00  0.00     0.035 A 
HETATM   17  C   UNL     1     -41.318  54.977 -52.767  1.00  0.00     0.032 A 
HETATM   18  C   UNL     1     -40.682  54.089 -51.892  1.00  0.00     0.039 A 
HETATM   19  C   UNL     1     -40.202  52.856 -52.342  1.00  0.00     0.068 A 
HETATM   20  C   UNL     1     -40.366  52.516 -53.681  1.00  0.00     0.039 A 
HETATM   21  C   UNL     1     -40.986  53.410 -54.562  1.00  0.00     0.032 A 
BRANCH  19  22
HETATM   22  O   UNL     1     -39.595  52.090 -51.385  1.00  0.00    -0.356 OA
HETATM   23  C   UNL     1     -39.522  50.691 -51.632  1.00  0.00     0.210 C 
ENDBRANCH  19  22
ENDBRANCH  13  16
ENDBRANCH  10  12
BRANCH   9  24
HETATM   24  C   UNL     1     -43.111  58.853 -54.345  1.00  0.00    -0.017 A 
HETATM   25  C   UNL     1     -43.730  59.259 -53.117  1.00  0.00    -0.017 A 
HETATM   26  C   UNL     1     -42.899  59.606 -52.019  1.00  0.00    -0.025 A 
HETATM   27  C   UNL     1     -45.131  59.354 -52.911  1.00  0.00     0.013 A 
HETATM   28  C   UNL     1     -43.467  59.991 -50.791  1.00  0.00     0.012 A 
HETATM   29  C   UNL     1     -41.506  59.575 -52.156  1.00  0.00     0.012 A 
HETATM   30  C   UNL     1     -44.846  60.060 -50.624  1.00  0.00     0.001 A 
HETATM   31  C   UNL     1     -45.679  59.748 -51.687  1.00  0.00     0.001 A 
HETATM   32  C   UNL     1     -40.912  59.234 -53.365  1.00  0.00     0.002 A 
HETATM   33  C   UNL     1     -41.704  58.890 -54.453  1.00  0.00     0.010 A 
ENDBRANCH   9  24
TORSDOF 4
ENDMDL
MODEL 9
REMARK VINA RESULT:      -7.2      3.996      8.551
REMARK  4 active torsions:
REMARK  status: ('A' for Active; 'I' for Inactive)
REMARK    1  A    between atoms: C_9  and  C_10 
REMARK    2  A    between atoms: C_20  and  C_21 
REMARK       I    between atoms: C_21  and  N_22 
REMARK    3  A    between atoms: N_22  and  C_23 
REMARK    4  A    between atoms: C_26  and  O_27 
ROOT
HETATM    1  C   UNL     1     -45.036  53.997 -60.001  1.00  0.00     0.070 C 
HETATM    2  C   UNL     1     -45.343  55.473 -60.016  1.00  0.00     0.037 A 
HETATM    3  N   UNL     1     -46.426  55.850 -60.800  1.00  0.00    -0.192 N 
HETATM    4  C   UNL     1     -46.888  57.111 -60.872  1.00  0.00     0.725 A 
HETATM    5  N   UNL     1     -46.289  58.095 -60.129  1.00  0.00    -0.084 N 
HETATM    6  N   UNL     1     -46.952  59.265 -60.257  1.00  0.00    -0.149 NA
HETATM    7  C   UNL     1     -47.886  58.928 -61.152  1.00  0.00     0.275 A 
HETATM    8  N   UNL     1     -47.888  57.616 -61.546  1.00  0.00    -0.054 NA
HETATM    9  C   UNL     1     -45.162  57.865 -59.216  1.00  0.00     0.203 A 
HETATM   10  C   UNL     1     -44.679  56.410 -59.295  1.00  0.00     0.062 A 
HETATM   11  H   UNL     1     -46.922  55.124 -61.310  1.00  0.00     0.184 HD
ENDROOT
BRANCH  10  12
HETATM   12  C   UNL     1     -43.466  56.121 -58.481  1.00  0.00     0.256 C 
HETATM   13  N   UNL     1     -43.753  56.026 -57.133  1.00  0.00    -0.323 N 
HETATM   14  H   UNL     1     -44.687  56.276 -56.841  1.00  0.00     0.169 HD
HETATM   15  O   UNL     1     -42.394  55.944 -59.037  1.00  0.00    -0.267 OA
BRANCH  13  16
HETATM   16  C   UNL     1     -42.909  55.563 -56.106  1.00  0.00     0.035 A 
HETATM   17  C   UNL     1     -42.890  54.249 -55.647  1.00  0.00     0.032 A 
HETATM   18  C   UNL     1     -42.064  53.893 -54.575  1.00  0.00     0.039 A 
HETATM   19  C   UNL     1     -41.237  54.836 -53.959  1.00  0.00     0.068 A 
HETATM   20  C   UNL     1     -41.242  56.147 -54.428  1.00  0.00     0.039 A 
HETATM   21  C   UNL     1     -42.080  56.509 -55.489  1.00  0.00     0.032 A 
BRANCH  19  22
HETATM   22  O   UNL     1     -40.490  54.356 -52.920  1.00  0.00    -0.356 OA
HETATM   23  C   UNL     1     -40.567  52.960 -52.661  1.00  0.00     0.210 C 
ENDBRANCH  19  22
ENDBRANCH  13  16
ENDBRANCH  10  12
BRANCH   9  24
HETATM   24  C   UNL     1     -44.072  58.923 -59.440  1.00  0.00    -0.017 A 
HETATM   25  C   UNL     1     -43.584  59.738 -58.366  1.00  0.00    -0.017 A 
HETATM   26  C   UNL     1     -42.519  60.639 -58.626  1.00  0.00    -0.025 A 
HETATM   27  C   UNL     1     -44.097  59.723 -57.043  1.00  0.00     0.013 A 
HETATM   28  C   UNL     1     -41.999  61.443 -57.596  1.00  0.00     0.012 A 
HETATM   29  C   UNL     1     -41.984  60.741 -59.916  1.00  0.00     0.012 A 
HETATM   30  C   UNL     1     -42.521  61.391 -56.307  1.00  0.00     0.001 A 
HETATM   31  C   UNL     1     -43.575  60.535 -56.032  1.00  0.00     0.001 A 
HETATM   32  C   UNL     1     -42.498  59.989 -60.966  1.00  0.00     0.002 A 
HETATM   33  C   UNL     1     -43.540  59.099 -60.735  1.00  0.00     0.010 A 
ENDBRANCH   9  24
TORSDOF 4
ENDMDL
MODEL 10
REMARK VINA RESULT:      -7.2      3.321      7.814
REMARK  4 active torsions:
REMARK  status: ('A' for Active; 'I' for Inactive)
REMARK    1  A    between atoms: C_9  and  C_10 
REMARK    2  A    between atoms: C_20  and  C_21 
REMARK       I    between atoms: C_21  and  N_22 
REMARK    3  A    between atoms: N_22  and  C_23 
REMARK    4  A    between atoms: C_26  and  O_27 
ROOT
HETATM    1  C   UNL     1     -42.578  59.867 -52.705  1.00  0.00     0.070 C 
HETATM    2  C   UNL     1     -42.852  60.088 -54.172  1.00  0.00     0.037 A 
HETATM    3  N   UNL     1     -42.884  61.415 -54.581  1.00  0.00    -0.192 N 
HETATM    4  C   UNL     1     -43.040  61.794 -55.862  1.00  0.00     0.725 A 
HETATM    5  N   UNL     1     -43.159  60.842 -56.840  1.00  0.00    -0.084 N 
HETATM    6  N   UNL     1     -43.207  61.412 -58.063  1.00  0.00    -0.149 NA
HETATM    7  C   UNL     1     -43.193  62.709 -57.737  1.00  0.00     0.275 A 
HETATM    8  N   UNL     1     -43.081  62.986 -56.400  1.00  0.00    -0.054 NA
HETATM    9  C   UNL     1     -43.105  59.395 -56.590  1.00  0.00     0.203 A 
HETATM   10  C   UNL     1     -43.013  59.101 -55.087  1.00  0.00     0.062 A 
HETATM   11  H   UNL     1     -42.735  62.135 -53.878  1.00  0.00     0.184 HD
ENDROOT
BRANCH  10  12
HETATM   12  C   UNL     1     -43.064  57.653 -54.741  1.00  0.00     0.256 C 
HETATM   13  N   UNL     1     -41.815  57.065 -54.769  1.00  0.00    -0.323 N 
HETATM   14  H   UNL     1     -41.051  57.621 -55.127  1.00  0.00     0.169 HD
HETATM   15  O   UNL     1     -44.128  57.146 -54.424  1.00  0.00    -0.267 OA
BRANCH  13  16
HETATM   16  C   UNL     1     -41.456  55.787 -54.301  1.00  0.00     0.035 A 
HETATM   17  C   UNL     1     -41.458  55.421 -52.958  1.00  0.00     0.032 A 
HETATM   18  C   UNL     1     -41.023  54.146 -52.578  1.00  0.00     0.039 A 
HETATM   19  C   UNL     1     -40.596  53.217 -53.531  1.00  0.00     0.068 A 
HETATM   20  C   UNL     1     -40.610  53.575 -54.876  1.00  0.00     0.039 A 
HETATM   21  C   UNL     1     -41.030  54.856 -55.257  1.00  0.00     0.032 A 
BRANCH  19  22
HETATM   22  O   UNL     1     -40.189  52.015 -53.023  1.00  0.00    -0.356 OA
HETATM   23  C   UNL     1     -39.859  50.998 -53.962  1.00  0.00     0.210 C 
ENDBRANCH  19  22
ENDBRANCH  13  16
ENDBRANCH  10  12
BRANCH   9  24
HETATM   24  C   UNL     1     -44.254  58.686 -57.321  1.00  0.00    -0.017 A 
HETATM   25  C   UNL     1     -44.009  57.631 -58.260  1.00  0.00    -0.017 A 
HETATM   26  C   UNL     1     -45.120  56.964 -58.838  1.00  0.00    -0.025 A 
HETATM   27  C   UNL     1     -42.722  57.199 -58.674  1.00  0.00     0.013 A 
HETATM   28  C   UNL     1     -44.924  55.910 -59.749  1.00  0.00     0.012 A 
HETATM   29  C   UNL     1     -46.424  57.357 -58.511  1.00  0.00     0.012 A 
HETATM   30  C   UNL     1     -43.645  55.508 -60.121  1.00  0.00     0.001 A 
HETATM   31  C   UNL     1     -42.543  56.157 -59.588  1.00  0.00     0.001 A 
HETATM   32  C   UNL     1     -46.655  58.417 -57.643  1.00  0.00     0.002 A 
HETATM   33  C   UNL     1     -45.583  59.085 -57.064  1.00  0.00     0.010 A 
ENDBRANCH   9  24
TORSDOF 4
ENDMDL
