MODEL 1
REMARK VINA RESULT:      -7.6      0.000      0.000
REMARK  2 active torsions:
REMARK  status: ('A' for Active; 'I' for Inactive)
REMARK    1  A    between atoms: C_8  and  S_9 
REMARK    2  A    between atoms: S_9  and  C_10 
ROOT
HETATM    1  C   UNL     1     -39.874  50.001 -54.194  1.00  0.00     0.002 A 
HETATM    2  C   UNL     1     -40.316  51.315 -54.353  1.00  0.00     0.034 A 
HETATM    3  C   UNL     1     -40.337  52.202 -53.284  1.00  0.00     0.087 A 
HETATM    4  C   UNL     1     -39.899  51.756 -52.008  1.00  0.00     0.087 A 
HETATM    5  N   UNL     1     -39.905  52.575 -50.937  1.00  0.00    -0.232 NA
HETATM    6  C   UNL     1     -40.322  53.838 -51.149  1.00  0.00     0.164 A 
HETATM    7 CL   UNL     1     -40.319  54.823 -49.745  1.00  0.00    -0.059 Cl
HETATM    8  C   UNL     1     -40.752  54.274 -52.391  1.00  0.00     0.165 A 
HETATM    9  N   UNL     1     -40.778  53.463 -53.474  1.00  0.00    -0.234 NA
HETATM   10  C   UNL     1     -39.462  50.446 -51.864  1.00  0.00     0.034 A 
HETATM   11  C   UNL     1     -39.446  49.565 -52.946  1.00  0.00     0.002 A 
ENDROOT
BRANCH   8  12
HETATM   12  S   UNL     1     -41.335  55.927 -52.721  1.00  0.00     0.078 S 
HETATM   13  O   UNL     1     -41.025  56.287 -54.149  1.00  0.00    -0.251 OA
BRANCH  12  14
HETATM   14  C   UNL     1     -43.159  55.668 -52.667  1.00  0.00     0.112 C 
HETATM   15  C   UNL     1     -43.575  55.756 -51.189  1.00  0.00     0.250 C 
HETATM   16  N   UNL     1     -43.474  57.177 -50.709  1.00  0.00    -0.074 N 
HETATM   17  H   UNL     1     -42.486  57.489 -50.842  1.00  0.00     0.277 HD
HETATM   18  H   UNL     1     -43.644  57.237 -49.697  1.00  0.00     0.277 HD
HETATM   19  C   UNL     1     -44.351  58.129 -51.443  1.00  0.00     0.232 C 
HETATM   20  C   UNL     1     -44.011  58.088 -52.926  1.00  0.00     0.029 C 
HETATM   21  C   UNL     1     -43.995  56.662 -53.488  1.00  0.00     0.021 C 
ENDBRANCH  12  14
ENDBRANCH   8  12
TORSDOF 2
ENDMDL
MODEL 2
REMARK VINA RESULT:      -7.2      1.601      1.798
REMARK  2 active torsions:
REMARK  status: ('A' for Active; 'I' for Inactive)
REMARK    1  A    between atoms: C_8  and  S_9 
REMARK    2  A    between atoms: S_9  and  C_10 
ROOT
HETATM    1  C   UNL     1     -40.177  51.911 -54.381  1.00  0.00     0.002 A 
HETATM    2  C   UNL     1     -40.649  53.152 -53.953  1.00  0.00     0.034 A 
HETATM    3  C   UNL     1     -40.626  53.508 -52.610  1.00  0.00     0.087 A 
HETATM    4  C   UNL     1     -40.110  52.585 -51.660  1.00  0.00     0.087 A 
HETATM    5  N   UNL     1     -40.070  52.878 -50.345  1.00  0.00    -0.232 NA
HETATM    6  C   UNL     1     -40.520  54.097 -49.988  1.00  0.00     0.164 A 
HETATM    7 CL   UNL     1     -40.455  54.401 -48.301  1.00  0.00    -0.059 Cl
HETATM    8  C   UNL     1     -41.025  54.996 -50.911  1.00  0.00     0.165 A 
HETATM    9  N   UNL     1     -41.098  54.715 -52.233  1.00  0.00    -0.234 NA
HETATM   10  C   UNL     1     -39.644  51.353 -52.100  1.00  0.00     0.034 A 
HETATM   11  C   UNL     1     -39.673  51.009 -53.452  1.00  0.00     0.002 A 
ENDROOT
BRANCH   8  12
HETATM   12  S   UNL     1     -41.653  56.612 -50.489  1.00  0.00     0.078 S 
HETATM   13  O   UNL     1     -40.537  57.618 -50.581  1.00  0.00    -0.251 OA
BRANCH  12  14
HETATM   14  C   UNL     1     -42.738  56.951 -51.940  1.00  0.00     0.112 C 
HETATM   15  C   UNL     1     -44.190  56.816 -51.449  1.00  0.00     0.250 C 
HETATM   16  N   UNL     1     -44.539  57.972 -50.554  1.00  0.00    -0.074 N 
HETATM   17  H   UNL     1     -43.868  57.971 -49.753  1.00  0.00     0.277 HD
HETATM   18  H   UNL     1     -45.467  57.843 -50.131  1.00  0.00     0.277 HD
HETATM   19  C   UNL     1     -44.448  59.302 -51.216  1.00  0.00     0.232 C 
HETATM   20  C   UNL     1     -43.038  59.505 -51.749  1.00  0.00     0.029 C 
HETATM   21  C   UNL     1     -42.553  58.326 -52.600  1.00  0.00     0.021 C 
ENDBRANCH  12  14
ENDBRANCH   8  12
TORSDOF 2
ENDMDL
MODEL 3
REMARK VINA RESULT:      -7.1      1.159      1.643
REMARK  2 active torsions:
REMARK  status: ('A' for Active; 'I' for Inactive)
REMARK    1  A    between atoms: C_8  and  S_9 
REMARK    2  A    between atoms: S_9  and  C_10 
ROOT
HETATM    1  C   UNL     1     -39.790  49.972 -54.161  1.00  0.00     0.002 A 
HETATM    2  C   UNL     1     -40.207  51.293 -54.326  1.00  0.00     0.034 A 
HETATM    3  C   UNL     1     -40.278  52.167 -53.248  1.00  0.00     0.087 A 
HETATM    4  C   UNL     1     -39.917  51.699 -51.956  1.00  0.00     0.087 A 
HETATM    5  N   UNL     1     -39.972  52.503 -50.876  1.00  0.00    -0.232 NA
HETATM    6  C   UNL     1     -40.362  53.774 -51.093  1.00  0.00     0.164 A 
HETATM    7 CL   UNL     1     -40.426  54.740 -49.677  1.00  0.00    -0.059 Cl
HETATM    8  C   UNL     1     -40.717  54.232 -52.351  1.00  0.00     0.165 A 
HETATM    9  N   UNL     1     -40.693  53.436 -53.445  1.00  0.00    -0.234 NA
HETATM   10  C   UNL     1     -39.504  50.382 -51.805  1.00  0.00     0.034 A 
HETATM   11  C   UNL     1     -39.437  49.515 -52.897  1.00  0.00     0.002 A 
ENDROOT
BRANCH   8  12
HETATM   12  S   UNL     1     -41.262  55.896 -52.690  1.00  0.00     0.078 S 
HETATM   13  O   UNL     1     -40.760  56.316 -54.046  1.00  0.00    -0.251 OA
BRANCH  12  14
HETATM   14  C   UNL     1     -43.074  55.632 -52.899  1.00  0.00     0.112 C 
HETATM   15  C   UNL     1     -43.727  57.025 -52.907  1.00  0.00     0.250 C 
HETATM   16  N   UNL     1     -43.393  57.742 -54.186  1.00  0.00    -0.074 N 
HETATM   17  H   UNL     1     -42.352  57.812 -54.251  1.00  0.00     0.277 HD
HETATM   18  H   UNL     1     -43.730  58.713 -54.163  1.00  0.00     0.277 HD
HETATM   19  C   UNL     1     -43.875  57.051 -55.413  1.00  0.00     0.232 C 
HETATM   20  C   UNL     1     -43.284  55.651 -55.469  1.00  0.00     0.029 C 
HETATM   21  C   UNL     1     -43.491  54.870 -54.166  1.00  0.00     0.021 C 
ENDBRANCH  12  14
ENDBRANCH   8  12
TORSDOF 2
ENDMDL
MODEL 4
REMARK VINA RESULT:      -6.9      2.583      3.299
REMARK  2 active torsions:
REMARK  status: ('A' for Active; 'I' for Inactive)
REMARK    1  A    between atoms: C_8  and  S_9 
REMARK    2  A    between atoms: S_9  and  C_10 
ROOT
HETATM    1  C   UNL     1     -39.465  51.572 -52.105  1.00  0.00     0.002 A 
HETATM    2  C   UNL     1     -40.213  52.648 -51.629  1.00  0.00     0.034 A 
HETATM    3  C   UNL     1     -41.000  53.412 -52.481  1.00  0.00     0.087 A 
HETATM    4  C   UNL     1     -41.039  53.085 -53.863  1.00  0.00     0.087 A 
HETATM    5  N   UNL     1     -41.782  53.797 -54.734  1.00  0.00    -0.232 NA
HETATM    6  C   UNL     1     -42.500  54.814 -54.219  1.00  0.00     0.164 A 
HETATM    7 CL   UNL     1     -43.411  55.688 -55.380  1.00  0.00    -0.059 Cl
HETATM    8  C   UNL     1     -42.462  55.137 -52.873  1.00  0.00     0.165 A 
HETATM    9  N   UNL     1     -41.704  54.451 -51.985  1.00  0.00    -0.234 NA
HETATM   10  C   UNL     1     -40.289  52.011 -54.324  1.00  0.00     0.034 A 
HETATM   11  C   UNL     1     -39.503  51.251 -53.457  1.00  0.00     0.002 A 
ENDROOT
BRANCH   8  12
HETATM   12  S   UNL     1     -43.374  56.485 -52.143  1.00  0.00     0.078 S 
HETATM   13  O   UNL     1     -43.155  56.483 -50.654  1.00  0.00    -0.251 OA
BRANCH  12  14
HETATM   14  C   UNL     1     -42.421  57.930 -52.776  1.00  0.00     0.112 C 
HETATM   15  C   UNL     1     -43.062  59.187 -52.162  1.00  0.00     0.250 C 
HETATM   16  N   UNL     1     -42.749  59.258 -50.693  1.00  0.00    -0.074 N 
HETATM   17  H   UNL     1     -43.117  58.389 -50.245  1.00  0.00     0.277 HD
HETATM   18  H   UNL     1     -43.257  60.031 -50.245  1.00  0.00     0.277 HD
HETATM   19  C   UNL     1     -41.295  59.343 -50.386  1.00  0.00     0.232 C 
HETATM   20  C   UNL     1     -40.583  58.137 -50.980  1.00  0.00     0.029 C 
HETATM   21  C   UNL     1     -40.918  57.923 -52.460  1.00  0.00     0.021 C 
ENDBRANCH  12  14
ENDBRANCH   8  12
TORSDOF 2
ENDMDL
MODEL 5
REMARK VINA RESULT:      -6.8      1.581      2.166
REMARK  2 active torsions:
REMARK  status: ('A' for Active; 'I' for Inactive)
REMARK    1  A    between atoms: C_8  and  S_9 
REMARK    2  A    between atoms: S_9  and  C_10 
ROOT
HETATM    1  C   UNL     1     -39.450  50.026 -51.305  1.00  0.00     0.002 A 
HETATM    2  C   UNL     1     -39.801  51.358 -51.084  1.00  0.00     0.034 A 
HETATM    3  C   UNL     1     -40.158  52.193 -52.136  1.00  0.00     0.087 A 
HETATM    4  C   UNL     1     -40.163  51.673 -53.458  1.00  0.00     0.087 A 
HETATM    5  N   UNL     1     -40.496  52.442 -54.514  1.00  0.00    -0.232 NA
HETATM    6  C   UNL     1     -40.846  53.715 -54.244  1.00  0.00     0.164 A 
HETATM    7 CL   UNL     1     -41.243  54.643 -55.631  1.00  0.00    -0.059 Cl
HETATM    8  C   UNL     1     -40.838  54.224 -52.957  1.00  0.00     0.165 A 
HETATM    9  N   UNL     1     -40.484  53.478 -51.884  1.00  0.00    -0.234 NA
HETATM   10  C   UNL     1     -39.812  50.346 -53.664  1.00  0.00     0.034 A 
HETATM   11  C   UNL     1     -39.455  49.518 -52.598  1.00  0.00     0.002 A 
ENDROOT
BRANCH   8  12
HETATM   12  S   UNL     1     -41.270  55.905 -52.546  1.00  0.00     0.078 S 
HETATM   13  O   UNL     1     -40.799  56.821 -53.644  1.00  0.00    -0.251 OA
BRANCH  12  14
HETATM   14  C   UNL     1     -43.104  55.843 -52.713  1.00  0.00     0.112 C 
HETATM   15  C   UNL     1     -43.680  55.863 -51.286  1.00  0.00     0.250 C 
HETATM   16  N   UNL     1     -43.494  57.224 -50.675  1.00  0.00    -0.074 N 
HETATM   17  H   UNL     1     -42.471  57.436 -50.672  1.00  0.00     0.277 HD
HETATM   18  H   UNL     1     -43.775  57.225 -49.686  1.00  0.00     0.277 HD
HETATM   19  C   UNL     1     -44.180  58.319 -51.414  1.00  0.00     0.232 C 
HETATM   20  C   UNL     1     -43.675  58.354 -52.848  1.00  0.00     0.029 C 
HETATM   21  C   UNL     1     -43.735  56.982 -53.529  1.00  0.00     0.021 C 
ENDBRANCH  12  14
ENDBRANCH   8  12
TORSDOF 2
ENDMDL
MODEL 6
REMARK VINA RESULT:      -6.5     14.811     15.939
REMARK  2 active torsions:
REMARK  status: ('A' for Active; 'I' for Inactive)
REMARK    1  A    between atoms: C_8  and  S_9 
REMARK    2  A    between atoms: S_9  and  C_10 
ROOT
HETATM    1  C   UNL     1     -33.741  40.000 -50.151  1.00  0.00     0.002 A 
HETATM    2  C   UNL     1     -34.603  39.767 -51.223  1.00  0.00     0.034 A 
HETATM    3  C   UNL     1     -34.166  39.880 -52.537  1.00  0.00     0.087 A 
HETATM    4  C   UNL     1     -32.814  40.238 -52.786  1.00  0.00     0.087 A 
HETATM    5  N   UNL     1     -32.340  40.366 -54.041  1.00  0.00    -0.232 NA
HETATM    6  C   UNL     1     -33.209  40.112 -55.039  1.00  0.00     0.164 A 
HETATM    7 CL   UNL     1     -32.548  40.307 -56.611  1.00  0.00    -0.059 Cl
HETATM    8  C   UNL     1     -34.527  39.765 -54.799  1.00  0.00     0.165 A 
HETATM    9  N   UNL     1     -35.031  39.654 -53.548  1.00  0.00    -0.234 NA
HETATM   10  C   UNL     1     -31.967  40.467 -51.710  1.00  0.00     0.034 A 
HETATM   11  C   UNL     1     -32.418  40.351 -50.395  1.00  0.00     0.002 A 
ENDROOT
BRANCH   8  12
HETATM   12  S   UNL     1     -35.724  39.439 -56.082  1.00  0.00     0.078 S 
HETATM   13  O   UNL     1     -36.603  38.293 -55.661  1.00  0.00    -0.251 OA
BRANCH  12  14
HETATM   14  C   UNL     1     -36.784  40.942 -55.955  1.00  0.00     0.112 C 
HETATM   15  C   UNL     1     -35.935  42.126 -56.448  1.00  0.00     0.250 C 
HETATM   16  N   UNL     1     -35.742  42.037 -57.936  1.00  0.00    -0.074 N 
HETATM   17  H   UNL     1     -35.275  41.125 -58.144  1.00  0.00     0.277 HD
HETATM   18  H   UNL     1     -35.089  42.759 -58.267  1.00  0.00     0.277 HD
HETATM   19  C   UNL     1     -37.009  42.082 -58.717  1.00  0.00     0.232 C 
HETATM   20  C   UNL     1     -37.916  40.945 -58.272  1.00  0.00     0.029 C 
HETATM   21  C   UNL     1     -38.098  40.895 -56.751  1.00  0.00     0.021 C 
ENDBRANCH  12  14
ENDBRANCH   8  12
TORSDOF 2
ENDMDL
MODEL 7
REMARK VINA RESULT:      -6.2      2.808      4.084
REMARK  2 active torsions:
REMARK  status: ('A' for Active; 'I' for Inactive)
REMARK    1  A    between atoms: C_8  and  S_9 
REMARK    2  A    between atoms: S_9  and  C_10 
ROOT
HETATM    1  C   UNL     1     -40.977  54.731 -48.695  1.00  0.00     0.002 A 
HETATM    2  C   UNL     1     -41.361  55.624 -49.696  1.00  0.00     0.034 A 
HETATM    3  C   UNL     1     -41.177  55.323 -51.039  1.00  0.00     0.087 A 
HETATM    4  C   UNL     1     -40.585  54.081 -51.394  1.00  0.00     0.087 A 
HETATM    5  N   UNL     1     -40.379  53.743 -52.682  1.00  0.00    -0.232 NA
HETATM    6  C   UNL     1     -40.787  54.631 -53.609  1.00  0.00     0.164 A 
HETATM    7 CL   UNL     1     -40.482  54.147 -55.226  1.00  0.00    -0.059 Cl
HETATM    8  C   UNL     1     -41.361  55.843 -53.266  1.00  0.00     0.165 A 
HETATM    9  N   UNL     1     -41.555  56.215 -51.979  1.00  0.00    -0.234 NA
HETATM   10  C   UNL     1     -40.207  53.202 -50.388  1.00  0.00     0.034 A 
HETATM   11  C   UNL     1     -40.398  53.517 -49.042  1.00  0.00     0.002 A 
ENDROOT
BRANCH   8  12
HETATM   12  S   UNL     1     -41.897  57.065 -54.451  1.00  0.00     0.078 S 
HETATM   13  O   UNL     1     -43.081  56.532 -55.212  1.00  0.00    -0.251 OA
BRANCH  12  14
HETATM   14  C   UNL     1     -42.578  58.359 -53.329  1.00  0.00     0.112 C 
HETATM   15  C   UNL     1     -41.662  59.588 -53.464  1.00  0.00     0.250 C 
HETATM   16  N   UNL     1     -41.864  60.236 -54.805  1.00  0.00    -0.074 N 
HETATM   17  H   UNL     1     -41.651  59.524 -55.540  1.00  0.00     0.277 HD
HETATM   18  H   UNL     1     -41.185  60.993 -54.955  1.00  0.00     0.277 HD
HETATM   19  C   UNL     1     -43.250  60.725 -55.041  1.00  0.00     0.232 C 
HETATM   20  C   UNL     1     -44.225  59.564 -54.907  1.00  0.00     0.029 C 
HETATM   21  C   UNL     1     -44.030  58.778 -53.605  1.00  0.00     0.021 C 
ENDBRANCH  12  14
ENDBRANCH   8  12
TORSDOF 2
ENDMDL
MODEL 8
REMARK VINA RESULT:      -6.2      2.886      3.759
REMARK  2 active torsions:
REMARK  status: ('A' for Active; 'I' for Inactive)
REMARK    1  A    between atoms: C_8  and  S_9 
REMARK    2  A    between atoms: S_9  and  C_10 
ROOT
HETATM    1  C   UNL     1     -39.736  52.111 -51.749  1.00  0.00     0.002 A 
HETATM    2  C   UNL     1     -40.418  53.322 -51.616  1.00  0.00     0.034 A 
HETATM    3  C   UNL     1     -40.947  53.976 -52.721  1.00  0.00     0.087 A 
HETATM    4  C   UNL     1     -40.788  53.396 -54.008  1.00  0.00     0.087 A 
HETATM    5  N   UNL     1     -41.277  53.992 -55.114  1.00  0.00    -0.232 NA
HETATM    6  C   UNL     1     -41.943  55.149 -54.927  1.00  0.00     0.164 A 
HETATM    7 CL   UNL     1     -42.527  55.863 -56.374  1.00  0.00    -0.059 Cl
HETATM    8  C   UNL     1     -42.097  55.717 -53.675  1.00  0.00     0.165 A 
HETATM    9  N   UNL     1     -41.593  55.149 -52.554  1.00  0.00    -0.234 NA
HETATM   10  C   UNL     1     -40.108  52.192 -54.127  1.00  0.00     0.034 A 
HETATM   11  C   UNL     1     -39.581  51.544 -53.008  1.00  0.00     0.002 A 
ENDROOT
BRANCH   8  12
HETATM   12  S   UNL     1     -42.949  57.256 -53.374  1.00  0.00     0.078 S 
HETATM   13  O   UNL     1     -43.258  57.373 -51.907  1.00  0.00    -0.251 OA
BRANCH  12  14
HETATM   14  C   UNL     1     -41.596  58.467 -53.688  1.00  0.00     0.112 C 
HETATM   15  C   UNL     1     -41.951  59.200 -54.994  1.00  0.00     0.250 C 
HETATM   16  N   UNL     1     -43.115  60.123 -54.764  1.00  0.00    -0.074 N 
HETATM   17  H   UNL     1     -43.918  59.548 -54.424  1.00  0.00     0.277 HD
HETATM   18  H   UNL     1     -43.435  60.540 -55.649  1.00  0.00     0.277 HD
HETATM   19  C   UNL     1     -42.859  61.183 -53.751  1.00  0.00     0.232 C 
HETATM   20  C   UNL     1     -42.481  60.536 -52.428  1.00  0.00     0.029 C 
HETATM   21  C   UNL     1     -41.360  59.500 -52.576  1.00  0.00     0.021 C 
ENDBRANCH  12  14
ENDBRANCH   8  12
TORSDOF 2
ENDMDL
MODEL 9
REMARK VINA RESULT:      -6.0      3.153      4.517
REMARK  2 active torsions:
REMARK  status: ('A' for Active; 'I' for Inactive)
REMARK    1  A    between atoms: C_8  and  S_9 
REMARK    2  A    between atoms: S_9  and  C_10 
ROOT
HETATM    1  C   UNL     1     -40.236  54.741 -49.700  1.00  0.00     0.002 A 
HETATM    2  C   UNL     1     -41.168  55.559 -50.339  1.00  0.00     0.034 A 
HETATM    3  C   UNL     1     -41.710  55.211 -51.569  1.00  0.00     0.087 A 
HETATM    4  C   UNL     1     -41.304  53.995 -52.182  1.00  0.00     0.087 A 
HETATM    5  N   UNL     1     -41.795  53.612 -53.378  1.00  0.00    -0.232 NA
HETATM    6  C   UNL     1     -42.706  54.429 -53.942  1.00  0.00     0.164 A 
HETATM    7 CL   UNL     1     -43.279  53.893 -55.467  1.00  0.00    -0.059 Cl
HETATM    8  C   UNL     1     -43.101  55.615 -53.348  1.00  0.00     0.165 A 
HETATM    9  N   UNL     1     -42.603  56.032 -52.160  1.00  0.00    -0.234 NA
HETATM   10  C   UNL     1     -40.376  53.189 -51.536  1.00  0.00     0.034 A 
HETATM   11  C   UNL     1     -39.839  53.552 -50.299  1.00  0.00     0.002 A 
ENDROOT
BRANCH   8  12
HETATM   12  S   UNL     1     -44.284  56.744 -54.061  1.00  0.00     0.078 S 
HETATM   13  O   UNL     1     -44.811  57.655 -52.987  1.00  0.00    -0.251 OA
BRANCH  12  14
HETATM   14  C   UNL     1     -43.179  57.795 -55.097  1.00  0.00     0.112 C 
HETATM   15  C   UNL     1     -43.145  57.157 -56.496  1.00  0.00     0.250 C 
HETATM   16  N   UNL     1     -44.465  57.362 -57.187  1.00  0.00    -0.074 N 
HETATM   17  H   UNL     1     -45.207  56.928 -56.593  1.00  0.00     0.277 HD
HETATM   18  H   UNL     1     -44.497  56.850 -58.079  1.00  0.00     0.277 HD
HETATM   19  C   UNL     1     -44.828  58.791 -57.392  1.00  0.00     0.232 C 
HETATM   20  C   UNL     1     -44.865  59.500 -56.047  1.00  0.00     0.029 C 
HETATM   21  C   UNL     1     -43.594  59.269 -55.222  1.00  0.00     0.021 C 
ENDBRANCH  12  14
ENDBRANCH   8  12
TORSDOF 2
ENDMDL
MODEL 10
REMARK VINA RESULT:      -6.0      2.903      4.240
REMARK  2 active torsions:
REMARK  status: ('A' for Active; 'I' for Inactive)
REMARK    1  A    between atoms: C_8  and  S_9 
REMARK    2  A    between atoms: S_9  and  C_10 
ROOT
HETATM    1  C   UNL     1     -39.914  53.504 -50.352  1.00  0.00     0.002 A 
HETATM    2  C   UNL     1     -40.730  54.628 -50.223  1.00  0.00     0.034 A 
HETATM    3  C   UNL     1     -41.560  55.039 -51.259  1.00  0.00     0.087 A 
HETATM    4  C   UNL     1     -41.573  54.294 -52.469  1.00  0.00     0.087 A 
HETATM    5  N   UNL     1     -42.355  54.653 -53.507  1.00  0.00    -0.232 NA
HETATM    6  C   UNL     1     -43.138  55.734 -53.323  1.00  0.00     0.164 A 
HETATM    7 CL   UNL     1     -44.096  56.144 -54.685  1.00  0.00    -0.059 Cl
HETATM    8  C   UNL     1     -43.125  56.462 -52.147  1.00  0.00     0.165 A 
HETATM    9  N   UNL     1     -42.330  56.136 -51.101  1.00  0.00    -0.234 NA
HETATM   10  C   UNL     1     -40.755  53.178 -52.584  1.00  0.00     0.034 A 
HETATM   11  C   UNL     1     -39.926  52.776 -51.535  1.00  0.00     0.002 A 
ENDROOT
BRANCH   8  12
HETATM   12  S   UNL     1     -44.123  57.912 -51.859  1.00  0.00     0.078 S 
HETATM   13  O   UNL     1     -45.037  57.663 -50.690  1.00  0.00    -0.251 OA
BRANCH  12  14
HETATM   14  C   UNL     1     -42.849  59.092 -51.241  1.00  0.00     0.112 C 
HETATM   15  C   UNL     1     -41.934  59.422 -52.434  1.00  0.00     0.250 C 
HETATM   16  N   UNL     1     -42.668  60.284 -53.422  1.00  0.00    -0.074 N 
HETATM   17  H   UNL     1     -43.519  59.763 -53.732  1.00  0.00     0.277 HD
HETATM   18  H   UNL     1     -42.110  60.425 -54.274  1.00  0.00     0.277 HD
HETATM   19  C   UNL     1     -43.116  61.592 -52.871  1.00  0.00     0.232 C 
HETATM   20  C   UNL     1     -44.017  61.351 -51.669  1.00  0.00     0.029 C 
HETATM   21  C   UNL     1     -43.391  60.400 -50.643  1.00  0.00     0.021 C 
ENDBRANCH  12  14
ENDBRANCH   8  12
TORSDOF 2
ENDMDL
