MODEL 1
REMARK VINA RESULT:      -8.8      0.000      0.000
REMARK  2 active torsions:
REMARK  status: ('A' for Active; 'I' for Inactive)
REMARK    1  A    between atoms: C_15  and  C_16 
REMARK    2  A    between atoms: C_19  and  O_20 
ROOT
HETATM    1  C   UNL     1     -41.773  59.659 -60.660  1.00  0.00     0.048 C 
HETATM    2  C   UNL     1     -42.298  58.557 -59.786  1.00  0.00    -0.061 A 
HETATM    3  C   UNL     1     -42.082  58.603 -58.397  1.00  0.00     0.021 A 
HETATM    4  C   UNL     1     -42.548  57.555 -57.580  1.00  0.00    -0.000 A 
HETATM    5  C   UNL     1     -43.232  56.491 -58.178  1.00  0.00     0.043 A 
HETATM    6  N   UNL     1     -43.610  55.622 -57.176  1.00  0.00    -0.353 N 
HETATM    7  H   UNL     1     -44.118  54.758 -57.307  1.00  0.00     0.166 HD
HETATM    8  C   UNL     1     -43.095  56.054 -55.993  1.00  0.00     0.066 A 
HETATM    9  C   UNL     1     -42.468  57.270 -56.189  1.00  0.00    -0.017 A 
HETATM   10  C   UNL     1     -41.807  58.017 -55.062  1.00  0.00     0.043 C 
HETATM   11  C   UNL     1     -42.076  57.349 -53.677  1.00  0.00     0.018 C 
HETATM   12  C   UNL     1     -42.013  55.812 -53.788  1.00  0.00     0.065 A 
HETATM   13  C   UNL     1     -43.120  55.427 -54.717  1.00  0.00     0.082 A 
HETATM   14  N   UNL     1     -44.065  54.686 -54.246  1.00  0.00    -0.203 NA
HETATM   15  C   UNL     1     -42.400  54.977 -52.563  1.00  0.00     0.121 A 
HETATM   16  N   UNL     1     -43.713  54.423 -52.961  1.00  0.00    -0.207 NA
HETATM   17  C   UNL     1     -43.434  56.409 -59.559  1.00  0.00     0.031 A 
HETATM   18  C   UNL     1     -42.946  57.454 -60.350  1.00  0.00     0.009 A 
HETATM   19  H   UNL     1     -44.451  54.673 -52.302  1.00  0.00     0.149 HD
ENDROOT
BRANCH  15  20
HETATM   20  C   UNL     1     -41.391  53.864 -52.269  1.00  0.00    -0.038 A 
HETATM   21  C   UNL     1     -40.729  53.190 -53.310  1.00  0.00     0.011 A 
HETATM   22  C   UNL     1     -39.890  52.099 -53.049  1.00  0.00     0.037 A 
HETATM   23  C   UNL     1     -39.675  51.685 -51.737  1.00  0.00     0.068 A 
HETATM   24  C   UNL     1     -40.235  52.405 -50.687  1.00  0.00     0.037 A 
HETATM   25  C   UNL     1     -41.087  53.482 -50.949  1.00  0.00     0.011 A 
BRANCH  23  26
HETATM   26  O   UNL     1     -38.896  50.615 -51.390  1.00  0.00    -0.356 OA
HETATM   27  C   UNL     1     -39.652  49.461 -51.026  1.00  0.00     0.210 C 
ENDBRANCH  23  26
ENDBRANCH  15  20
TORSDOF 2
ENDMDL
MODEL 2
REMARK VINA RESULT:      -8.4      4.564      8.028
REMARK  2 active torsions:
REMARK  status: ('A' for Active; 'I' for Inactive)
REMARK    1  A    between atoms: C_15  and  C_16 
REMARK    2  A    between atoms: C_19  and  O_20 
ROOT
HETATM    1  C   UNL     1     -39.160  50.808 -54.295  1.00  0.00     0.048 C 
HETATM    2  C   UNL     1     -39.910  51.707 -53.353  1.00  0.00    -0.061 A 
HETATM    3  C   UNL     1     -40.885  52.587 -53.854  1.00  0.00     0.021 A 
HETATM    4  C   UNL     1     -41.566  53.451 -52.975  1.00  0.00    -0.000 A 
HETATM    5  C   UNL     1     -41.260  53.399 -51.611  1.00  0.00     0.043 A 
HETATM    6  N   UNL     1     -42.075  54.305 -50.966  1.00  0.00    -0.353 N 
HETATM    7  H   UNL     1     -42.077  54.491 -49.972  1.00  0.00     0.166 HD
HETATM    8  C   UNL     1     -42.800  54.991 -51.890  1.00  0.00     0.066 A 
HETATM    9  C   UNL     1     -42.549  54.465 -53.144  1.00  0.00    -0.017 A 
HETATM   10  C   UNL     1     -43.214  55.003 -54.382  1.00  0.00     0.043 C 
HETATM   11  C   UNL     1     -44.311  56.062 -54.047  1.00  0.00     0.018 C 
HETATM   12  C   UNL     1     -43.851  56.984 -52.899  1.00  0.00     0.065 A 
HETATM   13  C   UNL     1     -43.678  56.094 -51.708  1.00  0.00     0.082 A 
HETATM   14  N   UNL     1     -44.433  56.312 -50.685  1.00  0.00    -0.203 NA
HETATM   15  C   UNL     1     -44.854  57.991 -52.327  1.00  0.00     0.121 A 
HETATM   16  N   UNL     1     -45.181  57.398 -51.012  1.00  0.00    -0.207 NA
HETATM   17  C   UNL     1     -40.275  52.552 -51.093  1.00  0.00     0.031 A 
HETATM   18  C   UNL     1     -39.600  51.717 -51.990  1.00  0.00     0.009 A 
HETATM   19  H   UNL     1     -46.181  57.222 -50.908  1.00  0.00     0.149 HD
ENDROOT
BRANCH  15  20
HETATM   20  C   UNL     1     -44.256  59.392 -52.175  1.00  0.00    -0.038 A 
HETATM   21  C   UNL     1     -43.349  59.686 -51.141  1.00  0.00     0.011 A 
HETATM   22  C   UNL     1     -42.886  60.992 -50.934  1.00  0.00     0.037 A 
HETATM   23  C   UNL     1     -43.300  62.019 -51.777  1.00  0.00     0.068 A 
HETATM   24  C   UNL     1     -44.111  61.730 -52.868  1.00  0.00     0.037 A 
HETATM   25  C   UNL     1     -44.588  60.430 -53.064  1.00  0.00     0.011 A 
BRANCH  23  26
HETATM   26  O   UNL     1     -42.923  63.327 -51.633  1.00  0.00    -0.356 OA
HETATM   27  C   UNL     1     -42.889  63.759 -50.274  1.00  0.00     0.210 C 
ENDBRANCH  23  26
ENDBRANCH  15  20
TORSDOF 2
ENDMDL
MODEL 3
REMARK VINA RESULT:      -8.3      1.502      2.131
REMARK  2 active torsions:
REMARK  status: ('A' for Active; 'I' for Inactive)
REMARK    1  A    between atoms: C_15  and  C_16 
REMARK    2  A    between atoms: C_19  and  O_20 
ROOT
HETATM    1  C   UNL     1     -40.876  62.322 -59.306  1.00  0.00     0.048 C 
HETATM    2  C   UNL     1     -41.584  61.086 -58.831  1.00  0.00    -0.061 A 
HETATM    3  C   UNL     1     -41.479  60.694 -57.485  1.00  0.00     0.021 A 
HETATM    4  C   UNL     1     -42.117  59.518 -57.046  1.00  0.00    -0.000 A 
HETATM    5  C   UNL     1     -42.858  58.772 -57.968  1.00  0.00     0.043 A 
HETATM    6  N   UNL     1     -43.406  57.700 -57.294  1.00  0.00    -0.353 N 
HETATM    7  H   UNL     1     -43.990  56.984 -57.704  1.00  0.00     0.166 HD
HETATM    8  C   UNL     1     -42.947  57.696 -56.014  1.00  0.00     0.066 A 
HETATM    9  C   UNL     1     -42.181  58.828 -55.804  1.00  0.00    -0.017 A 
HETATM   10  C   UNL     1     -41.540  59.121 -54.474  1.00  0.00     0.043 C 
HETATM   11  C   UNL     1     -41.990  58.113 -53.370  1.00  0.00     0.018 C 
HETATM   12  C   UNL     1     -42.080  56.682 -53.937  1.00  0.00     0.065 A 
HETATM   13  C   UNL     1     -43.142  56.729 -54.990  1.00  0.00     0.082 A 
HETATM   14  N   UNL     1     -44.195  56.006 -54.810  1.00  0.00    -0.203 NA
HETATM   15  C   UNL     1     -42.651  55.578 -53.041  1.00  0.00     0.121 A 
HETATM   16  N   UNL     1     -43.979  55.335 -53.649  1.00  0.00    -0.207 NA
HETATM   17  C   UNL     1     -42.955  59.126 -59.318  1.00  0.00     0.031 A 
HETATM   18  C   UNL     1     -42.296  60.289 -59.732  1.00  0.00     0.009 A 
HETATM   19  H   UNL     1     -44.738  55.469 -52.980  1.00  0.00     0.149 HD
ENDROOT
BRANCH  15  20
HETATM   20  C   UNL     1     -41.793  54.311 -53.051  1.00  0.00    -0.038 A 
HETATM   21  C   UNL     1     -41.039  53.936 -51.925  1.00  0.00     0.011 A 
HETATM   22  C   UNL     1     -40.168  52.839 -51.969  1.00  0.00     0.037 A 
HETATM   23  C   UNL     1     -40.061  52.081 -53.132  1.00  0.00     0.068 A 
HETATM   24  C   UNL     1     -40.877  52.372 -54.221  1.00  0.00     0.037 A 
HETATM   25  C   UNL     1     -41.732  53.477 -54.183  1.00  0.00     0.011 A 
BRANCH  23  26
HETATM   26  O   UNL     1     -39.218  51.014 -53.276  1.00  0.00    -0.356 OA
HETATM   27  C   UNL     1     -39.703  50.030 -54.188  1.00  0.00     0.210 C 
ENDBRANCH  23  26
ENDBRANCH  15  20
TORSDOF 2
ENDMDL
MODEL 4
REMARK VINA RESULT:      -8.2     15.186     17.994
REMARK  2 active torsions:
REMARK  status: ('A' for Active; 'I' for Inactive)
REMARK    1  A    between atoms: C_15  and  C_16 
REMARK    2  A    between atoms: C_19  and  O_20 
ROOT
HETATM    1  C   UNL     1     -32.872  38.419 -47.972  1.00  0.00     0.048 C 
HETATM    2  C   UNL     1     -33.047  39.199 -49.243  1.00  0.00    -0.061 A 
HETATM    3  C   UNL     1     -34.328  39.346 -49.802  1.00  0.00     0.021 A 
HETATM    4  C   UNL     1     -34.489  40.051 -51.010  1.00  0.00    -0.000 A 
HETATM    5  C   UNL     1     -33.358  40.604 -51.619  1.00  0.00     0.043 A 
HETATM    6  N   UNL     1     -33.777  41.265 -52.756  1.00  0.00    -0.353 N 
HETATM    7  H   UNL     1     -33.179  41.760 -53.403  1.00  0.00     0.166 HD
HETATM    8  C   UNL     1     -35.109  41.053 -52.929  1.00  0.00     0.066 A 
HETATM    9  C   UNL     1     -35.600  40.344 -51.848  1.00  0.00    -0.017 A 
HETATM   10  C   UNL     1     -37.051  39.963 -51.738  1.00  0.00     0.043 C 
HETATM   11  C   UNL     1     -37.917  40.607 -52.866  1.00  0.00     0.018 C 
HETATM   12  C   UNL     1     -37.165  40.585 -54.213  1.00  0.00     0.065 A 
HETATM   13  C   UNL     1     -35.948  41.433 -54.013  1.00  0.00     0.082 A 
HETATM   14  N   UNL     1     -35.837  42.498 -54.731  1.00  0.00    -0.203 NA
HETATM   15  C   UNL     1     -37.792  41.311 -55.408  1.00  0.00     0.121 A 
HETATM   16  N   UNL     1     -36.923  42.500 -55.546  1.00  0.00    -0.207 NA
HETATM   17  C   UNL     1     -32.070  40.448 -51.098  1.00  0.00     0.031 A 
HETATM   18  C   UNL     1     -31.936  39.728 -49.906  1.00  0.00     0.009 A 
HETATM   19  H   UNL     1     -37.452  43.372 -55.481  1.00  0.00     0.149 HD
ENDROOT
BRANCH  15  20
HETATM   20  C   UNL     1     -37.782  40.461 -56.682  1.00  0.00    -0.038 A 
HETATM   21  C   UNL     1     -37.419  39.103 -56.645  1.00  0.00     0.011 A 
HETATM   22  C   UNL     1     -37.302  38.353 -57.822  1.00  0.00     0.037 A 
HETATM   23  C   UNL     1     -37.576  38.942 -59.053  1.00  0.00     0.068 A 
HETATM   24  C   UNL     1     -38.039  40.253 -59.101  1.00  0.00     0.037 A 
HETATM   25  C   UNL     1     -38.138  41.007 -57.928  1.00  0.00     0.011 A 
BRANCH  23  26
HETATM   26  O   UNL     1     -37.461  38.297 -60.254  1.00  0.00    -0.356 OA
HETATM   27  C   UNL     1     -37.415  39.184 -61.370  1.00  0.00     0.210 C 
ENDBRANCH  23  26
ENDBRANCH  15  20
TORSDOF 2
ENDMDL
MODEL 5
REMARK VINA RESULT:      -7.9      4.756      8.116
REMARK  2 active torsions:
REMARK  status: ('A' for Active; 'I' for Inactive)
REMARK    1  A    between atoms: C_15  and  C_16 
REMARK    2  A    between atoms: C_19  and  O_20 
ROOT
HETATM    1  C   UNL     1     -39.884  50.807 -52.384  1.00  0.00     0.048 C 
HETATM    2  C   UNL     1     -40.111  52.164 -52.986  1.00  0.00    -0.061 A 
HETATM    3  C   UNL     1     -40.345  53.269 -52.150  1.00  0.00     0.021 A 
HETATM    4  C   UNL     1     -40.589  54.536 -52.716  1.00  0.00    -0.000 A 
HETATM    5  C   UNL     1     -40.577  54.662 -54.109  1.00  0.00     0.043 A 
HETATM    6  N   UNL     1     -40.805  55.989 -54.409  1.00  0.00    -0.353 N 
HETATM    7  H   UNL     1     -40.856  56.382 -55.339  1.00  0.00     0.166 HD
HETATM    8  C   UNL     1     -41.062  56.670 -53.259  1.00  0.00     0.066 A 
HETATM    9  C   UNL     1     -40.895  55.818 -52.183  1.00  0.00    -0.017 A 
HETATM   10  C   UNL     1     -41.094  56.279 -50.764  1.00  0.00     0.043 C 
HETATM   11  C   UNL     1     -41.324  57.821 -50.673  1.00  0.00     0.018 C 
HETATM   12  C   UNL     1     -42.223  58.310 -51.826  1.00  0.00     0.065 A 
HETATM   13  C   UNL     1     -41.464  58.022 -53.084  1.00  0.00     0.082 A 
HETATM   14  N   UNL     1     -41.119  59.025 -53.817  1.00  0.00    -0.203 NA
HETATM   15  C   UNL     1     -42.438  59.818 -51.993  1.00  0.00     0.121 A 
HETATM   16  N   UNL     1     -41.632  60.120 -53.197  1.00  0.00    -0.207 NA
HETATM   17  C   UNL     1     -40.375  53.573 -54.962  1.00  0.00     0.031 A 
HETATM   18  C   UNL     1     -40.153  52.322 -54.375  1.00  0.00     0.009 A 
HETATM   19  H   UNL     1     -40.920  60.828 -53.016  1.00  0.00     0.149 HD
ENDROOT
BRANCH  15  20
HETATM   20  C   UNL     1     -43.910  60.182 -52.200  1.00  0.00    -0.038 A 
HETATM   21  C   UNL     1     -44.309  61.020 -53.257  1.00  0.00     0.011 A 
HETATM   22  C   UNL     1     -45.639  61.442 -53.384  1.00  0.00     0.037 A 
HETATM   23  C   UNL     1     -46.597  61.008 -52.471  1.00  0.00     0.068 A 
HETATM   24  C   UNL     1     -46.243  60.096 -51.483  1.00  0.00     0.037 A 
HETATM   25  C   UNL     1     -44.913  59.689 -51.346  1.00  0.00     0.011 A 
BRANCH  23  26
HETATM   26  O   UNL     1     -47.910  61.391 -52.500  1.00  0.00    -0.356 OA
HETATM   27  C   UNL     1     -48.164  62.472 -53.395  1.00  0.00     0.210 C 
ENDBRANCH  23  26
ENDBRANCH  15  20
TORSDOF 2
ENDMDL
MODEL 6
REMARK VINA RESULT:      -7.8      1.812      2.239
REMARK  2 active torsions:
REMARK  status: ('A' for Active; 'I' for Inactive)
REMARK    1  A    between atoms: C_15  and  C_16 
REMARK    2  A    between atoms: C_19  and  O_20 
ROOT
HETATM    1  C   UNL     1     -42.065  60.828 -60.666  1.00  0.00     0.048 C 
HETATM    2  C   UNL     1     -42.229  59.539 -59.912  1.00  0.00    -0.061 A 
HETATM    3  C   UNL     1     -42.739  59.555 -58.602  1.00  0.00     0.021 A 
HETATM    4  C   UNL     1     -42.865  58.350 -57.884  1.00  0.00    -0.000 A 
HETATM    5  C   UNL     1     -42.486  57.156 -58.506  1.00  0.00     0.043 A 
HETATM    6  N   UNL     1     -42.733  56.128 -57.620  1.00  0.00    -0.353 N 
HETATM    7  H   UNL     1     -42.554  55.148 -57.792  1.00  0.00     0.166 HD
HETATM    8  C   UNL     1     -43.151  56.650 -56.436  1.00  0.00     0.066 A 
HETATM    9  C   UNL     1     -43.290  58.019 -56.568  1.00  0.00    -0.017 A 
HETATM   10  C   UNL     1     -43.753  58.887 -55.429  1.00  0.00     0.043 C 
HETATM   11  C   UNL     1     -44.209  58.045 -54.196  1.00  0.00     0.018 C 
HETATM   12  C   UNL     1     -43.272  56.840 -53.978  1.00  0.00     0.065 A 
HETATM   13  C   UNL     1     -43.409  55.991 -55.203  1.00  0.00     0.082 A 
HETATM   14  N   UNL     1     -43.880  54.800 -55.054  1.00  0.00    -0.203 NA
HETATM   15  C   UNL     1     -43.645  55.811 -52.906  1.00  0.00     0.121 A 
HETATM   16  N   UNL     1     -44.078  54.653 -53.718  1.00  0.00    -0.207 NA
HETATM   17  C   UNL     1     -41.950  57.117 -59.797  1.00  0.00     0.031 A 
HETATM   18  C   UNL     1     -41.819  58.330 -60.482  1.00  0.00     0.009 A 
HETATM   19  H   UNL     1     -45.034  54.367 -53.501  1.00  0.00     0.149 HD
ENDROOT
BRANCH  15  20
HETATM   20  C   UNL     1     -42.464  55.449 -52.002  1.00  0.00    -0.038 A 
HETATM   21  C   UNL     1     -41.626  54.361 -52.304  1.00  0.00     0.011 A 
HETATM   22  C   UNL     1     -40.613  53.961 -51.423  1.00  0.00     0.037 A 
HETATM   23  C   UNL     1     -40.403  54.664 -50.240  1.00  0.00     0.068 A 
HETATM   24  C   UNL     1     -41.150  55.806 -49.974  1.00  0.00     0.037 A 
HETATM   25  C   UNL     1     -42.173  56.194 -50.845  1.00  0.00     0.011 A 
BRANCH  23  26
HETATM   26  O   UNL     1     -39.458  54.329 -49.308  1.00  0.00    -0.356 OA
HETATM   27  C   UNL     1     -40.014  53.969 -48.044  1.00  0.00     0.210 C 
ENDBRANCH  23  26
ENDBRANCH  15  20
TORSDOF 2
ENDMDL
MODEL 7
REMARK VINA RESULT:      -7.6      3.253      8.424
REMARK  2 active torsions:
REMARK  status: ('A' for Active; 'I' for Inactive)
REMARK    1  A    between atoms: C_15  and  C_16 
REMARK    2  A    between atoms: C_19  and  O_20 
ROOT
HETATM    1  C   UNL     1     -40.282  52.641 -50.104  1.00  0.00     0.048 C 
HETATM    2  C   UNL     1     -41.123  53.712 -50.737  1.00  0.00    -0.061 A 
HETATM    3  C   UNL     1     -41.366  53.683 -52.122  1.00  0.00     0.021 A 
HETATM    4  C   UNL     1     -42.129  54.703 -52.721  1.00  0.00    -0.000 A 
HETATM    5  C   UNL     1     -42.642  55.721 -51.910  1.00  0.00     0.043 A 
HETATM    6  N   UNL     1     -43.372  56.569 -52.717  1.00  0.00    -0.353 N 
HETATM    7  H   UNL     1     -43.859  57.400 -52.410  1.00  0.00     0.166 HD
HETATM    8  C   UNL     1     -43.244  56.173 -54.013  1.00  0.00     0.066 A 
HETATM    9  C   UNL     1     -42.519  54.997 -54.057  1.00  0.00    -0.017 A 
HETATM   10  C   UNL     1     -42.217  54.295 -55.353  1.00  0.00     0.043 C 
HETATM   11  C   UNL     1     -42.957  54.950 -56.563  1.00  0.00     0.018 C 
HETATM   12  C   UNL     1     -42.948  56.487 -56.443  1.00  0.00     0.065 A 
HETATM   13  C   UNL     1     -43.716  56.802 -55.197  1.00  0.00     0.082 A 
HETATM   14  N   UNL     1     -44.803  57.485 -55.322  1.00  0.00    -0.203 NA
HETATM   15  C   UNL     1     -43.757  57.301 -57.459  1.00  0.00     0.121 A 
HETATM   16  N   UNL     1     -44.900  57.773 -56.646  1.00  0.00    -0.207 NA
HETATM   17  C   UNL     1     -42.391  55.788 -50.536  1.00  0.00     0.031 A 
HETATM   18  C   UNL     1     -41.615  54.771 -49.969  1.00  0.00     0.009 A 
HETATM   19  H   UNL     1     -45.797  57.480 -57.037  1.00  0.00     0.149 HD
ENDROOT
BRANCH  15  20
HETATM   20  C   UNL     1     -42.962  58.474 -58.037  1.00  0.00    -0.038 A 
HETATM   21  C   UNL     1     -42.337  59.413 -57.197  1.00  0.00     0.011 A 
HETATM   22  C   UNL     1     -41.703  60.546 -57.722  1.00  0.00     0.037 A 
HETATM   23  C   UNL     1     -41.658  60.742 -59.099  1.00  0.00     0.068 A 
HETATM   24  C   UNL     1     -42.176  59.773 -59.951  1.00  0.00     0.037 A 
HETATM   25  C   UNL     1     -42.825  58.651 -59.426  1.00  0.00     0.011 A 
BRANCH  23  26
HETATM   26  O   UNL     1     -41.087  61.831 -59.699  1.00  0.00    -0.356 OA
HETATM   27  C   UNL     1     -40.150  62.509 -58.865  1.00  0.00     0.210 C 
ENDBRANCH  23  26
ENDBRANCH  15  20
TORSDOF 2
ENDMDL
MODEL 8
REMARK VINA RESULT:      -7.5     15.496     18.388
REMARK  2 active torsions:
REMARK  status: ('A' for Active; 'I' for Inactive)
REMARK    1  A    between atoms: C_15  and  C_16 
REMARK    2  A    between atoms: C_19  and  O_20 
ROOT
HETATM    1  C   UNL     1     -35.404  42.281 -52.453  1.00  0.00     0.048 C 
HETATM    2  C   UNL     1     -35.321  41.331 -53.613  1.00  0.00    -0.061 A 
HETATM    3  C   UNL     1     -35.808  41.721 -54.872  1.00  0.00     0.021 A 
HETATM    4  C   UNL     1     -35.759  40.820 -55.953  1.00  0.00    -0.000 A 
HETATM    5  C   UNL     1     -35.208  39.551 -55.743  1.00  0.00     0.043 A 
HETATM    6  N   UNL     1     -35.243  38.877 -56.946  1.00  0.00    -0.353 N 
HETATM    7  H   UNL     1     -34.916  37.933 -57.102  1.00  0.00     0.166 HD
HETATM    8  C   UNL     1     -35.890  39.641 -57.867  1.00  0.00     0.066 A 
HETATM    9  C   UNL     1     -36.188  40.870 -57.308  1.00  0.00    -0.017 A 
HETATM   10  C   UNL     1     -36.895  41.948 -58.083  1.00  0.00     0.043 C 
HETATM   11  C   UNL     1     -37.072  41.571 -59.588  1.00  0.00     0.018 C 
HETATM   12  C   UNL     1     -37.437  40.081 -59.740  1.00  0.00     0.065 A 
HETATM   13  C   UNL     1     -36.267  39.319 -59.200  1.00  0.00     0.082 A 
HETATM   14  N   UNL     1     -35.623  38.555 -60.015  1.00  0.00    -0.203 NA
HETATM   15  C   UNL     1     -37.503  39.488 -61.152  1.00  0.00     0.121 A 
HETATM   16  N   UNL     1     -36.284  38.649 -61.198  1.00  0.00    -0.207 NA
HETATM   17  C   UNL     1     -34.743  39.129 -54.493  1.00  0.00     0.031 A 
HETATM   18  C   UNL     1     -34.820  40.039 -53.433  1.00  0.00     0.009 A 
HETATM   19  H   UNL     1     -35.665  38.914 -61.965  1.00  0.00     0.149 HD
ENDROOT
BRANCH  15  20
HETATM   20  C   UNL     1     -38.765  38.652 -61.378  1.00  0.00    -0.038 A 
HETATM   21  C   UNL     1     -39.058  38.107 -62.641  1.00  0.00     0.011 A 
HETATM   22  C   UNL     1     -40.264  37.436 -62.878  1.00  0.00     0.037 A 
HETATM   23  C   UNL     1     -41.184  37.272 -61.846  1.00  0.00     0.068 A 
HETATM   24  C   UNL     1     -40.866  37.710 -60.565  1.00  0.00     0.037 A 
HETATM   25  C   UNL     1     -39.670  38.396 -60.333  1.00  0.00     0.011 A 
BRANCH  23  26
HETATM   26  O   UNL     1     -42.397  36.658 -61.992  1.00  0.00    -0.356 OA
HETATM   27  C   UNL     1     -43.049  36.976 -63.220  1.00  0.00     0.210 C 
ENDBRANCH  23  26
ENDBRANCH  15  20
TORSDOF 2
ENDMDL
MODEL 9
REMARK VINA RESULT:      -7.5      4.244      6.181
REMARK  2 active torsions:
REMARK  status: ('A' for Active; 'I' for Inactive)
REMARK    1  A    between atoms: C_15  and  C_16 
REMARK    2  A    between atoms: C_19  and  O_20 
ROOT
HETATM    1  C   UNL     1     -44.401  54.661 -60.433  1.00  0.00     0.048 C 
HETATM    2  C   UNL     1     -43.901  55.801 -59.594  1.00  0.00    -0.061 A 
HETATM    3  C   UNL     1     -43.546  55.579 -58.252  1.00  0.00     0.021 A 
HETATM    4  C   UNL     1     -43.106  56.654 -57.456  1.00  0.00    -0.000 A 
HETATM    5  C   UNL     1     -43.022  57.926 -58.033  1.00  0.00     0.043 A 
HETATM    6  N   UNL     1     -42.540  58.789 -57.071  1.00  0.00    -0.353 N 
HETATM    7  H   UNL     1     -42.377  59.779 -57.197  1.00  0.00     0.166 HD
HETATM    8  C   UNL     1     -42.423  58.123 -55.891  1.00  0.00     0.066 A 
HETATM    9  C   UNL     1     -42.720  56.788 -56.094  1.00  0.00    -0.017 A 
HETATM   10  C   UNL     1     -42.668  55.781 -54.976  1.00  0.00     0.043 C 
HETATM   11  C   UNL     1     -42.080  56.389 -53.664  1.00  0.00     0.018 C 
HETATM   12  C   UNL     1     -42.597  57.826 -53.447  1.00  0.00     0.065 A 
HETATM   13  C   UNL     1     -42.081  58.622 -54.605  1.00  0.00     0.082 A 
HETATM   14  N   UNL     1     -41.269  59.590 -54.349  1.00  0.00    -0.203 NA
HETATM   15  C   UNL     1     -42.012  58.643 -52.290  1.00  0.00     0.121 A 
HETATM   16  N   UNL     1     -41.157  59.623 -52.996  1.00  0.00    -0.207 NA
HETATM   17  C   UNL     1     -43.396  58.178 -59.357  1.00  0.00     0.031 A 
HETATM   18  C   UNL     1     -43.846  57.095 -60.121  1.00  0.00     0.009 A 
HETATM   19  H   UNL     1     -40.185  59.575 -52.689  1.00  0.00     0.149 HD
ENDROOT
BRANCH  15  20
HETATM   20  C   UNL     1     -43.093  59.342 -51.460  1.00  0.00    -0.038 A 
HETATM   21  C   UNL     1     -42.802  60.498 -50.715  1.00  0.00     0.011 A 
HETATM   22  C   UNL     1     -43.759  61.075 -49.870  1.00  0.00     0.037 A 
HETATM   23  C   UNL     1     -45.032  60.520 -49.780  1.00  0.00     0.068 A 
HETATM   24  C   UNL     1     -45.372  59.441 -50.588  1.00  0.00     0.037 A 
HETATM   25  C   UNL     1     -44.412  58.854 -51.417  1.00  0.00     0.011 A 
BRANCH  23  26
HETATM   26  O   UNL     1     -46.019  60.997 -48.961  1.00  0.00    -0.356 OA
HETATM   27  C   UNL     1     -45.643  61.036 -47.586  1.00  0.00     0.210 C 
ENDBRANCH  23  26
ENDBRANCH  15  20
TORSDOF 2
ENDMDL
MODEL 10
REMARK VINA RESULT:      -7.4      2.155      2.475
REMARK  2 active torsions:
REMARK  status: ('A' for Active; 'I' for Inactive)
REMARK    1  A    between atoms: C_15  and  C_16 
REMARK    2  A    between atoms: C_19  and  O_20 
ROOT
HETATM    1  C   UNL     1     -42.365  61.426 -58.598  1.00  0.00     0.048 C 
HETATM    2  C   UNL     1     -42.897  60.437 -57.601  1.00  0.00    -0.061 A 
HETATM    3  C   UNL     1     -42.155  60.141 -56.445  1.00  0.00     0.021 A 
HETATM    4  C   UNL     1     -42.639  59.190 -55.525  1.00  0.00    -0.000 A 
HETATM    5  C   UNL     1     -43.866  58.570 -55.785  1.00  0.00     0.043 A 
HETATM    6  N   UNL     1     -44.133  57.718 -54.733  1.00  0.00    -0.353 N 
HETATM    7  H   UNL     1     -44.951  57.130 -54.645  1.00  0.00     0.166 HD
HETATM    8  C   UNL     1     -43.069  57.707 -53.885  1.00  0.00     0.066 A 
HETATM    9  C   UNL     1     -42.140  58.638 -54.313  1.00  0.00    -0.017 A 
HETATM   10  C   UNL     1     -40.852  58.875 -53.574  1.00  0.00     0.043 C 
HETATM   11  C   UNL     1     -40.797  58.096 -52.222  1.00  0.00     0.018 C 
HETATM   12  C   UNL     1     -41.404  56.687 -52.376  1.00  0.00     0.065 A 
HETATM   13  C   UNL     1     -42.841  56.901 -52.737  1.00  0.00     0.082 A 
HETATM   14  N   UNL     1     -43.734  56.467 -51.915  1.00  0.00    -0.203 NA
HETATM   15  C   UNL     1     -41.578  55.827 -51.120  1.00  0.00     0.121 A 
HETATM   16  N   UNL     1     -43.043  55.859 -50.916  1.00  0.00    -0.207 NA
HETATM   17  C   UNL     1     -44.609  58.827 -56.941  1.00  0.00     0.031 A 
HETATM   18  C   UNL     1     -44.097  59.762 -57.847  1.00  0.00     0.009 A 
HETATM   19  H   UNL     1     -43.295  56.224 -49.997  1.00  0.00     0.149 HD
ENDROOT
BRANCH  15  20
HETATM   20  C   UNL     1     -41.072  54.395 -51.315  1.00  0.00    -0.038 A 
HETATM   21  C   UNL     1     -40.892  53.533 -50.219  1.00  0.00     0.011 A 
HETATM   22  C   UNL     1     -40.327  52.262 -50.382  1.00  0.00     0.037 A 
HETATM   23  C   UNL     1     -39.961  51.821 -51.651  1.00  0.00     0.068 A 
HETATM   24  C   UNL     1     -40.230  52.615 -52.760  1.00  0.00     0.037 A 
HETATM   25  C   UNL     1     -40.776  53.891 -52.595  1.00  0.00     0.011 A 
BRANCH  23  26
HETATM   26  O   UNL     1     -39.377  50.609 -51.902  1.00  0.00    -0.356 OA
HETATM   27  C   UNL     1     -39.334  49.755 -50.761  1.00  0.00     0.210 C 
ENDBRANCH  23  26
ENDBRANCH  15  20
TORSDOF 2
ENDMDL
