MODEL 1
REMARK VINA RESULT:      -8.3      0.000      0.000
REMARK  7 active torsions:
REMARK  status: ('A' for Active; 'I' for Inactive)
REMARK    1  A    between atoms: C_2  and  C_3 
REMARK    2  A    between atoms: C_6  and  O_7 
REMARK    3  A    between atoms: O_7  and  C_8 
REMARK    4  A    between atoms: C_8  and  C_9 
REMARK    5  A    between atoms: C_9  and  C_10 
REMARK       I    between atoms: C_10  and  N_11 
REMARK    6  A    between atoms: N_11  and  C_12 
REMARK    7  A    between atoms: C_19  and  C_20 
REMARK       I    between atoms: C_20  and  N_21 
ROOT
HETATM    1  C   UNL     1     -43.727  57.506 -53.895  1.00  0.00     0.224 C 
HETATM    2  N   UNL     1     -42.745  57.153 -54.801  1.00  0.00    -0.327 N 
HETATM    3  O   UNL     1     -44.797  58.045 -54.157  1.00  0.00    -0.273 OA
HETATM    4  H   UNL     1     -41.878  56.798 -54.403  1.00  0.00     0.169 HD
ENDROOT
BRANCH   2   5
HETATM    5  C   UNL     1     -42.766  57.308 -56.202  1.00  0.00     0.035 A 
HETATM    6  C   UNL     1     -43.329  56.370 -57.078  1.00  0.00     0.046 A 
HETATM    7  C   UNL     1     -43.281  56.604 -58.470  1.00  0.00     0.030 A 
HETATM    8  C   UNL     1     -42.694  57.774 -58.934  1.00  0.00     0.063 A 
HETATM    9  C   UNL     1     -43.691  55.906 -59.646  1.00  0.00     0.156 A 
HETATM   10  N   UNL     1     -42.812  57.725 -60.295  1.00  0.00    -0.277 N 
HETATM   11  C   UNL     1     -42.126  58.730 -58.089  1.00  0.00     0.034 A 
HETATM   12  H   UNL     1     -42.500  58.420 -60.963  1.00  0.00     0.189 HD
HETATM   13  N   UNL     1     -43.400  56.613 -60.763  1.00  0.00    -0.168 NA
HETATM   14  C   UNL     1     -42.164  58.464 -56.716  1.00  0.00     0.032 A 
BRANCH   9  15
HETATM   15  C   UNL     1     -44.334  54.587 -59.731  1.00  0.00     0.270 C 
HETATM   16  N   UNL     1     -44.970  54.351 -60.919  1.00  0.00    -0.365 N 
HETATM   17  H   UNL     1     -44.937  55.066 -61.637  1.00  0.00     0.159 HD
HETATM   18  H   UNL     1     -45.411  53.459 -61.079  1.00  0.00     0.159 HD
HETATM   19  O   UNL     1     -44.314  53.740 -58.845  1.00  0.00    -0.266 OA
ENDBRANCH   9  15
ENDBRANCH   2   5
BRANCH   1  20
HETATM   20  C   UNL     1     -43.399  57.128 -52.461  1.00  0.00     0.130 C 
BRANCH  20  21
HETATM   21  C   UNL     1     -42.875  55.704 -52.335  1.00  0.00     0.185 C 
BRANCH  21  22
HETATM   22  O   UNL     1     -41.485  55.722 -52.701  1.00  0.00    -0.351 OA
BRANCH  22  23
HETATM   23  C   UNL     1     -40.953  54.487 -52.945  1.00  0.00     0.068 A 
HETATM   24  C   UNL     1     -40.686  53.703 -51.825  1.00  0.00     0.037 A 
HETATM   25  C   UNL     1     -40.164  52.417 -51.976  1.00  0.00     0.010 A 
HETATM   26  C   UNL     1     -39.930  51.885 -53.252  1.00  0.00    -0.055 A 
HETATM   27  C   UNL     1     -40.224  52.680 -54.371  1.00  0.00     0.010 A 
HETATM   28  C   UNL     1     -40.737  53.973 -54.220  1.00  0.00     0.037 A 
BRANCH  26  29
HETATM   29  C   UNL     1     -39.363  50.490 -53.446  1.00  0.00     0.010 C 
HETATM   30  C   UNL     1     -39.892  49.820 -54.717  1.00  0.00     0.015 C 
HETATM   31  C   UNL     1     -39.632  49.616 -52.219  1.00  0.00     0.015 C 
ENDBRANCH  26  29
ENDBRANCH  22  23
ENDBRANCH  21  22
ENDBRANCH  20  21
ENDBRANCH   1  20
TORSDOF 7
ENDMDL
MODEL 2
REMARK VINA RESULT:      -7.9      1.614      3.099
REMARK  7 active torsions:
REMARK  status: ('A' for Active; 'I' for Inactive)
REMARK    1  A    between atoms: C_2  and  C_3 
REMARK    2  A    between atoms: C_6  and  O_7 
REMARK    3  A    between atoms: O_7  and  C_8 
REMARK    4  A    between atoms: C_8  and  C_9 
REMARK    5  A    between atoms: C_9  and  C_10 
REMARK       I    between atoms: C_10  and  N_11 
REMARK    6  A    between atoms: N_11  and  C_12 
REMARK    7  A    between atoms: C_19  and  C_20 
REMARK       I    between atoms: C_20  and  N_21 
ROOT
HETATM    1  C   UNL     1     -43.831  56.231 -54.456  1.00  0.00     0.224 C 
HETATM    2  N   UNL     1     -42.975  55.841 -55.468  1.00  0.00    -0.327 N 
HETATM    3  O   UNL     1     -44.641  57.151 -54.503  1.00  0.00    -0.273 OA
HETATM    4  H   UNL     1     -42.302  55.117 -55.229  1.00  0.00     0.169 HD
ENDROOT
BRANCH   2   5
HETATM    5  C   UNL     1     -42.861  56.388 -56.762  1.00  0.00     0.035 A 
HETATM    6  C   UNL     1     -42.474  57.711 -57.015  1.00  0.00     0.046 A 
HETATM    7  C   UNL     1     -42.411  58.174 -58.348  1.00  0.00     0.030 A 
HETATM    8  C   UNL     1     -42.715  57.295 -59.379  1.00  0.00     0.063 A 
HETATM    9  C   UNL     1     -42.109  59.411 -58.995  1.00  0.00     0.156 A 
HETATM   10  N   UNL     1     -42.552  58.014 -60.529  1.00  0.00    -0.277 N 
HETATM   11  C   UNL     1     -43.101  55.971 -59.162  1.00  0.00     0.034 A 
HETATM   12  H   UNL     1     -42.680  57.687 -61.480  1.00  0.00     0.189 HD
HETATM   13  N   UNL     1     -42.195  59.294 -60.341  1.00  0.00    -0.168 NA
HETATM   14  C   UNL     1     -43.180  55.542 -57.832  1.00  0.00     0.032 A 
BRANCH   9  15
HETATM   15  C   UNL     1     -41.759  60.693 -58.366  1.00  0.00     0.270 C 
HETATM   16  N   UNL     1     -42.371  61.778 -58.932  1.00  0.00    -0.365 N 
HETATM   17  H   UNL     1     -43.014  61.625 -59.701  1.00  0.00     0.159 HD
HETATM   18  H   UNL     1     -42.216  62.695 -58.545  1.00  0.00     0.159 HD
HETATM   19  O   UNL     1     -41.001  60.820 -57.411  1.00  0.00    -0.266 OA
ENDBRANCH   9  15
ENDBRANCH   2   5
BRANCH   1  20
HETATM   20  C   UNL     1     -43.732  55.370 -53.208  1.00  0.00     0.130 C 
BRANCH  20  21
HETATM   21  C   UNL     1     -42.650  55.849 -52.250  1.00  0.00     0.185 C 
BRANCH  21  22
HETATM   22  O   UNL     1     -41.387  55.701 -52.919  1.00  0.00    -0.351 OA
BRANCH  22  23
HETATM   23  C   UNL     1     -40.918  54.418 -52.955  1.00  0.00     0.068 A 
HETATM   24  C   UNL     1     -40.639  53.903 -54.219  1.00  0.00     0.037 A 
HETATM   25  C   UNL     1     -40.132  52.609 -54.354  1.00  0.00     0.010 A 
HETATM   26  C   UNL     1     -39.869  51.822 -53.224  1.00  0.00    -0.055 A 
HETATM   27  C   UNL     1     -40.136  52.363 -51.956  1.00  0.00     0.010 A 
HETATM   28  C   UNL     1     -40.654  53.656 -51.821  1.00  0.00     0.037 A 
BRANCH  26  29
HETATM   29  C   UNL     1     -39.319  50.412 -53.342  1.00  0.00     0.010 C 
HETATM   30  C   UNL     1     -39.817  49.697 -54.601  1.00  0.00     0.015 C 
HETATM   31  C   UNL     1     -39.641  49.593 -52.090  1.00  0.00     0.015 C 
ENDBRANCH  26  29
ENDBRANCH  22  23
ENDBRANCH  21  22
ENDBRANCH  20  21
ENDBRANCH   1  20
TORSDOF 7
ENDMDL
MODEL 3
REMARK VINA RESULT:      -7.9      3.367      7.265
REMARK  7 active torsions:
REMARK  status: ('A' for Active; 'I' for Inactive)
REMARK    1  A    between atoms: C_2  and  C_3 
REMARK    2  A    between atoms: C_6  and  O_7 
REMARK    3  A    between atoms: O_7  and  C_8 
REMARK    4  A    between atoms: C_8  and  C_9 
REMARK    5  A    between atoms: C_9  and  C_10 
REMARK       I    between atoms: C_10  and  N_11 
REMARK    6  A    between atoms: N_11  and  C_12 
REMARK    7  A    between atoms: C_19  and  C_20 
REMARK       I    between atoms: C_20  and  N_21 
ROOT
HETATM    1  C   UNL     1     -42.614  55.118 -56.388  1.00  0.00     0.224 C 
HETATM    2  N   UNL     1     -41.463  55.283 -55.640  1.00  0.00    -0.327 N 
HETATM    3  O   UNL     1     -43.474  54.261 -56.216  1.00  0.00    -0.273 OA
HETATM    4  H   UNL     1     -40.810  55.987 -55.977  1.00  0.00     0.169 HD
ENDROOT
BRANCH   2   5
HETATM    5  C   UNL     1     -41.044  54.535 -54.521  1.00  0.00     0.035 A 
HETATM    6  C   UNL     1     -40.674  53.185 -54.585  1.00  0.00     0.046 A 
HETATM    7  C   UNL     1     -40.289  52.514 -53.403  1.00  0.00     0.030 A 
HETATM    8  C   UNL     1     -40.267  53.220 -52.207  1.00  0.00     0.063 A 
HETATM    9  C   UNL     1     -39.893  51.187 -53.055  1.00  0.00     0.156 A 
HETATM   10  N   UNL     1     -39.847  52.324 -51.265  1.00  0.00    -0.277 N 
HETATM   11  C   UNL     1     -40.627  54.565 -52.109  1.00  0.00     0.034 A 
HETATM   12  H   UNL     1     -39.704  52.496 -50.276  1.00  0.00     0.189 HD
HETATM   13  N   UNL     1     -39.619  51.087 -51.733  1.00  0.00    -0.168 NA
HETATM   14  C   UNL     1     -41.028  55.202 -53.289  1.00  0.00     0.032 A 
BRANCH   9  15
HETATM   15  C   UNL     1     -39.787  50.019 -53.941  1.00  0.00     0.270 C 
HETATM   16  N   UNL     1     -40.915  49.768 -54.673  1.00  0.00    -0.365 N 
HETATM   17  H   UNL     1     -41.707  50.393 -54.571  1.00  0.00     0.159 HD
HETATM   18  H   UNL     1     -40.922  49.006 -55.332  1.00  0.00     0.159 HD
HETATM   19  O   UNL     1     -38.790  49.314 -54.054  1.00  0.00    -0.266 OA
ENDBRANCH   9  15
ENDBRANCH   2   5
BRANCH   1  20
HETATM   20  C   UNL     1     -42.781  56.153 -57.486  1.00  0.00     0.130 C 
BRANCH  20  21
HETATM   21  C   UNL     1     -42.555  57.575 -56.992  1.00  0.00     0.185 C 
BRANCH  21  22
HETATM   22  O   UNL     1     -43.502  57.820 -55.939  1.00  0.00    -0.351 OA
BRANCH  22  23
HETATM   23  C   UNL     1     -42.936  58.183 -54.749  1.00  0.00     0.068 A 
HETATM   24  C   UNL     1     -43.632  57.811 -53.601  1.00  0.00     0.037 A 
HETATM   25  C   UNL     1     -43.119  58.116 -52.339  1.00  0.00     0.010 A 
HETATM   26  C   UNL     1     -41.887  58.771 -52.207  1.00  0.00    -0.055 A 
HETATM   27  C   UNL     1     -41.187  59.121 -53.373  1.00  0.00     0.010 A 
HETATM   28  C   UNL     1     -41.706  58.825 -54.639  1.00  0.00     0.037 A 
BRANCH  26  29
HETATM   29  C   UNL     1     -41.305  59.115 -50.847  1.00  0.00     0.010 C 
HETATM   30  C   UNL     1     -41.867  60.427 -50.291  1.00  0.00     0.015 C 
HETATM   31  C   UNL     1     -39.776  59.159 -50.902  1.00  0.00     0.015 C 
ENDBRANCH  26  29
ENDBRANCH  22  23
ENDBRANCH  21  22
ENDBRANCH  20  21
ENDBRANCH   1  20
TORSDOF 7
ENDMDL
MODEL 4
REMARK VINA RESULT:      -7.9      1.809      2.124
REMARK  7 active torsions:
REMARK  status: ('A' for Active; 'I' for Inactive)
REMARK    1  A    between atoms: C_2  and  C_3 
REMARK    2  A    between atoms: C_6  and  O_7 
REMARK    3  A    between atoms: O_7  and  C_8 
REMARK    4  A    between atoms: C_8  and  C_9 
REMARK    5  A    between atoms: C_9  and  C_10 
REMARK       I    between atoms: C_10  and  N_11 
REMARK    6  A    between atoms: N_11  and  C_12 
REMARK    7  A    between atoms: C_19  and  C_20 
REMARK       I    between atoms: C_20  and  N_21 
ROOT
HETATM    1  C   UNL     1     -41.874  58.381 -53.551  1.00  0.00     0.224 C 
HETATM    2  N   UNL     1     -43.092  57.887 -53.976  1.00  0.00    -0.327 N 
HETATM    3  O   UNL     1     -41.117  59.100 -54.194  1.00  0.00    -0.273 OA
HETATM    4  H   UNL     1     -43.549  57.227 -53.351  1.00  0.00     0.169 HD
ENDROOT
BRANCH   2   5
HETATM    5  C   UNL     1     -43.735  58.117 -55.209  1.00  0.00     0.035 A 
HETATM    6  C   UNL     1     -43.592  57.284 -56.327  1.00  0.00     0.046 A 
HETATM    7  C   UNL     1     -44.260  57.611 -57.528  1.00  0.00     0.030 A 
HETATM    8  C   UNL     1     -45.064  58.744 -57.561  1.00  0.00     0.063 A 
HETATM    9  C   UNL     1     -44.339  57.064 -58.844  1.00  0.00     0.156 A 
HETATM   10  N   UNL     1     -45.578  58.786 -58.826  1.00  0.00    -0.277 N 
HETATM   11  C   UNL     1     -45.231  59.593 -56.466  1.00  0.00     0.034 A 
HETATM   12  H   UNL     1     -46.218  59.475 -59.206  1.00  0.00     0.189 HD
HETATM   13  N   UNL     1     -45.161  57.796 -59.632  1.00  0.00    -0.168 NA
HETATM   14  C   UNL     1     -44.539  59.261 -55.295  1.00  0.00     0.032 A 
BRANCH   9  15
HETATM   15  C   UNL     1     -43.645  55.879 -59.368  1.00  0.00     0.270 C 
HETATM   16  N   UNL     1     -44.324  54.705 -59.182  1.00  0.00    -0.365 N 
HETATM   17  H   UNL     1     -45.231  54.737 -58.730  1.00  0.00     0.159 HD
HETATM   18  H   UNL     1     -43.940  53.845 -59.538  1.00  0.00     0.159 HD
HETATM   19  O   UNL     1     -42.562  55.898 -59.941  1.00  0.00    -0.266 OA
ENDBRANCH   9  15
ENDBRANCH   2   5
BRANCH   1  20
HETATM   20  C   UNL     1     -41.518  57.984 -52.129  1.00  0.00     0.130 C 
BRANCH  20  21
HETATM   21  C   UNL     1     -41.476  56.474 -51.934  1.00  0.00     0.185 C 
BRANCH  21  22
HETATM   22  O   UNL     1     -41.293  55.878 -53.229  1.00  0.00    -0.351 OA
BRANCH  22  23
HETATM   23  C   UNL     1     -40.858  54.582 -53.193  1.00  0.00     0.068 A 
HETATM   24  C   UNL     1     -40.664  53.967 -54.428  1.00  0.00     0.037 A 
HETATM   25  C   UNL     1     -40.197  52.653 -54.492  1.00  0.00     0.010 A 
HETATM   26  C   UNL     1     -39.889  51.946 -53.322  1.00  0.00    -0.055 A 
HETATM   27  C   UNL     1     -40.070  52.586 -52.086  1.00  0.00     0.010 A 
HETATM   28  C   UNL     1     -40.548  53.900 -52.021  1.00  0.00     0.037 A 
BRANCH  26  29
HETATM   29  C   UNL     1     -39.380  50.515 -53.363  1.00  0.00     0.010 C 
HETATM   30  C   UNL     1     -39.900  49.749 -54.582  1.00  0.00     0.015 C 
HETATM   31  C   UNL     1     -39.725  49.776 -52.068  1.00  0.00     0.015 C 
ENDBRANCH  26  29
ENDBRANCH  22  23
ENDBRANCH  21  22
ENDBRANCH  20  21
ENDBRANCH   1  20
TORSDOF 7
ENDMDL
MODEL 5
REMARK VINA RESULT:      -7.8      3.118      7.744
REMARK  7 active torsions:
REMARK  status: ('A' for Active; 'I' for Inactive)
REMARK    1  A    between atoms: C_2  and  C_3 
REMARK    2  A    between atoms: C_6  and  O_7 
REMARK    3  A    between atoms: O_7  and  C_8 
REMARK    4  A    between atoms: C_8  and  C_9 
REMARK    5  A    between atoms: C_9  and  C_10 
REMARK       I    between atoms: C_10  and  N_11 
REMARK    6  A    between atoms: N_11  and  C_12 
REMARK    7  A    between atoms: C_19  and  C_20 
REMARK       I    between atoms: C_20  and  N_21 
ROOT
HETATM    1  C   UNL     1     -42.692  54.764 -56.222  1.00  0.00     0.224 C 
HETATM    2  N   UNL     1     -41.530  54.897 -55.484  1.00  0.00    -0.327 N 
HETATM    3  O   UNL     1     -43.559  53.911 -56.064  1.00  0.00    -0.273 OA
HETATM    4  H   UNL     1     -40.874  55.603 -55.809  1.00  0.00     0.169 HD
ENDROOT
BRANCH   2   5
HETATM    5  C   UNL     1     -41.107  54.113 -54.392  1.00  0.00     0.035 A 
HETATM    6  C   UNL     1     -41.350  54.452 -53.053  1.00  0.00     0.046 A 
HETATM    7  C   UNL     1     -40.865  53.613 -52.026  1.00  0.00     0.030 A 
HETATM    8  C   UNL     1     -40.176  52.457 -52.372  1.00  0.00     0.063 A 
HETATM    9  C   UNL     1     -40.871  53.625 -50.598  1.00  0.00     0.156 A 
HETATM   10  N   UNL     1     -39.854  51.858 -51.187  1.00  0.00    -0.277 N 
HETATM   11  C   UNL     1     -39.919  52.090 -53.694  1.00  0.00     0.034 A 
HETATM   12  H   UNL     1     -39.355  50.985 -51.056  1.00  0.00     0.189 HD
HETATM   13  N   UNL     1     -40.249  52.533 -50.095  1.00  0.00    -0.168 NA
HETATM   14  C   UNL     1     -40.388  52.949 -54.694  1.00  0.00     0.032 A 
BRANCH   9  15
HETATM   15  C   UNL     1     -41.437  54.650 -49.710  1.00  0.00     0.270 C 
HETATM   16  N   UNL     1     -40.890  54.667 -48.456  1.00  0.00    -0.365 N 
HETATM   17  H   UNL     1     -40.148  54.010 -48.242  1.00  0.00     0.159 HD
HETATM   18  H   UNL     1     -41.194  55.359 -47.789  1.00  0.00     0.159 HD
HETATM   19  O   UNL     1     -42.312  55.448 -50.029  1.00  0.00    -0.266 OA
ENDBRANCH   9  15
ENDBRANCH   2   5
BRANCH   1  20
HETATM   20  C   UNL     1     -42.861  55.830 -57.290  1.00  0.00     0.130 C 
BRANCH  20  21
HETATM   21  C   UNL     1     -42.699  57.241 -56.741  1.00  0.00     0.185 C 
BRANCH  21  22
HETATM   22  O   UNL     1     -43.558  57.358 -55.594  1.00  0.00    -0.351 OA
BRANCH  22  23
HETATM   23  C   UNL     1     -42.930  57.810 -54.467  1.00  0.00     0.068 A 
HETATM   24  C   UNL     1     -43.650  57.701 -53.279  1.00  0.00     0.037 A 
HETATM   25  C   UNL     1     -43.081  58.114 -52.073  1.00  0.00     0.010 A 
HETATM   26  C   UNL     1     -41.772  58.613 -52.033  1.00  0.00    -0.055 A 
HETATM   27  C   UNL     1     -41.052  58.697 -53.236  1.00  0.00     0.010 A 
HETATM   28  C   UNL     1     -41.625  58.293 -54.447  1.00  0.00     0.037 A 
BRANCH  26  29
HETATM   29  C   UNL     1     -41.128  59.069 -50.736  1.00  0.00     0.010 C 
HETATM   30  C   UNL     1     -41.766  60.350 -50.190  1.00  0.00     0.015 C 
HETATM   31  C   UNL     1     -39.618  59.245 -50.907  1.00  0.00     0.015 C 
ENDBRANCH  26  29
ENDBRANCH  22  23
ENDBRANCH  21  22
ENDBRANCH  20  21
ENDBRANCH   1  20
TORSDOF 7
ENDMDL
MODEL 6
REMARK VINA RESULT:      -7.6      3.407      7.928
REMARK  7 active torsions:
REMARK  status: ('A' for Active; 'I' for Inactive)
REMARK    1  A    between atoms: C_2  and  C_3 
REMARK    2  A    between atoms: C_6  and  O_7 
REMARK    3  A    between atoms: O_7  and  C_8 
REMARK    4  A    between atoms: C_8  and  C_9 
REMARK    5  A    between atoms: C_9  and  C_10 
REMARK       I    between atoms: C_10  and  N_11 
REMARK    6  A    between atoms: N_11  and  C_12 
REMARK    7  A    between atoms: C_19  and  C_20 
REMARK       I    between atoms: C_20  and  N_21 
ROOT
HETATM    1  C   UNL     1     -41.205  58.824 -53.849  1.00  0.00     0.224 C 
HETATM    2  N   UNL     1     -41.868  57.613 -53.918  1.00  0.00    -0.327 N 
HETATM    3  O   UNL     1     -40.106  59.022 -53.343  1.00  0.00    -0.273 OA
HETATM    4  H   UNL     1     -42.815  57.643 -54.290  1.00  0.00     0.169 HD
ENDROOT
BRANCH   2   5
HETATM    5  C   UNL     1     -41.426  56.358 -53.452  1.00  0.00     0.035 A 
HETATM    6  C   UNL     1     -41.366  56.010 -52.096  1.00  0.00     0.046 A 
HETATM    7  C   UNL     1     -40.887  54.734 -51.726  1.00  0.00     0.030 A 
HETATM    8  C   UNL     1     -40.507  53.845 -52.724  1.00  0.00     0.063 A 
HETATM    9  C   UNL     1     -40.647  54.039 -50.502  1.00  0.00     0.156 A 
HETATM   10  N   UNL     1     -40.112  52.713 -52.070  1.00  0.00    -0.277 N 
HETATM   11  C   UNL     1     -40.557  54.158 -54.083  1.00  0.00     0.034 A 
HETATM   12  H   UNL     1     -39.779  51.850 -52.484  1.00  0.00     0.189 HD
HETATM   13  N   UNL     1     -40.174  52.792 -50.731  1.00  0.00    -0.168 NA
HETATM   14  C   UNL     1     -41.012  55.437 -54.424  1.00  0.00     0.032 A 
BRANCH   9  15
HETATM   15  C   UNL     1     -40.841  54.537 -49.133  1.00  0.00     0.270 C 
HETATM   16  N   UNL     1     -40.536  53.625 -48.159  1.00  0.00    -0.365 N 
HETATM   17  H   UNL     1     -40.193  52.714 -48.439  1.00  0.00     0.159 HD
HETATM   18  H   UNL     1     -40.608  53.890 -47.190  1.00  0.00     0.159 HD
HETATM   19  O   UNL     1     -41.225  55.665 -48.846  1.00  0.00    -0.266 OA
ENDBRANCH   9  15
ENDBRANCH   2   5
BRANCH   1  20
HETATM   20  C   UNL     1     -41.951  59.966 -54.517  1.00  0.00     0.130 C 
BRANCH  20  21
HETATM   21  C   UNL     1     -42.851  59.495 -55.651  1.00  0.00     0.185 C 
BRANCH  21  22
HETATM   22  O   UNL     1     -42.000  59.053 -56.722  1.00  0.00    -0.351 OA
BRANCH  22  23
HETATM   23  C   UNL     1     -42.618  58.242 -57.632  1.00  0.00     0.068 A 
HETATM   24  C   UNL     1     -42.709  56.895 -57.290  1.00  0.00     0.037 A 
HETATM   25  C   UNL     1     -43.345  55.994 -58.146  1.00  0.00     0.010 A 
HETATM   26  C   UNL     1     -43.928  56.434 -59.342  1.00  0.00    -0.055 A 
HETATM   27  C   UNL     1     -43.846  57.799 -59.663  1.00  0.00     0.010 A 
HETATM   28  C   UNL     1     -43.199  58.700 -58.810  1.00  0.00     0.037 A 
BRANCH  26  29
HETATM   29  C   UNL     1     -44.626  55.477 -60.292  1.00  0.00     0.010 C 
HETATM   30  C   UNL     1     -46.038  55.947 -60.656  1.00  0.00     0.015 C 
HETATM   31  C   UNL     1     -44.657  54.060 -59.715  1.00  0.00     0.015 C 
ENDBRANCH  26  29
ENDBRANCH  22  23
ENDBRANCH  21  22
ENDBRANCH  20  21
ENDBRANCH   1  20
TORSDOF 7
ENDMDL
MODEL 7
REMARK VINA RESULT:      -7.5      3.384      7.383
REMARK  7 active torsions:
REMARK  status: ('A' for Active; 'I' for Inactive)
REMARK    1  A    between atoms: C_2  and  C_3 
REMARK    2  A    between atoms: C_6  and  O_7 
REMARK    3  A    between atoms: O_7  and  C_8 
REMARK    4  A    between atoms: C_8  and  C_9 
REMARK    5  A    between atoms: C_9  and  C_10 
REMARK       I    between atoms: C_10  and  N_11 
REMARK    6  A    between atoms: N_11  and  C_12 
REMARK    7  A    between atoms: C_19  and  C_20 
REMARK       I    between atoms: C_20  and  N_21 
ROOT
HETATM    1  C   UNL     1     -41.260  58.961 -53.490  1.00  0.00     0.224 C 
HETATM    2  N   UNL     1     -42.018  57.881 -53.078  1.00  0.00    -0.327 N 
HETATM    3  O   UNL     1     -40.077  59.158 -53.235  1.00  0.00    -0.273 OA
HETATM    4  H   UNL     1     -43.010  57.920 -53.301  1.00  0.00     0.169 HD
ENDROOT
BRANCH   2   5
HETATM    5  C   UNL     1     -41.599  56.775 -52.310  1.00  0.00     0.035 A 
HETATM    6  C   UNL     1     -41.263  55.531 -52.859  1.00  0.00     0.046 A 
HETATM    7  C   UNL     1     -40.876  54.475 -52.004  1.00  0.00     0.030 A 
HETATM    8  C   UNL     1     -40.818  54.708 -50.636  1.00  0.00     0.063 A 
HETATM    9  C   UNL     1     -40.508  53.105 -52.161  1.00  0.00     0.156 A 
HETATM   10  N   UNL     1     -40.405  53.528 -50.085  1.00  0.00    -0.277 N 
HETATM   11  C   UNL     1     -41.143  55.935 -50.056  1.00  0.00     0.034 A 
HETATM   12  H   UNL     1     -40.242  53.332 -49.103  1.00  0.00     0.189 HD
HETATM   13  N   UNL     1     -40.214  52.535 -50.969  1.00  0.00    -0.168 NA
HETATM   14  C   UNL     1     -41.547  56.958 -50.921  1.00  0.00     0.032 A 
BRANCH   9  15
HETATM   15  C   UNL     1     -40.444  52.328 -53.408  1.00  0.00     0.270 C 
HETATM   16  N   UNL     1     -39.362  51.495 -53.492  1.00  0.00    -0.365 N 
HETATM   17  H   UNL     1     -38.716  51.459 -52.711  1.00  0.00     0.159 HD
HETATM   18  H   UNL     1     -39.253  50.900 -54.297  1.00  0.00     0.159 HD
HETATM   19  O   UNL     1     -41.273  52.382 -54.310  1.00  0.00    -0.266 OA
ENDBRANCH   9  15
ENDBRANCH   2   5
BRANCH   1  20
HETATM   20  C   UNL     1     -42.020  59.938 -54.370  1.00  0.00     0.130 C 
BRANCH  20  21
HETATM   21  C   UNL     1     -42.834  59.243 -55.453  1.00  0.00     0.185 C 
BRANCH  21  22
HETATM   22  O   UNL     1     -41.948  58.975 -56.552  1.00  0.00    -0.351 OA
BRANCH  22  23
HETATM   23  C   UNL     1     -42.435  58.076 -57.459  1.00  0.00     0.068 A 
HETATM   24  C   UNL     1     -42.632  56.779 -56.991  1.00  0.00     0.037 A 
HETATM   25  C   UNL     1     -43.150  55.798 -57.838  1.00  0.00     0.010 A 
HETATM   26  C   UNL     1     -43.506  56.108 -59.158  1.00  0.00    -0.055 A 
HETATM   27  C   UNL     1     -43.320  57.425 -59.609  1.00  0.00     0.010 A 
HETATM   28  C   UNL     1     -42.792  58.406 -58.763  1.00  0.00     0.037 A 
BRANCH  26  29
HETATM   29  C   UNL     1     -44.071  55.061 -60.102  1.00  0.00     0.010 C 
HETATM   30  C   UNL     1     -45.220  55.607 -60.954  1.00  0.00     0.015 C 
HETATM   31  C   UNL     1     -44.510  53.812 -59.333  1.00  0.00     0.015 C 
ENDBRANCH  26  29
ENDBRANCH  22  23
ENDBRANCH  21  22
ENDBRANCH  20  21
ENDBRANCH   1  20
TORSDOF 7
ENDMDL
MODEL 8
REMARK VINA RESULT:      -7.4      2.447      2.915
REMARK  7 active torsions:
REMARK  status: ('A' for Active; 'I' for Inactive)
REMARK    1  A    between atoms: C_2  and  C_3 
REMARK    2  A    between atoms: C_6  and  O_7 
REMARK    3  A    between atoms: O_7  and  C_8 
REMARK    4  A    between atoms: C_8  and  C_9 
REMARK    5  A    between atoms: C_9  and  C_10 
REMARK       I    between atoms: C_10  and  N_11 
REMARK    6  A    between atoms: N_11  and  C_12 
REMARK    7  A    between atoms: C_19  and  C_20 
REMARK       I    between atoms: C_20  and  N_21 
ROOT
HETATM    1  C   UNL     1     -42.279  58.016 -55.421  1.00  0.00     0.224 C 
HETATM    2  N   UNL     1     -42.501  56.925 -56.241  1.00  0.00    -0.327 N 
HETATM    3  O   UNL     1     -42.747  59.140 -55.565  1.00  0.00    -0.273 OA
HETATM    4  H   UNL     1     -41.960  56.090 -56.029  1.00  0.00     0.169 HD
ENDROOT
BRANCH   2   5
HETATM    5  C   UNL     1     -43.318  56.858 -57.387  1.00  0.00     0.035 A 
HETATM    6  C   UNL     1     -44.478  57.626 -57.560  1.00  0.00     0.046 A 
HETATM    7  C   UNL     1     -45.245  57.472 -58.736  1.00  0.00     0.030 A 
HETATM    8  C   UNL     1     -44.814  56.575 -59.705  1.00  0.00     0.063 A 
HETATM    9  C   UNL     1     -46.459  58.018 -59.252  1.00  0.00     0.156 A 
HETATM   10  N   UNL     1     -45.735  56.658 -60.711  1.00  0.00    -0.277 N 
HETATM   11  C   UNL     1     -43.663  55.798 -59.567  1.00  0.00     0.034 A 
HETATM   12  H   UNL     1     -45.734  56.149 -61.587  1.00  0.00     0.189 HD
HETATM   13  N   UNL     1     -46.745  57.511 -60.474  1.00  0.00    -0.168 NA
HETATM   14  C   UNL     1     -42.933  55.950 -58.382  1.00  0.00     0.032 A 
BRANCH   9  15
HETATM   15  C   UNL     1     -47.353  58.991 -58.608  1.00  0.00     0.270 C 
HETATM   16  N   UNL     1     -47.731  58.648 -57.339  1.00  0.00    -0.365 N 
HETATM   17  H   UNL     1     -47.366  57.790 -56.940  1.00  0.00     0.159 HD
HETATM   18  H   UNL     1     -48.317  59.272 -56.807  1.00  0.00     0.159 HD
HETATM   19  O   UNL     1     -47.737  60.036 -59.122  1.00  0.00    -0.266 OA
ENDBRANCH   9  15
ENDBRANCH   2   5
BRANCH   1  20
HETATM   20  C   UNL     1     -41.391  57.711 -54.228  1.00  0.00     0.130 C 
BRANCH  20  21
HETATM   21  C   UNL     1     -42.148  57.044 -53.087  1.00  0.00     0.185 C 
BRANCH  21  22
HETATM   22  O   UNL     1     -42.762  55.856 -53.615  1.00  0.00    -0.351 OA
BRANCH  22  23
HETATM   23  C   UNL     1     -41.965  54.747 -53.571  1.00  0.00     0.068 A 
HETATM   24  C   UNL     1     -41.345  54.485 -52.352  1.00  0.00     0.037 A 
HETATM   25  C   UNL     1     -40.531  53.359 -52.205  1.00  0.00     0.010 A 
HETATM   26  C   UNL     1     -40.351  52.463 -53.267  1.00  0.00    -0.055 A 
HETATM   27  C   UNL     1     -41.000  52.730 -54.484  1.00  0.00     0.010 A 
HETATM   28  C   UNL     1     -41.806  53.864 -54.635  1.00  0.00     0.037 A 
BRANCH  26  29
HETATM   29  C   UNL     1     -39.472  51.232 -53.136  1.00  0.00     0.010 C 
HETATM   30  C   UNL     1     -39.865  50.130 -54.124  1.00  0.00     0.015 C 
HETATM   31  C   UNL     1     -39.485  50.703 -51.700  1.00  0.00     0.015 C 
ENDBRANCH  26  29
ENDBRANCH  22  23
ENDBRANCH  21  22
ENDBRANCH  20  21
ENDBRANCH   1  20
TORSDOF 7
ENDMDL
MODEL 9
REMARK VINA RESULT:      -7.3     15.430     19.709
REMARK  7 active torsions:
REMARK  status: ('A' for Active; 'I' for Inactive)
REMARK    1  A    between atoms: C_2  and  C_3 
REMARK    2  A    between atoms: C_6  and  O_7 
REMARK    3  A    between atoms: O_7  and  C_8 
REMARK    4  A    between atoms: C_8  and  C_9 
REMARK    5  A    between atoms: C_9  and  C_10 
REMARK       I    between atoms: C_10  and  N_11 
REMARK    6  A    between atoms: N_11  and  C_12 
REMARK    7  A    between atoms: C_19  and  C_20 
REMARK       I    between atoms: C_20  and  N_21 
ROOT
HETATM    1  C   UNL     1     -33.560  39.865 -52.051  1.00  0.00     0.224 C 
HETATM    2  N   UNL     1     -33.701  40.293 -50.744  1.00  0.00    -0.327 N 
HETATM    3  O   UNL     1     -33.036  38.820 -52.420  1.00  0.00    -0.273 OA
HETATM    4  H   UNL     1     -34.078  41.230 -50.620  1.00  0.00     0.169 HD
ENDROOT
BRANCH   2   5
HETATM    5  C   UNL     1     -33.305  39.624 -49.568  1.00  0.00     0.035 A 
HETATM    6  C   UNL     1     -32.098  39.875 -48.902  1.00  0.00     0.046 A 
HETATM    7  C   UNL     1     -31.778  39.136 -47.741  1.00  0.00     0.030 A 
HETATM    8  C   UNL     1     -32.685  38.192 -47.276  1.00  0.00     0.063 A 
HETATM    9  C   UNL     1     -30.678  39.070 -46.834  1.00  0.00     0.156 A 
HETATM   10  N   UNL     1     -32.115  37.664 -46.152  1.00  0.00    -0.277 N 
HETATM   11  C   UNL     1     -33.896  37.920 -47.914  1.00  0.00     0.034 A 
HETATM   12  H   UNL     1     -32.502  36.951 -45.545  1.00  0.00     0.189 HD
HETATM   13  N   UNL     1     -30.903  38.161 -45.856  1.00  0.00    -0.168 NA
HETATM   14  C   UNL     1     -34.179  38.646 -49.076  1.00  0.00     0.032 A 
BRANCH   9  15
HETATM   15  C   UNL     1     -29.423  39.833 -46.885  1.00  0.00     0.270 C 
HETATM   16  N   UNL     1     -29.247  40.690 -45.833  1.00  0.00    -0.365 N 
HETATM   17  H   UNL     1     -29.958  40.723 -45.111  1.00  0.00     0.159 HD
HETATM   18  H   UNL     1     -28.400  41.231 -45.767  1.00  0.00     0.159 HD
HETATM   19  O   UNL     1     -28.576  39.730 -47.765  1.00  0.00    -0.266 OA
ENDBRANCH   9  15
ENDBRANCH   2   5
BRANCH   1  20
HETATM   20  C   UNL     1     -34.167  40.812 -53.072  1.00  0.00     0.130 C 
BRANCH  20  21
HETATM   21  C   UNL     1     -35.432  41.490 -52.563  1.00  0.00     0.185 C 
BRANCH  21  22
HETATM   22  O   UNL     1     -35.700  42.604 -53.430  1.00  0.00    -0.351 OA
BRANCH  22  23
HETATM   23  C   UNL     1     -35.964  42.256 -54.726  1.00  0.00     0.068 A 
HETATM   24  C   UNL     1     -37.200  41.657 -54.959  1.00  0.00     0.037 A 
HETATM   25  C   UNL     1     -37.568  41.289 -56.255  1.00  0.00     0.010 A 
HETATM   26  C   UNL     1     -36.718  41.544 -57.340  1.00  0.00    -0.055 A 
HETATM   27  C   UNL     1     -35.485  42.168 -57.091  1.00  0.00     0.010 A 
HETATM   28  C   UNL     1     -35.111  42.527 -55.791  1.00  0.00     0.037 A 
BRANCH  26  29
HETATM   29  C   UNL     1     -37.093  41.155 -58.759  1.00  0.00     0.010 C 
HETATM   30  C   UNL     1     -37.266  42.374 -59.669  1.00  0.00     0.015 C 
HETATM   31  C   UNL     1     -38.351  40.284 -58.772  1.00  0.00     0.015 C 
ENDBRANCH  26  29
ENDBRANCH  22  23
ENDBRANCH  21  22
ENDBRANCH  20  21
ENDBRANCH   1  20
TORSDOF 7
ENDMDL
MODEL 10
REMARK VINA RESULT:      -7.2      2.954      4.369
REMARK  7 active torsions:
REMARK  status: ('A' for Active; 'I' for Inactive)
REMARK    1  A    between atoms: C_2  and  C_3 
REMARK    2  A    between atoms: C_6  and  O_7 
REMARK    3  A    between atoms: O_7  and  C_8 
REMARK    4  A    between atoms: C_8  and  C_9 
REMARK    5  A    between atoms: C_9  and  C_10 
REMARK       I    between atoms: C_10  and  N_11 
REMARK    6  A    between atoms: N_11  and  C_12 
REMARK    7  A    between atoms: C_19  and  C_20 
REMARK       I    between atoms: C_20  and  N_21 
ROOT
HETATM    1  C   UNL     1     -42.901  56.676 -56.945  1.00  0.00     0.224 C 
HETATM    2  N   UNL     1     -42.329  56.985 -58.165  1.00  0.00    -0.327 N 
HETATM    3  O   UNL     1     -43.685  57.376 -56.313  1.00  0.00    -0.273 OA
HETATM    4  H   UNL     1     -41.626  56.333 -58.506  1.00  0.00     0.169 HD
ENDROOT
BRANCH   2   5
HETATM    5  C   UNL     1     -42.535  58.138 -58.949  1.00  0.00     0.035 A 
HETATM    6  C   UNL     1     -41.788  59.316 -58.809  1.00  0.00     0.046 A 
HETATM    7  C   UNL     1     -42.085  60.428 -59.628  1.00  0.00     0.030 A 
HETATM    8  C   UNL     1     -43.100  60.316 -60.570  1.00  0.00     0.063 A 
HETATM    9  C   UNL     1     -41.602  61.765 -59.764  1.00  0.00     0.156 A 
HETATM   10  N   UNL     1     -43.139  61.524 -61.206  1.00  0.00    -0.277 N 
HETATM   11  C   UNL     1     -43.860  59.157 -60.737  1.00  0.00     0.034 A 
HETATM   12  H   UNL     1     -43.755  61.800 -61.963  1.00  0.00     0.189 HD
HETATM   13  N   UNL     1     -42.258  62.426 -60.745  1.00  0.00    -0.168 NA
HETATM   14  C   UNL     1     -43.564  58.077 -59.898  1.00  0.00     0.032 A 
BRANCH   9  15
HETATM   15  C   UNL     1     -40.550  62.425 -58.977  1.00  0.00     0.270 C 
HETATM   16  N   UNL     1     -40.954  62.833 -57.735  1.00  0.00    -0.365 N 
HETATM   17  H   UNL     1     -41.907  62.641 -57.449  1.00  0.00     0.159 HD
HETATM   18  H   UNL     1     -40.290  63.266 -57.113  1.00  0.00     0.159 HD
HETATM   19  O   UNL     1     -39.398  62.600 -59.357  1.00  0.00    -0.266 OA
ENDBRANCH   9  15
ENDBRANCH   2   5
BRANCH   1  20
HETATM   20  C   UNL     1     -42.504  55.310 -56.414  1.00  0.00     0.130 C 
BRANCH  20  21
HETATM   21  C   UNL     1     -42.512  55.246 -54.893  1.00  0.00     0.185 C 
BRANCH  21  22
HETATM   22  O   UNL     1     -41.146  55.315 -54.452  1.00  0.00    -0.351 OA
BRANCH  22  23
HETATM   23  C   UNL     1     -40.700  54.182 -53.831  1.00  0.00     0.068 A 
HETATM   24  C   UNL     1     -40.759  54.182 -52.440  1.00  0.00     0.037 A 
HETATM   25  C   UNL     1     -40.347  53.059 -51.719  1.00  0.00     0.010 A 
HETATM   26  C   UNL     1     -39.899  51.909 -52.382  1.00  0.00    -0.055 A 
HETATM   27  C   UNL     1     -39.865  51.917 -53.786  1.00  0.00     0.010 A 
HETATM   28  C   UNL     1     -40.267  53.046 -54.508  1.00  0.00     0.037 A 
BRANCH  26  29
HETATM   29  C   UNL     1     -39.445  50.674 -51.624  1.00  0.00     0.010 C 
HETATM   30  C   UNL     1     -39.595  49.396 -52.454  1.00  0.00     0.015 C 
HETATM   31  C   UNL     1     -40.188  50.547 -50.292  1.00  0.00     0.015 C 
ENDBRANCH  26  29
ENDBRANCH  22  23
ENDBRANCH  21  22
ENDBRANCH  20  21
ENDBRANCH   1  20
TORSDOF 7
ENDMDL
