MODEL 1
REMARK VINA RESULT:      -9.0      0.000      0.000
REMARK  10 active torsions:
REMARK  status: ('A' for Active; 'I' for Inactive)
REMARK    1  A    between atoms: C_6  and  N_7 
REMARK    2  A    between atoms: C_6  and  C_29 
REMARK       I    between atoms: N_7  and  C_8 
REMARK    3  A    between atoms: N_7  and  C_23 
REMARK    4  A    between atoms: C_8  and  C_9 
REMARK    5  A    between atoms: C_9  and  N_10 
REMARK    6  A    between atoms: C_14  and  C_15 
REMARK    7  A    between atoms: C_23  and  C_24 
REMARK       I    between atoms: C_29  and  N_30 
REMARK    8  A    between atoms: N_30  and  C_31 
REMARK    9  A    between atoms: C_32  and  O_33 
REMARK   10  A    between atoms: C_36  and  O_37 
ROOT
HETATM    1  N   UNL     1     -42.970  57.972 -55.348  1.00  0.00    -0.326 N 
HETATM    2  C   UNL     1     -43.146  56.567 -55.354  1.00  0.00     0.239 C 
HETATM    3  O   UNL     1     -43.092  55.921 -56.400  1.00  0.00    -0.271 OA
ENDROOT
BRANCH   1   4
HETATM    4  C   UNL     1     -43.047  58.709 -56.667  1.00  0.00     0.120 C 
HETATM    5  C   UNL     1     -42.785  60.226 -56.487  1.00  0.00     0.069 C 
HETATM    6  C   UNL     1     -42.733  61.014 -57.793  1.00  0.00     0.237 C 
HETATM    7  N   UNL     1     -41.804  60.363 -58.783  1.00  0.00    -0.075 N 
HETATM    8  C   UNL     1     -41.767  61.143 -60.074  1.00  0.00     0.269 C 
HETATM    9  H   UNL     1     -40.852  60.405 -58.387  1.00  0.00     0.279 HD
HETATM   10  C   UNL     1     -42.124  58.916 -59.038  1.00  0.00     0.237 C 
HETATM   11  C   UNL     1     -42.052  58.146 -57.725  1.00  0.00     0.069 C 
BRANCH   4  12
HETATM   12  C   UNL     1     -44.471  58.462 -57.280  1.00  0.00     0.251 C 
HETATM   13  N   UNL     1     -44.448  57.651 -58.393  1.00  0.00    -0.323 N 
HETATM   14  H   UNL     1     -43.584  57.162 -58.611  1.00  0.00     0.169 HD
HETATM   15  O   UNL     1     -45.444  59.091 -56.873  1.00  0.00    -0.270 OA
BRANCH  13  16
HETATM   16  C   UNL     1     -45.477  57.408 -59.330  1.00  0.00     0.068 A 
HETATM   17  C   UNL     1     -45.481  56.140 -59.951  1.00  0.00     0.097 A 
HETATM   18  C   UNL     1     -46.451  55.832 -60.913  1.00  0.00     0.075 A 
HETATM   19  C   UNL     1     -47.415  56.780 -61.260  1.00  0.00     0.070 A 
HETATM   20  C   UNL     1     -47.401  58.033 -60.645  1.00  0.00     0.039 A 
HETATM   21  C   UNL     1     -46.442  58.349 -59.681  1.00  0.00     0.035 A 
BRANCH  17  22
HETATM   22  O   UNL     1     -44.467  55.294 -59.555  1.00  0.00    -0.354 OA
HETATM   23  C   UNL     1     -44.735  53.895 -59.597  1.00  0.00     0.210 C 
ENDBRANCH  17  22
BRANCH  19  24
HETATM   24  O   UNL     1     -48.408  56.618 -62.185  1.00  0.00    -0.356 OA
HETATM   25  C   UNL     1     -49.176  57.766 -62.526  1.00  0.00     0.210 C 
ENDBRANCH  19  24
ENDBRANCH  13  16
ENDBRANCH   4  12
ENDBRANCH   1   4
BRANCH   1  26
HETATM   26  C   UNL     1     -41.948  58.455 -54.396  1.00  0.00     0.192 C 
BRANCH  26  27
HETATM   27  C   UNL     1     -42.495  59.211 -53.243  1.00  0.00     0.070 A 
HETATM   28  O   UNL     1     -41.543  59.692 -52.389  1.00  0.00    -0.325 OA
HETATM   29  C   UNL     1     -42.183  60.354 -51.393  1.00  0.00     0.142 A 
HETATM   30  C   UNL     1     -43.543  60.301 -51.585  1.00  0.00     0.027 A 
HETATM   31  C   UNL     1     -43.747  59.562 -52.777  1.00  0.00     0.036 A 
ENDBRANCH  26  27
ENDBRANCH   1  26
BRANCH   2  32
HETATM   32  C   UNL     1     -43.502  55.932 -53.990  1.00  0.00     0.228 C 
BRANCH  32  33
HETATM   33  N   UNL     1     -42.426  55.164 -53.380  1.00  0.00    -0.347 N 
HETATM   34  C   UNL     1     -41.876  55.320 -52.108  1.00  0.00     0.171 C 
HETATM   35  S   UNL     1     -42.243  56.448 -50.955  1.00  0.00    -0.041 SA
HETATM   36  N   UNL     1     -40.897  54.345 -51.944  1.00  0.00    -0.357 N 
HETATM   37  C   UNL     1     -40.597  53.724 -53.215  1.00  0.00     0.135 C 
HETATM   38  H   UNL     1     -40.245  54.390 -51.171  1.00  0.00     0.162 HD
HETATM   39  C   UNL     1     -41.871  53.985 -54.025  1.00  0.00     0.155 C 
BRANCH  37  40
HETATM   40  C   UNL     1     -40.201  52.277 -53.147  1.00  0.00    -0.034 A 
HETATM   41  C   UNL     1     -39.755  51.682 -51.958  1.00  0.00     0.009 A 
HETATM   42  C   UNL     1     -39.438  50.322 -51.919  1.00  0.00     0.001 A 
HETATM   43  C   UNL     1     -39.570  49.539 -53.065  1.00  0.00     0.000 A 
HETATM   44  C   UNL     1     -40.018  50.114 -54.251  1.00  0.00     0.001 A 
HETATM   45  C   UNL     1     -40.333  51.473 -54.291  1.00  0.00     0.009 A 
ENDBRANCH  37  40
ENDBRANCH  32  33
ENDBRANCH   2  32
TORSDOF 10
ENDMDL
MODEL 2
REMARK VINA RESULT:      -8.9      2.119      3.491
REMARK  10 active torsions:
REMARK  status: ('A' for Active; 'I' for Inactive)
REMARK    1  A    between atoms: C_6  and  N_7 
REMARK    2  A    between atoms: C_6  and  C_29 
REMARK       I    between atoms: N_7  and  C_8 
REMARK    3  A    between atoms: N_7  and  C_23 
REMARK    4  A    between atoms: C_8  and  C_9 
REMARK    5  A    between atoms: C_9  and  N_10 
REMARK    6  A    between atoms: C_14  and  C_15 
REMARK    7  A    between atoms: C_23  and  C_24 
REMARK       I    between atoms: C_29  and  N_30 
REMARK    8  A    between atoms: N_30  and  C_31 
REMARK    9  A    between atoms: C_32  and  O_33 
REMARK   10  A    between atoms: C_36  and  O_37 
ROOT
HETATM    1  N   UNL     1     -42.847  57.855 -52.851  1.00  0.00    -0.326 N 
HETATM    2  C   UNL     1     -43.626  56.672 -52.874  1.00  0.00     0.239 C 
HETATM    3  O   UNL     1     -44.437  56.460 -53.774  1.00  0.00    -0.271 OA
ENDROOT
BRANCH   1   4
HETATM    4  C   UNL     1     -43.254  58.999 -53.753  1.00  0.00     0.120 C 
HETATM    5  C   UNL     1     -44.777  59.273 -53.673  1.00  0.00     0.069 C 
HETATM    6  C   UNL     1     -45.240  60.489 -54.470  1.00  0.00     0.237 C 
HETATM    7  N   UNL     1     -44.401  61.698 -54.152  1.00  0.00    -0.075 N 
HETATM    8  C   UNL     1     -44.859  62.892 -54.953  1.00  0.00     0.269 C 
HETATM    9  H   UNL     1     -44.558  61.932 -53.160  1.00  0.00     0.279 HD
HETATM   10  C   UNL     1     -42.926  61.463 -54.332  1.00  0.00     0.237 C 
HETATM   11  C   UNL     1     -42.486  60.316 -53.431  1.00  0.00     0.069 C 
BRANCH   4  12
HETATM   12  C   UNL     1     -42.833  58.634 -55.221  1.00  0.00     0.251 C 
HETATM   13  N   UNL     1     -43.880  58.167 -55.984  1.00  0.00    -0.323 N 
HETATM   14  H   UNL     1     -44.823  58.258 -55.611  1.00  0.00     0.169 HD
HETATM   15  O   UNL     1     -41.650  58.622 -55.547  1.00  0.00    -0.270 OA
BRANCH  13  16
HETATM   16  C   UNL     1     -43.841  57.531 -57.244  1.00  0.00     0.068 A 
HETATM   17  C   UNL     1     -44.350  58.261 -58.340  1.00  0.00     0.097 A 
HETATM   18  C   UNL     1     -44.373  57.688 -59.617  1.00  0.00     0.075 A 
HETATM   19  C   UNL     1     -43.890  56.392 -59.809  1.00  0.00     0.070 A 
HETATM   20  C   UNL     1     -43.393  55.675 -58.720  1.00  0.00     0.039 A 
HETATM   21  C   UNL     1     -43.362  56.238 -57.443  1.00  0.00     0.035 A 
BRANCH  17  22
HETATM   22  O   UNL     1     -44.826  59.518 -58.030  1.00  0.00    -0.354 OA
HETATM   23  C   UNL     1     -44.119  60.631 -58.572  1.00  0.00     0.210 C 
ENDBRANCH  17  22
BRANCH  19  24
HETATM   24  O   UNL     1     -43.863  55.710 -60.993  1.00  0.00    -0.356 OA
HETATM   25  C   UNL     1     -45.023  54.965 -61.344  1.00  0.00     0.210 C 
ENDBRANCH  19  24
ENDBRANCH  13  16
ENDBRANCH   4  12
ENDBRANCH   1   4
BRANCH   1  26
HETATM   26  C   UNL     1     -41.393  57.624 -52.715  1.00  0.00     0.192 C 
BRANCH  26  27
HETATM   27  C   UNL     1     -40.732  58.474 -51.693  1.00  0.00     0.070 A 
HETATM   28  O   UNL     1     -41.523  58.775 -50.621  1.00  0.00    -0.325 OA
HETATM   29  C   UNL     1     -40.795  59.549 -49.779  1.00  0.00     0.142 A 
HETATM   30  C   UNL     1     -39.539  59.761 -50.296  1.00  0.00     0.027 A 
HETATM   31  C   UNL     1     -39.497  59.070 -51.533  1.00  0.00     0.036 A 
ENDBRANCH  26  27
ENDBRANCH   1  26
BRANCH   2  32
HETATM   32  C   UNL     1     -43.457  55.736 -51.656  1.00  0.00     0.228 C 
BRANCH  32  33
HETATM   33  N   UNL     1     -42.267  54.898 -51.696  1.00  0.00    -0.347 N 
HETATM   34  C   UNL     1     -41.278  54.767 -50.722  1.00  0.00     0.171 C 
HETATM   35  S   UNL     1     -41.138  55.560 -49.277  1.00  0.00    -0.041 SA
HETATM   36  N   UNL     1     -40.353  53.832 -51.177  1.00  0.00    -0.357 N 
HETATM   37  C   UNL     1     -40.575  53.556 -52.579  1.00  0.00     0.135 C 
HETATM   38  H   UNL     1     -39.459  53.720 -50.716  1.00  0.00     0.162 HD
HETATM   39  C   UNL     1     -42.046  53.942 -52.768  1.00  0.00     0.155 C 
BRANCH  37  40
HETATM   40  C   UNL     1     -40.248  52.158 -53.020  1.00  0.00    -0.034 A 
HETATM   41  C   UNL     1     -40.409  51.740 -54.349  1.00  0.00     0.009 A 
HETATM   42  C   UNL     1     -40.052  50.445 -54.734  1.00  0.00     0.001 A 
HETATM   43  C   UNL     1     -39.523  49.557 -53.799  1.00  0.00     0.000 A 
HETATM   44  C   UNL     1     -39.351  49.959 -52.478  1.00  0.00     0.001 A 
HETATM   45  C   UNL     1     -39.709  51.252 -52.091  1.00  0.00     0.009 A 
ENDBRANCH  37  40
ENDBRANCH  32  33
ENDBRANCH   2  32
TORSDOF 10
ENDMDL
MODEL 3
REMARK VINA RESULT:      -8.7      2.999      8.668
REMARK  10 active torsions:
REMARK  status: ('A' for Active; 'I' for Inactive)
REMARK    1  A    between atoms: C_6  and  N_7 
REMARK    2  A    between atoms: C_6  and  C_29 
REMARK       I    between atoms: N_7  and  C_8 
REMARK    3  A    between atoms: N_7  and  C_23 
REMARK    4  A    between atoms: C_8  and  C_9 
REMARK    5  A    between atoms: C_9  and  N_10 
REMARK    6  A    between atoms: C_14  and  C_15 
REMARK    7  A    between atoms: C_23  and  C_24 
REMARK       I    between atoms: C_29  and  N_30 
REMARK    8  A    between atoms: N_30  and  C_31 
REMARK    9  A    between atoms: C_32  and  O_33 
REMARK   10  A    between atoms: C_36  and  O_37 
ROOT
HETATM    1  N   UNL     1     -43.682  58.202 -54.146  1.00  0.00    -0.326 N 
HETATM    2  C   UNL     1     -43.652  57.430 -55.333  1.00  0.00     0.239 C 
HETATM    3  O   UNL     1     -42.858  56.499 -55.470  1.00  0.00    -0.271 OA
ENDROOT
BRANCH   1   4
HETATM    4  C   UNL     1     -42.518  58.088 -53.187  1.00  0.00     0.120 C 
HETATM    5  C   UNL     1     -41.205  58.611 -53.822  1.00  0.00     0.069 C 
HETATM    6  C   UNL     1     -40.012  58.634 -52.871  1.00  0.00     0.237 C 
HETATM    7  N   UNL     1     -40.362  59.321 -51.577  1.00  0.00    -0.075 N 
HETATM    8  C   UNL     1     -39.180  59.328 -50.639  1.00  0.00     0.269 C 
HETATM    9  H   UNL     1     -40.569  60.307 -51.797  1.00  0.00     0.279 HD
HETATM   10  C   UNL     1     -41.578  58.742 -50.906  1.00  0.00     0.237 C 
HETATM   11  C   UNL     1     -42.769  58.846 -51.849  1.00  0.00     0.069 C 
BRANCH   4  12
HETATM   12  C   UNL     1     -42.372  56.580 -52.776  1.00  0.00     0.251 C 
HETATM   13  N   UNL     1     -41.191  56.015 -53.203  1.00  0.00    -0.323 N 
HETATM   14  H   UNL     1     -40.471  56.631 -53.575  1.00  0.00     0.169 HD
HETATM   15  O   UNL     1     -43.316  55.974 -52.280  1.00  0.00    -0.270 OA
BRANCH  13  16
HETATM   16  C   UNL     1     -40.823  54.651 -53.230  1.00  0.00     0.068 A 
HETATM   17  C   UNL     1     -40.525  54.051 -51.987  1.00  0.00     0.097 A 
HETATM   18  C   UNL     1     -40.124  52.710 -51.933  1.00  0.00     0.075 A 
HETATM   19  C   UNL     1     -40.018  51.966 -53.109  1.00  0.00     0.070 A 
HETATM   20  C   UNL     1     -40.309  52.568 -54.334  1.00  0.00     0.039 A 
HETATM   21  C   UNL     1     -40.714  53.902 -54.399  1.00  0.00     0.035 A 
BRANCH  17  22
HETATM   22  O   UNL     1     -40.635  54.886 -50.896  1.00  0.00    -0.354 OA
HETATM   23  C   UNL     1     -39.908  54.524 -49.725  1.00  0.00     0.210 C 
ENDBRANCH  17  22
BRANCH  19  24
HETATM   24  O   UNL     1     -39.629  50.659 -53.202  1.00  0.00    -0.356 OA
HETATM   25  C   UNL     1     -39.971  49.960 -54.393  1.00  0.00     0.210 C 
ENDBRANCH  19  24
ENDBRANCH  13  16
ENDBRANCH   4  12
ENDBRANCH   1   4
BRANCH   1  26
HETATM   26  C   UNL     1     -45.020  58.317 -53.529  1.00  0.00     0.192 C 
BRANCH  26  27
HETATM   27  C   UNL     1     -45.494  59.712 -53.352  1.00  0.00     0.070 A 
HETATM   28  O   UNL     1     -45.151  60.552 -54.373  1.00  0.00    -0.325 OA
HETATM   29  C   UNL     1     -45.646  61.779 -54.077  1.00  0.00     0.142 A 
HETATM   30  C   UNL     1     -46.301  61.749 -52.869  1.00  0.00     0.027 A 
HETATM   31  C   UNL     1     -46.202  60.416 -52.398  1.00  0.00     0.036 A 
ENDBRANCH  26  27
ENDBRANCH   1  26
BRANCH   2  32
HETATM   32  C   UNL     1     -44.601  57.898 -56.460  1.00  0.00     0.228 C 
BRANCH  32  33
HETATM   33  N   UNL     1     -43.929  58.425 -57.639  1.00  0.00    -0.347 N 
HETATM   34  C   UNL     1     -44.284  58.253 -58.976  1.00  0.00     0.171 C 
HETATM   35  S   UNL     1     -45.525  57.362 -59.610  1.00  0.00    -0.041 SA
HETATM   36  N   UNL     1     -43.374  58.963 -59.753  1.00  0.00    -0.357 N 
HETATM   37  C   UNL     1     -42.245  59.371 -58.948  1.00  0.00     0.135 C 
HETATM   38  H   UNL     1     -43.331  58.827 -60.756  1.00  0.00     0.162 HD
HETATM   39  C   UNL     1     -42.825  59.364 -57.529  1.00  0.00     0.155 C 
BRANCH  37  40
HETATM   40  C   UNL     1     -41.609  60.674 -59.342  1.00  0.00    -0.034 A 
HETATM   41  C   UNL     1     -40.931  61.480 -58.417  1.00  0.00     0.009 A 
HETATM   42  C   UNL     1     -40.312  62.664 -58.827  1.00  0.00     0.001 A 
HETATM   43  C   UNL     1     -40.355  63.050 -60.166  1.00  0.00     0.000 A 
HETATM   44  C   UNL     1     -41.019  62.256 -61.097  1.00  0.00     0.001 A 
HETATM   45  C   UNL     1     -41.640  61.075 -60.688  1.00  0.00     0.009 A 
ENDBRANCH  37  40
ENDBRANCH  32  33
ENDBRANCH   2  32
TORSDOF 10
ENDMDL
MODEL 4
REMARK VINA RESULT:      -8.7      3.051      9.362
REMARK  10 active torsions:
REMARK  status: ('A' for Active; 'I' for Inactive)
REMARK    1  A    between atoms: C_6  and  N_7 
REMARK    2  A    between atoms: C_6  and  C_29 
REMARK       I    between atoms: N_7  and  C_8 
REMARK    3  A    between atoms: N_7  and  C_23 
REMARK    4  A    between atoms: C_8  and  C_9 
REMARK    5  A    between atoms: C_9  and  N_10 
REMARK    6  A    between atoms: C_14  and  C_15 
REMARK    7  A    between atoms: C_23  and  C_24 
REMARK       I    between atoms: C_29  and  N_30 
REMARK    8  A    between atoms: N_30  and  C_31 
REMARK    9  A    between atoms: C_32  and  O_33 
REMARK   10  A    between atoms: C_36  and  O_37 
ROOT
HETATM    1  N   UNL     1     -43.086  58.627 -56.099  1.00  0.00    -0.326 N 
HETATM    2  C   UNL     1     -43.609  59.842 -56.606  1.00  0.00     0.239 C 
HETATM    3  O   UNL     1     -43.579  60.877 -55.941  1.00  0.00    -0.271 OA
ENDROOT
BRANCH   1   4
HETATM    4  C   UNL     1     -42.795  58.535 -54.617  1.00  0.00     0.120 C 
HETATM    5  C   UNL     1     -41.451  59.219 -54.259  1.00  0.00     0.069 C 
HETATM    6  C   UNL     1     -41.149  59.266 -52.764  1.00  0.00     0.237 C 
HETATM    7  N   UNL     1     -42.320  59.811 -51.989  1.00  0.00    -0.075 N 
HETATM    8  C   UNL     1     -42.016  59.842 -50.512  1.00  0.00     0.269 C 
HETATM    9  H   UNL     1     -42.456  60.791 -52.283  1.00  0.00     0.279 HD
HETATM   10  C   UNL     1     -43.606  59.077 -52.259  1.00  0.00     0.237 C 
HETATM   11  C   UNL     1     -43.927  59.156 -53.746  1.00  0.00     0.069 C 
BRANCH   4  12
HETATM   12  C   UNL     1     -42.765  57.016 -54.221  1.00  0.00     0.251 C 
HETATM   13  N   UNL     1     -41.494  56.543 -53.983  1.00  0.00    -0.323 N 
HETATM   14  H   UNL     1     -40.736  57.219 -53.914  1.00  0.00     0.169 HD
HETATM   15  O   UNL     1     -43.780  56.330 -54.300  1.00  0.00    -0.270 OA
BRANCH  13  16
HETATM   16  C   UNL     1     -41.060  55.206 -53.842  1.00  0.00     0.068 A 
HETATM   17  C   UNL     1     -41.001  54.694 -52.528  1.00  0.00     0.097 A 
HETATM   18  C   UNL     1     -40.553  53.387 -52.302  1.00  0.00     0.075 A 
HETATM   19  C   UNL     1     -40.164  52.588 -53.379  1.00  0.00     0.070 A 
HETATM   20  C   UNL     1     -40.221  53.103 -54.674  1.00  0.00     0.039 A 
HETATM   21  C   UNL     1     -40.670  54.403 -54.911  1.00  0.00     0.035 A 
BRANCH  17  22
HETATM   22  O   UNL     1     -41.381  55.580 -51.541  1.00  0.00    -0.354 OA
HETATM   23  C   UNL     1     -42.549  55.255 -50.792  1.00  0.00     0.210 C 
ENDBRANCH  17  22
BRANCH  19  24
HETATM   24  O   UNL     1     -39.700  51.305 -53.302  1.00  0.00    -0.356 OA
HETATM   25  C   UNL     1     -40.160  50.384 -54.285  1.00  0.00     0.210 C 
ENDBRANCH  19  24
ENDBRANCH  13  16
ENDBRANCH   4  12
ENDBRANCH   1   4
BRANCH   1  26
HETATM   26  C   UNL     1     -42.113  57.962 -56.992  1.00  0.00     0.192 C 
BRANCH  26  27
HETATM   27  C   UNL     1     -42.697  56.903 -57.851  1.00  0.00     0.070 A 
HETATM   28  O   UNL     1     -42.565  57.135 -59.191  1.00  0.00    -0.325 OA
HETATM   29  C   UNL     1     -43.139  56.096 -59.845  1.00  0.00     0.142 A 
HETATM   30  C   UNL     1     -43.651  55.192 -58.945  1.00  0.00     0.027 A 
HETATM   31  C   UNL     1     -43.369  55.712 -57.658  1.00  0.00     0.036 A 
ENDBRANCH  26  27
ENDBRANCH   1  26
BRANCH   2  32
HETATM   32  C   UNL     1     -44.295  59.749 -57.988  1.00  0.00     0.228 C 
BRANCH  32  33
HETATM   33  N   UNL     1     -43.689  60.576 -59.022  1.00  0.00    -0.347 N 
HETATM   34  C   UNL     1     -44.325  61.449 -59.903  1.00  0.00     0.171 C 
HETATM   35  S   UNL     1     -45.943  61.756 -60.067  1.00  0.00    -0.041 SA
HETATM   36  N   UNL     1     -43.347  62.048 -60.690  1.00  0.00    -0.357 N 
HETATM   37  C   UNL     1     -42.087  61.358 -60.527  1.00  0.00     0.135 C 
HETATM   38  H   UNL     1     -43.597  62.575 -61.518  1.00  0.00     0.162 HD
HETATM   39  C   UNL     1     -42.246  60.688 -59.158  1.00  0.00     0.155 C 
BRANCH  37  40
HETATM   40  C   UNL     1     -40.861  62.218 -60.649  1.00  0.00    -0.034 A 
HETATM   41  C   UNL     1     -40.352  62.616 -61.894  1.00  0.00     0.009 A 
HETATM   42  C   UNL     1     -39.236  63.453 -61.970  1.00  0.00     0.001 A 
HETATM   43  C   UNL     1     -38.621  63.908 -60.804  1.00  0.00     0.000 A 
HETATM   44  C   UNL     1     -39.119  63.526 -59.561  1.00  0.00     0.001 A 
HETATM   45  C   UNL     1     -40.232  62.688 -59.485  1.00  0.00     0.009 A 
ENDBRANCH  37  40
ENDBRANCH  32  33
ENDBRANCH   2  32
TORSDOF 10
ENDMDL
MODEL 5
REMARK VINA RESULT:      -8.2      3.320      7.580
REMARK  10 active torsions:
REMARK  status: ('A' for Active; 'I' for Inactive)
REMARK    1  A    between atoms: C_6  and  N_7 
REMARK    2  A    between atoms: C_6  and  C_29 
REMARK       I    between atoms: N_7  and  C_8 
REMARK    3  A    between atoms: N_7  and  C_23 
REMARK    4  A    between atoms: C_8  and  C_9 
REMARK    5  A    between atoms: C_9  and  N_10 
REMARK    6  A    between atoms: C_14  and  C_15 
REMARK    7  A    between atoms: C_23  and  C_24 
REMARK       I    between atoms: C_29  and  N_30 
REMARK    8  A    between atoms: N_30  and  C_31 
REMARK    9  A    between atoms: C_32  and  O_33 
REMARK   10  A    between atoms: C_36  and  O_37 
ROOT
HETATM    1  N   UNL     1     -42.845  58.748 -53.299  1.00  0.00    -0.326 N 
HETATM    2  C   UNL     1     -43.957  59.214 -52.556  1.00  0.00     0.239 C 
HETATM    3  O   UNL     1     -44.559  58.476 -51.776  1.00  0.00    -0.271 OA
ENDROOT
BRANCH   1   4
HETATM    4  C   UNL     1     -42.608  57.256 -53.375  1.00  0.00     0.120 C 
HETATM    5  C   UNL     1     -41.096  56.923 -53.446  1.00  0.00     0.069 C 
HETATM    6  C   UNL     1     -40.779  55.431 -53.408  1.00  0.00     0.237 C 
HETATM    7  N   UNL     1     -41.484  54.754 -52.263  1.00  0.00    -0.075 N 
HETATM    8  C   UNL     1     -41.174  53.278 -52.241  1.00  0.00     0.269 C 
HETATM    9  H   UNL     1     -41.103  55.148 -51.389  1.00  0.00     0.279 HD
HETATM   10  C   UNL     1     -42.970  54.991 -52.255  1.00  0.00     0.237 C 
HETATM   11  C   UNL     1     -43.239  56.488 -52.175  1.00  0.00     0.069 C 
BRANCH   4  12
HETATM   12  C   UNL     1     -43.355  56.709 -54.643  1.00  0.00     0.251 C 
HETATM   13  N   UNL     1     -42.574  56.719 -55.777  1.00  0.00    -0.323 N 
HETATM   14  H   UNL     1     -41.579  56.902 -55.673  1.00  0.00     0.169 HD
HETATM   15  O   UNL     1     -44.559  56.475 -54.606  1.00  0.00    -0.270 OA
BRANCH  13  16
HETATM   16  C   UNL     1     -42.966  56.532 -57.122  1.00  0.00     0.068 A 
HETATM   17  C   UNL     1     -43.133  57.698 -57.901  1.00  0.00     0.097 A 
HETATM   18  C   UNL     1     -43.548  57.599 -59.234  1.00  0.00     0.075 A 
HETATM   19  C   UNL     1     -43.798  56.345 -59.795  1.00  0.00     0.070 A 
HETATM   20  C   UNL     1     -43.636  55.198 -59.017  1.00  0.00     0.039 A 
HETATM   21  C   UNL     1     -43.218  55.285 -57.688  1.00  0.00     0.035 A 
BRANCH  17  22
HETATM   22  O   UNL     1     -42.887  58.881 -57.237  1.00  0.00    -0.354 OA
HETATM   23  C   UNL     1     -41.890  59.739 -57.788  1.00  0.00     0.210 C 
ENDBRANCH  17  22
BRANCH  19  24
HETATM   24  O   UNL     1     -44.217  56.104 -61.073  1.00  0.00    -0.356 OA
HETATM   25  C   UNL     1     -45.122  55.024 -61.271  1.00  0.00     0.210 C 
ENDBRANCH  19  24
ENDBRANCH  13  16
ENDBRANCH   4  12
ENDBRANCH   1   4
BRANCH   1  26
HETATM   26  C   UNL     1     -41.635  59.589 -53.177  1.00  0.00     0.192 C 
BRANCH  26  27
HETATM   27  C   UNL     1     -40.967  59.511 -51.854  1.00  0.00     0.070 A 
HETATM   28  O   UNL     1     -39.603  59.508 -51.918  1.00  0.00    -0.325 OA
HETATM   29  C   UNL     1     -39.134  59.433 -50.648  1.00  0.00     0.142 A 
HETATM   30  C   UNL     1     -40.179  59.379 -49.758  1.00  0.00     0.027 A 
HETATM   31  C   UNL     1     -41.364  59.427 -50.534  1.00  0.00     0.036 A 
ENDBRANCH  26  27
ENDBRANCH   1  26
BRANCH   2  32
HETATM   32  C   UNL     1     -44.411  60.658 -52.867  1.00  0.00     0.228 C 
BRANCH  32  33
HETATM   33  N   UNL     1     -45.007  61.362 -51.741  1.00  0.00    -0.347 N 
HETATM   34  C   UNL     1     -46.293  61.891 -51.644  1.00  0.00     0.171 C 
HETATM   35  S   UNL     1     -47.487  61.923 -52.789  1.00  0.00    -0.041 SA
HETATM   36  N   UNL     1     -46.433  62.443 -50.375  1.00  0.00    -0.357 N 
HETATM   37  C   UNL     1     -45.143  62.537 -49.729  1.00  0.00     0.135 C 
HETATM   38  H   UNL     1     -47.218  63.043 -50.153  1.00  0.00     0.162 HD
HETATM   39  C   UNL     1     -44.322  61.471 -50.463  1.00  0.00     0.155 C 
BRANCH  37  40
HETATM   40  C   UNL     1     -45.156  62.378 -48.235  1.00  0.00    -0.034 A 
HETATM   41  C   UNL     1     -44.779  61.180 -47.611  1.00  0.00     0.009 A 
HETATM   42  C   UNL     1     -44.760  61.081 -46.218  1.00  0.00     0.001 A 
HETATM   43  C   UNL     1     -45.108  62.179 -45.433  1.00  0.00     0.000 A 
HETATM   44  C   UNL     1     -45.478  63.377 -46.038  1.00  0.00     0.001 A 
HETATM   45  C   UNL     1     -45.500  63.476 -47.430  1.00  0.00     0.009 A 
ENDBRANCH  37  40
ENDBRANCH  32  33
ENDBRANCH   2  32
TORSDOF 10
ENDMDL
MODEL 6
REMARK VINA RESULT:      -8.2      3.502      7.351
REMARK  10 active torsions:
REMARK  status: ('A' for Active; 'I' for Inactive)
REMARK    1  A    between atoms: C_6  and  N_7 
REMARK    2  A    between atoms: C_6  and  C_29 
REMARK       I    between atoms: N_7  and  C_8 
REMARK    3  A    between atoms: N_7  and  C_23 
REMARK    4  A    between atoms: C_8  and  C_9 
REMARK    5  A    between atoms: C_9  and  N_10 
REMARK    6  A    between atoms: C_14  and  C_15 
REMARK    7  A    between atoms: C_23  and  C_24 
REMARK       I    between atoms: C_29  and  N_30 
REMARK    8  A    between atoms: N_30  and  C_31 
REMARK    9  A    between atoms: C_32  and  O_33 
REMARK   10  A    between atoms: C_36  and  O_37 
ROOT
HETATM    1  N   UNL     1     -43.214  59.912 -54.342  1.00  0.00    -0.326 N 
HETATM    2  C   UNL     1     -43.533  58.645 -54.889  1.00  0.00     0.239 C 
HETATM    3  O   UNL     1     -44.627  58.119 -54.686  1.00  0.00    -0.271 OA
ENDROOT
BRANCH   1   4
HETATM    4  C   UNL     1     -44.096  60.461 -53.243  1.00  0.00     0.120 C 
HETATM    5  C   UNL     1     -43.734  61.929 -52.903  1.00  0.00     0.069 C 
HETATM    6  C   UNL     1     -44.660  62.585 -51.883  1.00  0.00     0.237 C 
HETATM    7  N   UNL     1     -46.105  62.401 -52.264  1.00  0.00    -0.075 N 
HETATM    8  C   UNL     1     -47.013  63.043 -51.244  1.00  0.00     0.269 C 
HETATM    9  H   UNL     1     -46.258  62.905 -53.151  1.00  0.00     0.279 HD
HETATM   10  C   UNL     1     -46.483  60.963 -52.491  1.00  0.00     0.237 C 
HETATM   11  C   UNL     1     -45.611  60.383 -53.597  1.00  0.00     0.069 C 
BRANCH   4  12
HETATM   12  C   UNL     1     -43.928  59.543 -51.980  1.00  0.00     0.251 C 
HETATM   13  N   UNL     1     -42.922  58.613 -52.117  1.00  0.00    -0.323 N 
HETATM   14  H   UNL     1     -42.289  58.704 -52.908  1.00  0.00     0.169 HD
HETATM   15  O   UNL     1     -44.748  59.582 -51.067  1.00  0.00    -0.270 OA
BRANCH  13  16
HETATM   16  C   UNL     1     -42.642  57.488 -51.309  1.00  0.00     0.068 A 
HETATM   17  C   UNL     1     -41.356  57.429 -50.730  1.00  0.00     0.097 A 
HETATM   18  C   UNL     1     -40.992  56.332 -49.939  1.00  0.00     0.075 A 
HETATM   19  C   UNL     1     -41.902  55.295 -49.723  1.00  0.00     0.070 A 
HETATM   20  C   UNL     1     -43.169  55.360 -50.303  1.00  0.00     0.039 A 
HETATM   21  C   UNL     1     -43.544  56.450 -51.089  1.00  0.00     0.035 A 
BRANCH  17  22
HETATM   22  O   UNL     1     -40.531  58.491 -51.034  1.00  0.00    -0.354 OA
HETATM   23  C   UNL     1     -40.401  59.514 -50.050  1.00  0.00     0.210 C 
ENDBRANCH  17  22
BRANCH  19  24
HETATM   24  O   UNL     1     -41.676  54.167 -48.986  1.00  0.00    -0.356 OA
HETATM   25  C   UNL     1     -40.445  54.086 -48.276  1.00  0.00     0.210 C 
ENDBRANCH  19  24
ENDBRANCH  13  16
ENDBRANCH   4  12
ENDBRANCH   1   4
BRANCH   1  26
HETATM   26  C   UNL     1     -42.724  60.896 -55.330  1.00  0.00     0.192 C 
BRANCH  26  27
HETATM   27  C   UNL     1     -43.677  61.184 -56.431  1.00  0.00     0.070 A 
HETATM   28  O   UNL     1     -44.448  62.293 -56.226  1.00  0.00    -0.325 OA
HETATM   29  C   UNL     1     -45.263  62.429 -57.301  1.00  0.00     0.142 A 
HETATM   30  C   UNL     1     -45.036  61.416 -58.201  1.00  0.00     0.027 A 
HETATM   31  C   UNL     1     -44.015  60.609 -57.640  1.00  0.00     0.036 A 
ENDBRANCH  26  27
ENDBRANCH   1  26
BRANCH   2  32
HETATM   32  C   UNL     1     -42.392  57.941 -55.658  1.00  0.00     0.228 C 
BRANCH  32  33
HETATM   33  N   UNL     1     -42.359  56.494 -55.504  1.00  0.00    -0.347 N 
HETATM   34  C   UNL     1     -42.698  55.524 -56.446  1.00  0.00     0.171 C 
HETATM   35  S   UNL     1     -43.286  55.733 -57.979  1.00  0.00    -0.041 SA
HETATM   36  N   UNL     1     -42.481  54.276 -55.870  1.00  0.00    -0.357 N 
HETATM   37  C   UNL     1     -42.271  54.416 -54.447  1.00  0.00     0.135 C 
HETATM   38  H   UNL     1     -42.835  53.434 -56.308  1.00  0.00     0.162 HD
HETATM   39  C   UNL     1     -41.798  55.868 -54.318  1.00  0.00     0.155 C 
BRANCH  37  40
HETATM   40  C   UNL     1     -41.339  53.411 -53.831  1.00  0.00    -0.034 A 
HETATM   41  C   UNL     1     -40.849  52.312 -54.551  1.00  0.00     0.009 A 
HETATM   42  C   UNL     1     -39.948  51.422 -53.962  1.00  0.00     0.001 A 
HETATM   43  C   UNL     1     -39.518  51.625 -52.652  1.00  0.00     0.000 A 
HETATM   44  C   UNL     1     -39.991  52.715 -51.926  1.00  0.00     0.001 A 
HETATM   45  C   UNL     1     -40.893  53.603 -52.513  1.00  0.00     0.009 A 
ENDBRANCH  37  40
ENDBRANCH  32  33
ENDBRANCH   2  32
TORSDOF 10
ENDMDL
MODEL 7
REMARK VINA RESULT:      -8.2      2.553      9.090
REMARK  10 active torsions:
REMARK  status: ('A' for Active; 'I' for Inactive)
REMARK    1  A    between atoms: C_6  and  N_7 
REMARK    2  A    between atoms: C_6  and  C_29 
REMARK       I    between atoms: N_7  and  C_8 
REMARK    3  A    between atoms: N_7  and  C_23 
REMARK    4  A    between atoms: C_8  and  C_9 
REMARK    5  A    between atoms: C_9  and  N_10 
REMARK    6  A    between atoms: C_14  and  C_15 
REMARK    7  A    between atoms: C_23  and  C_24 
REMARK       I    between atoms: C_29  and  N_30 
REMARK    8  A    between atoms: N_30  and  C_31 
REMARK    9  A    between atoms: C_32  and  O_33 
REMARK   10  A    between atoms: C_36  and  O_37 
ROOT
HETATM    1  N   UNL     1     -42.585  57.692 -55.997  1.00  0.00    -0.326 N 
HETATM    2  C   UNL     1     -43.817  57.343 -56.602  1.00  0.00     0.239 C 
HETATM    3  O   UNL     1     -44.884  57.482 -56.006  1.00  0.00    -0.271 OA
ENDROOT
BRANCH   1   4
HETATM    4  C   UNL     1     -42.562  57.925 -54.503  1.00  0.00     0.120 C 
HETATM    5  C   UNL     1     -41.356  58.803 -54.082  1.00  0.00     0.069 C 
HETATM    6  C   UNL     1     -41.334  59.175 -52.603  1.00  0.00     0.237 C 
HETATM    7  N   UNL     1     -42.660  59.737 -52.164  1.00  0.00    -0.075 N 
HETATM    8  C   UNL     1     -42.632  60.091 -50.698  1.00  0.00     0.269 C 
HETATM    9  H   UNL     1     -42.806  60.620 -52.677  1.00  0.00     0.279 HD
HETATM   10  C   UNL     1     -43.822  58.835 -52.478  1.00  0.00     0.237 C 
HETATM   11  C   UNL     1     -43.873  58.585 -53.980  1.00  0.00     0.069 C 
BRANCH   4  12
HETATM   12  C   UNL     1     -42.502  56.526 -53.793  1.00  0.00     0.251 C 
HETATM   13  N   UNL     1     -41.245  55.964 -53.809  1.00  0.00    -0.323 N 
HETATM   14  H   UNL     1     -40.464  56.545 -54.106  1.00  0.00     0.169 HD
HETATM   15  O   UNL     1     -43.532  55.964 -53.433  1.00  0.00    -0.270 OA
BRANCH  13  16
HETATM   16  C   UNL     1     -40.864  54.642 -53.490  1.00  0.00     0.068 A 
HETATM   17  C   UNL     1     -40.708  54.340 -52.120  1.00  0.00     0.097 A 
HETATM   18  C   UNL     1     -40.303  53.060 -51.724  1.00  0.00     0.075 A 
HETATM   19  C   UNL     1     -40.054  52.079 -52.685  1.00  0.00     0.070 A 
HETATM   20  C   UNL     1     -40.206  52.386 -54.038  1.00  0.00     0.039 A 
HETATM   21  C   UNL     1     -40.613  53.658 -54.443  1.00  0.00     0.035 A 
BRANCH  17  22
HETATM   22  O   UNL     1     -40.952  55.392 -51.261  1.00  0.00    -0.354 OA
HETATM   23  C   UNL     1     -41.921  55.181 -50.238  1.00  0.00     0.210 C 
ENDBRANCH  17  22
BRANCH  19  24
HETATM   24  O   UNL     1     -39.646  50.798 -52.441  1.00  0.00    -0.356 OA
HETATM   25  C   UNL     1     -39.611  49.902 -53.546  1.00  0.00     0.210 C 
ENDBRANCH  19  24
ENDBRANCH  13  16
ENDBRANCH   4  12
ENDBRANCH   1   4
BRANCH   1  26
HETATM   26  C   UNL     1     -41.745  58.600 -56.806  1.00  0.00     0.192 C 
BRANCH  26  27
HETATM   27  C   UNL     1     -42.353  59.928 -57.065  1.00  0.00     0.070 A 
HETATM   28  O   UNL     1     -41.445  60.923 -57.296  1.00  0.00    -0.325 OA
HETATM   29  C   UNL     1     -42.139  62.068 -57.514  1.00  0.00     0.142 A 
HETATM   30  C   UNL     1     -43.489  61.830 -57.420  1.00  0.00     0.027 A 
HETATM   31  C   UNL     1     -43.630  60.451 -57.128  1.00  0.00     0.036 A 
ENDBRANCH  26  27
ENDBRANCH   1  26
BRANCH   2  32
HETATM   32  C   UNL     1     -43.713  56.692 -58.001  1.00  0.00     0.228 C 
BRANCH  32  33
HETATM   33  N   UNL     1     -44.400  57.418 -59.060  1.00  0.00    -0.347 N 
HETATM   34  C   UNL     1     -43.834  58.130 -60.116  1.00  0.00     0.171 C 
HETATM   35  S   UNL     1     -42.234  58.403 -60.440  1.00  0.00    -0.041 SA
HETATM   36  N   UNL     1     -44.871  58.631 -60.897  1.00  0.00    -0.357 N 
HETATM   37  C   UNL     1     -46.129  58.494 -60.198  1.00  0.00     0.135 C 
HETATM   38  H   UNL     1     -44.695  59.330 -61.607  1.00  0.00     0.162 HD
HETATM   39  C   UNL     1     -45.844  57.355 -59.213  1.00  0.00     0.155 C 
BRANCH  37  40
HETATM   40  C   UNL     1     -47.329  58.262 -61.071  1.00  0.00    -0.034 A 
HETATM   41  C   UNL     1     -47.725  56.975 -61.464  1.00  0.00     0.009 A 
HETATM   42  C   UNL     1     -48.873  56.791 -62.239  1.00  0.00     0.001 A 
HETATM   43  C   UNL     1     -49.642  57.888 -62.623  1.00  0.00     0.000 A 
HETATM   44  C   UNL     1     -49.265  59.171 -62.235  1.00  0.00     0.001 A 
HETATM   45  C   UNL     1     -48.118  59.356 -61.463  1.00  0.00     0.009 A 
ENDBRANCH  37  40
ENDBRANCH  32  33
ENDBRANCH   2  32
TORSDOF 10
ENDMDL
MODEL 8
REMARK VINA RESULT:      -8.1      1.765      6.097
REMARK  10 active torsions:
REMARK  status: ('A' for Active; 'I' for Inactive)
REMARK    1  A    between atoms: C_6  and  N_7 
REMARK    2  A    between atoms: C_6  and  C_29 
REMARK       I    between atoms: N_7  and  C_8 
REMARK    3  A    between atoms: N_7  and  C_23 
REMARK    4  A    between atoms: C_8  and  C_9 
REMARK    5  A    between atoms: C_9  and  N_10 
REMARK    6  A    between atoms: C_14  and  C_15 
REMARK    7  A    between atoms: C_23  and  C_24 
REMARK       I    between atoms: C_29  and  N_30 
REMARK    8  A    between atoms: N_30  and  C_31 
REMARK    9  A    between atoms: C_32  and  O_33 
REMARK   10  A    between atoms: C_36  and  O_37 
ROOT
HETATM    1  N   UNL     1     -43.218  57.794 -57.622  1.00  0.00    -0.326 N 
HETATM    2  C   UNL     1     -42.508  57.163 -56.571  1.00  0.00     0.239 C 
HETATM    3  O   UNL     1     -41.976  57.819 -55.676  1.00  0.00    -0.271 OA
ENDROOT
BRANCH   1   4
HETATM    4  C   UNL     1     -43.037  59.283 -57.817  1.00  0.00     0.120 C 
HETATM    5  C   UNL     1     -41.540  59.683 -57.783  1.00  0.00     0.069 C 
HETATM    6  C   UNL     1     -41.276  61.155 -58.088  1.00  0.00     0.237 C 
HETATM    7  N   UNL     1     -41.978  61.583 -59.350  1.00  0.00    -0.075 N 
HETATM    8  C   UNL     1     -41.720  63.041 -59.637  1.00  0.00     0.269 C 
HETATM    9  H   UNL     1     -41.562  61.052 -60.130  1.00  0.00     0.279 HD
HETATM   10  C   UNL     1     -43.453  61.289 -59.338  1.00  0.00     0.237 C 
HETATM   11  C   UNL     1     -43.667  59.793 -59.147  1.00  0.00     0.069 C 
BRANCH   4  12
HETATM   12  C   UNL     1     -43.832  60.022 -56.683  1.00  0.00     0.251 C 
HETATM   13  N   UNL     1     -43.035  60.416 -55.631  1.00  0.00    -0.323 N 
HETATM   14  H   UNL     1     -42.026  60.358 -55.746  1.00  0.00     0.169 HD
HETATM   15  O   UNL     1     -45.059  60.062 -56.705  1.00  0.00    -0.270 OA
BRANCH  13  16
HETATM   16  C   UNL     1     -43.423  60.882 -54.355  1.00  0.00     0.068 A 
HETATM   17  C   UNL     1     -42.532  60.627 -53.290  1.00  0.00     0.097 A 
HETATM   18  C   UNL     1     -42.857  61.031 -51.989  1.00  0.00     0.075 A 
HETATM   19  C   UNL     1     -44.066  61.686 -51.744  1.00  0.00     0.070 A 
HETATM   20  C   UNL     1     -44.943  61.929 -52.802  1.00  0.00     0.039 A 
HETATM   21  C   UNL     1     -44.627  61.535 -54.102  1.00  0.00     0.035 A 
BRANCH  17  22
HETATM   22  O   UNL     1     -41.384  59.949 -53.641  1.00  0.00    -0.354 OA
HETATM   23  C   UNL     1     -40.763  59.158 -52.631  1.00  0.00     0.210 C 
ENDBRANCH  17  22
BRANCH  19  24
HETATM   24  O   UNL     1     -44.513  62.123 -50.529  1.00  0.00    -0.356 OA
HETATM   25  C   UNL     1     -45.758  61.612 -50.069  1.00  0.00     0.210 C 
ENDBRANCH  19  24
ENDBRANCH  13  16
ENDBRANCH   4  12
ENDBRANCH   1   4
BRANCH   1  26
HETATM   26  C   UNL     1     -44.587  57.277 -57.829  1.00  0.00     0.192 C 
BRANCH  26  27
HETATM   27  C   UNL     1     -44.764  56.498 -59.080  1.00  0.00     0.070 A 
HETATM   28  O   UNL     1     -46.032  56.534 -59.585  1.00  0.00    -0.325 OA
HETATM   29  C   UNL     1     -46.044  55.785 -60.716  1.00  0.00     0.142 A 
HETATM   30  C   UNL     1     -44.797  55.255 -60.947  1.00  0.00     0.027 A 
HETATM   31  C   UNL     1     -43.970  55.711 -59.891  1.00  0.00     0.036 A 
ENDBRANCH  26  27
ENDBRANCH   1  26
BRANCH   2  32
HETATM   32  C   UNL     1     -42.369  55.628 -56.685  1.00  0.00     0.228 C 
BRANCH  32  33
HETATM   33  N   UNL     1     -42.070  54.951 -55.431  1.00  0.00    -0.347 N 
HETATM   34  C   UNL     1     -42.811  54.968 -54.251  1.00  0.00     0.171 C 
HETATM   35  S   UNL     1     -44.202  55.799 -53.915  1.00  0.00    -0.041 SA
HETATM   36  N   UNL     1     -42.162  54.154 -53.328  1.00  0.00    -0.357 N 
HETATM   37  C   UNL     1     -40.836  53.826 -53.802  1.00  0.00     0.135 C 
HETATM   38  H   UNL     1     -42.423  54.168 -52.350  1.00  0.00     0.162 HD
HETATM   39  C   UNL     1     -40.966  54.013 -55.318  1.00  0.00     0.155 C 
BRANCH  37  40
HETATM   40  C   UNL     1     -40.322  52.474 -53.394  1.00  0.00    -0.034 A 
HETATM   41  C   UNL     1     -39.914  52.198 -52.082  1.00  0.00     0.009 A 
HETATM   42  C   UNL     1     -39.484  50.918 -51.726  1.00  0.00     0.001 A 
HETATM   43  C   UNL     1     -39.465  49.896 -52.674  1.00  0.00     0.000 A 
HETATM   44  C   UNL     1     -39.874  50.153 -53.980  1.00  0.00     0.001 A 
HETATM   45  C   UNL     1     -40.301  51.433 -54.337  1.00  0.00     0.009 A 
ENDBRANCH  37  40
ENDBRANCH  32  33
ENDBRANCH   2  32
TORSDOF 10
ENDMDL
MODEL 9
REMARK VINA RESULT:      -8.1      3.515      7.196
REMARK  10 active torsions:
REMARK  status: ('A' for Active; 'I' for Inactive)
REMARK    1  A    between atoms: C_6  and  N_7 
REMARK    2  A    between atoms: C_6  and  C_29 
REMARK       I    between atoms: N_7  and  C_8 
REMARK    3  A    between atoms: N_7  and  C_23 
REMARK    4  A    between atoms: C_8  and  C_9 
REMARK    5  A    between atoms: C_9  and  N_10 
REMARK    6  A    between atoms: C_14  and  C_15 
REMARK    7  A    between atoms: C_23  and  C_24 
REMARK       I    between atoms: C_29  and  N_30 
REMARK    8  A    between atoms: N_30  and  C_31 
REMARK    9  A    between atoms: C_32  and  O_33 
REMARK   10  A    between atoms: C_36  and  O_37 
ROOT
HETATM    1  N   UNL     1     -43.985  60.766 -56.261  1.00  0.00    -0.326 N 
HETATM    2  C   UNL     1     -44.776  59.645 -56.611  1.00  0.00     0.239 C 
HETATM    3  O   UNL     1     -45.701  59.267 -55.893  1.00  0.00    -0.271 OA
ENDROOT
BRANCH   1   4
HETATM    4  C   UNL     1     -44.070  61.290 -54.844  1.00  0.00     0.120 C 
HETATM    5  C   UNL     1     -43.806  62.815 -54.784  1.00  0.00     0.069 C 
HETATM    6  C   UNL     1     -43.991  63.432 -53.401  1.00  0.00     0.237 C 
HETATM    7  N   UNL     1     -45.312  63.033 -52.800  1.00  0.00    -0.075 N 
HETATM    8  C   UNL     1     -45.481  63.637 -51.428  1.00  0.00     0.269 C 
HETATM    9  H   UNL     1     -46.055  63.435 -53.392  1.00  0.00     0.279 HD
HETATM   10  C   UNL     1     -45.524  61.543 -52.762  1.00  0.00     0.237 C 
HETATM   11  C   UNL     1     -45.446  60.988 -54.178  1.00  0.00     0.069 C 
BRANCH   4  12
HETATM   12  C   UNL     1     -43.020  60.512 -53.974  1.00  0.00     0.251 C 
HETATM   13  N   UNL     1     -43.347  59.187 -53.787  1.00  0.00    -0.323 N 
HETATM   14  H   UNL     1     -44.106  58.798 -54.341  1.00  0.00     0.169 HD
HETATM   15  O   UNL     1     -42.114  61.112 -53.404  1.00  0.00    -0.270 OA
BRANCH  13  16
HETATM   16  C   UNL     1     -42.785  58.257 -52.884  1.00  0.00     0.068 A 
HETATM   17  C   UNL     1     -43.670  57.647 -51.969  1.00  0.00     0.097 A 
HETATM   18  C   UNL     1     -43.184  56.735 -51.023  1.00  0.00     0.075 A 
HETATM   19  C   UNL     1     -41.822  56.430 -50.985  1.00  0.00     0.070 A 
HETATM   20  C   UNL     1     -40.954  57.041 -51.890  1.00  0.00     0.039 A 
HETATM   21  C   UNL     1     -41.428  57.947 -52.839  1.00  0.00     0.035 A 
BRANCH  17  22
HETATM   22  O   UNL     1     -44.985  58.044 -52.079  1.00  0.00    -0.354 OA
HETATM   23  C   UNL     1     -45.601  58.579 -50.910  1.00  0.00     0.210 C 
ENDBRANCH  17  22
BRANCH  19  24
HETATM   24  O   UNL     1     -41.214  55.571 -50.112  1.00  0.00    -0.356 OA
HETATM   25  C   UNL     1     -41.978  54.464 -49.648  1.00  0.00     0.210 C 
ENDBRANCH  19  24
ENDBRANCH  13  16
ENDBRANCH   4  12
ENDBRANCH   1   4
BRANCH   1  26
HETATM   26  C   UNL     1     -43.873  61.789 -57.322  1.00  0.00     0.192 C 
BRANCH  26  27
HETATM   27  C   UNL     1     -42.496  61.989 -57.837  1.00  0.00     0.070 A 
HETATM   28  O   UNL     1     -42.219  63.275 -58.206  1.00  0.00    -0.325 OA
HETATM   29  C   UNL     1     -40.938  63.306 -58.652  1.00  0.00     0.142 A 
HETATM   30  C   UNL     1     -40.381  62.052 -58.584  1.00  0.00     0.027 A 
HETATM   31  C   UNL     1     -41.385  61.199 -58.061  1.00  0.00     0.036 A 
ENDBRANCH  26  27
ENDBRANCH   1  26
BRANCH   2  32
HETATM   32  C   UNL     1     -44.337  58.889 -57.886  1.00  0.00     0.228 C 
BRANCH  32  33
HETATM   33  N   UNL     1     -43.639  57.636 -57.637  1.00  0.00    -0.347 N 
HETATM   34  C   UNL     1     -42.747  56.970 -58.476  1.00  0.00     0.171 C 
HETATM   35  S   UNL     1     -42.271  57.375 -60.008  1.00  0.00    -0.041 SA
HETATM   36  N   UNL     1     -42.304  55.832 -57.811  1.00  0.00    -0.357 N 
HETATM   37  C   UNL     1     -43.121  55.589 -56.643  1.00  0.00     0.135 C 
HETATM   38  H   UNL     1     -41.796  55.107 -58.303  1.00  0.00     0.162 HD
HETATM   39  C   UNL     1     -43.697  56.977 -56.342  1.00  0.00     0.155 C 
BRANCH  37  40
HETATM   40  C   UNL     1     -42.412  54.955 -55.480  1.00  0.00    -0.034 A 
HETATM   41  C   UNL     1     -43.103  54.486 -54.354  1.00  0.00     0.009 A 
HETATM   42  C   UNL     1     -42.417  53.861 -53.310  1.00  0.00     0.001 A 
HETATM   43  C   UNL     1     -41.035  53.690 -53.383  1.00  0.00     0.000 A 
HETATM   44  C   UNL     1     -40.336  54.145 -54.497  1.00  0.00     0.001 A 
HETATM   45  C   UNL     1     -41.021  54.772 -55.539  1.00  0.00     0.009 A 
ENDBRANCH  37  40
ENDBRANCH  32  33
ENDBRANCH   2  32
TORSDOF 10
ENDMDL
MODEL 10
REMARK VINA RESULT:      -8.1      3.528      9.355
REMARK  10 active torsions:
REMARK  status: ('A' for Active; 'I' for Inactive)
REMARK    1  A    between atoms: C_6  and  N_7 
REMARK    2  A    between atoms: C_6  and  C_29 
REMARK       I    between atoms: N_7  and  C_8 
REMARK    3  A    between atoms: N_7  and  C_23 
REMARK    4  A    between atoms: C_8  and  C_9 
REMARK    5  A    between atoms: C_9  and  N_10 
REMARK    6  A    between atoms: C_14  and  C_15 
REMARK    7  A    between atoms: C_23  and  C_24 
REMARK       I    between atoms: C_29  and  N_30 
REMARK    8  A    between atoms: N_30  and  C_31 
REMARK    9  A    between atoms: C_32  and  O_33 
REMARK   10  A    between atoms: C_36  and  O_37 
ROOT
HETATM    1  N   UNL     1     -43.406  55.886 -53.821  1.00  0.00    -0.326 N 
HETATM    2  C   UNL     1     -42.965  56.950 -54.646  1.00  0.00     0.239 C 
HETATM    3  O   UNL     1     -42.084  57.725 -54.272  1.00  0.00    -0.271 OA
ENDROOT
BRANCH   1   4
HETATM    4  C   UNL     1     -43.024  55.908 -52.358  1.00  0.00     0.120 C 
HETATM    5  C   UNL     1     -43.283  54.537 -51.682  1.00  0.00     0.069 C 
HETATM    6  C   UNL     1     -42.812  54.452 -50.233  1.00  0.00     0.237 C 
HETATM    7  N   UNL     1     -41.389  54.924 -50.095  1.00  0.00    -0.075 N 
HETATM    8  C   UNL     1     -40.937  54.847 -48.658  1.00  0.00     0.269 C 
HETATM    9  H   UNL     1     -40.794  54.270 -50.627  1.00  0.00     0.279 HD
HETATM   10  C   UNL     1     -41.162  56.301 -50.658  1.00  0.00     0.237 C 
HETATM   11  C   UNL     1     -41.535  56.309 -52.134  1.00  0.00     0.069 C 
BRANCH   4  12
HETATM   12  C   UNL     1     -43.857  57.037 -51.655  1.00  0.00     0.251 C 
HETATM   13  N   UNL     1     -43.318  58.293 -51.824  1.00  0.00    -0.323 N 
HETATM   14  H   UNL     1     -42.565  58.404 -52.500  1.00  0.00     0.169 HD
HETATM   15  O   UNL     1     -44.785  56.753 -50.902  1.00  0.00    -0.270 OA
BRANCH  13  16
HETATM   16  C   UNL     1     -43.646  59.493 -51.155  1.00  0.00     0.068 A 
HETATM   17  C   UNL     1     -42.573  60.353 -50.833  1.00  0.00     0.097 A 
HETATM   18  C   UNL     1     -42.812  61.548 -50.144  1.00  0.00     0.075 A 
HETATM   19  C   UNL     1     -44.114  61.891 -49.774  1.00  0.00     0.070 A 
HETATM   20  C   UNL     1     -45.168  61.033 -50.092  1.00  0.00     0.039 A 
HETATM   21  C   UNL     1     -44.941  59.842 -50.782  1.00  0.00     0.035 A 
BRANCH  17  22
HETATM   22  O   UNL     1     -41.329  59.901 -51.220  1.00  0.00    -0.354 OA
HETATM   23  C   UNL     1     -40.328  59.811 -50.210  1.00  0.00     0.210 C 
ENDBRANCH  17  22
BRANCH  19  24
HETATM   24  O   UNL     1     -44.488  63.015 -49.092  1.00  0.00    -0.356 OA
HETATM   25  C   UNL     1     -44.302  64.265 -49.745  1.00  0.00     0.210 C 
ENDBRANCH  19  24
ENDBRANCH  13  16
ENDBRANCH   4  12
ENDBRANCH   1   4
BRANCH   1  26
HETATM   26  C   UNL     1     -43.386  54.561 -54.475  1.00  0.00     0.192 C 
BRANCH  26  27
HETATM   27  C   UNL     1     -42.031  53.980 -54.639  1.00  0.00     0.070 A 
HETATM   28  O   UNL     1     -41.861  52.774 -54.019  1.00  0.00    -0.325 OA
HETATM   29  C   UNL     1     -40.588  52.370 -54.252  1.00  0.00     0.142 A 
HETATM   30  C   UNL     1     -39.924  53.303 -55.011  1.00  0.00     0.027 A 
HETATM   31  C   UNL     1     -40.852  54.344 -55.260  1.00  0.00     0.036 A 
ENDBRANCH  26  27
ENDBRANCH   1  26
BRANCH   2  32
HETATM   32  C   UNL     1     -43.727  57.123 -55.979  1.00  0.00     0.228 C 
BRANCH  32  33
HETATM   33  N   UNL     1     -43.658  58.462 -56.548  1.00  0.00    -0.347 N 
HETATM   34  C   UNL     1     -44.229  59.633 -56.053  1.00  0.00     0.171 C 
HETATM   35  S   UNL     1     -45.189  59.833 -54.721  1.00  0.00    -0.041 SA
HETATM   36  N   UNL     1     -43.873  60.674 -56.906  1.00  0.00    -0.357 N 
HETATM   37  C   UNL     1     -43.305  60.145 -58.125  1.00  0.00     0.135 C 
HETATM   38  H   UNL     1     -44.328  61.576 -56.842  1.00  0.00     0.162 HD
HETATM   39  C   UNL     1     -42.812  58.759 -57.692  1.00  0.00     0.155 C 
BRANCH  37  40
HETATM   40  C   UNL     1     -42.247  60.997 -58.767  1.00  0.00    -0.034 A 
HETATM   41  C   UNL     1     -41.235  61.615 -58.018  1.00  0.00     0.009 A 
HETATM   42  C   UNL     1     -40.241  62.364 -58.651  1.00  0.00     0.001 A 
HETATM   43  C   UNL     1     -40.240  62.497 -60.039  1.00  0.00     0.000 A 
HETATM   44  C   UNL     1     -41.235  61.884 -60.796  1.00  0.00     0.001 A 
HETATM   45  C   UNL     1     -42.230  61.138 -60.164  1.00  0.00     0.009 A 
ENDBRANCH  37  40
ENDBRANCH  32  33
ENDBRANCH   2  32
TORSDOF 10
ENDMDL
