MODEL 1
REMARK VINA RESULT:      -7.8      0.000      0.000
REMARK  9 active torsions:
REMARK  status: ('A' for Active; 'I' for Inactive)
REMARK    1  A    between atoms: C_2  and  O_3 
REMARK    2  A    between atoms: O_3  and  C_4 
REMARK    3  A    between atoms: C_5  and  O_6 
REMARK    4  A    between atoms: O_6  and  C_7 
REMARK    5  A    between atoms: C_7  and  C_8 
REMARK       I    between atoms: C_8  and  N_9 
REMARK    6  A    between atoms: N_9  and  C_10 
REMARK    7  A    between atoms: C_17  and  C_18 
REMARK    8  A    between atoms: C_18  and  N_19 
REMARK    9  A    between atoms: N_19  and  C_20 
ROOT
HETATM    1  C   UNL     1     -41.904  59.005 -51.693  1.00  0.00     0.102 A 
HETATM    2  C   UNL     1     -43.189  59.224 -51.172  1.00  0.00     0.102 A 
HETATM    3  C   UNL     1     -44.197  58.301 -51.465  1.00  0.00     0.040 A 
HETATM    4  C   UNL     1     -43.936  57.199 -52.287  1.00  0.00     0.012 A 
HETATM    5  C   UNL     1     -42.665  57.003 -52.843  1.00  0.00    -0.038 A 
HETATM    6  C   UNL     1     -41.654  57.921 -52.542  1.00  0.00     0.048 A 
ENDROOT
BRANCH   5   7
HETATM    7  C   UNL     1     -42.409  55.843 -53.779  1.00  0.00     0.158 C 
BRANCH   7   8
HETATM    8  N   UNL     1     -40.995  55.497 -53.726  1.00  0.00    -0.386 N 
HETATM    9  H   UNL     1     -40.435  56.217 -53.277  1.00  0.00     0.160 HD
BRANCH   8  10
HETATM   10  C   UNL     1     -40.599  54.212 -53.348  1.00  0.00     0.031 A 
HETATM   11  C   UNL     1     -40.588  53.758 -52.024  1.00  0.00     0.068 A 
HETATM   12  C   UNL     1     -40.259  52.433 -51.721  1.00  0.00     0.104 A 
HETATM   13  C   UNL     1     -39.936  51.537 -52.741  1.00  0.00     0.102 A 
HETATM   14  O   UNL     1     -40.271  52.085 -50.392  1.00  0.00    -0.346 OA
HETATM   15  O   UNL     1     -39.576  50.233 -52.514  1.00  0.00    -0.346 OA
HETATM   16  C   UNL     1     -39.996  51.952 -54.064  1.00  0.00     0.042 A 
HETATM   17  C   UNL     1     -39.237  50.018 -51.140  1.00  0.00     0.202 C 
HETATM   18  C   UNL     1     -40.267  50.663 -50.226  1.00  0.00     0.202 C 
HETATM   19  C   UNL     1     -40.336  53.274 -54.361  1.00  0.00     0.032 A 
ENDBRANCH   8  10
ENDBRANCH   7   8
ENDBRANCH   5   7
BRANCH   1  20
HETATM   20  O   UNL     1     -40.838  59.852 -51.514  1.00  0.00    -0.349 OA
BRANCH  20  21
HETATM   21  C   UNL     1     -39.571  59.216 -51.307  1.00  0.00     0.171 C 
HETATM   22  C   UNL     1     -38.817  59.772 -50.109  1.00  0.00     0.034 C 
ENDBRANCH  20  21
ENDBRANCH   1  20
BRANCH   2  23
HETATM   23  O   UNL     1     -43.378  60.384 -50.470  1.00  0.00    -0.339 OA
BRANCH  23  24
HETATM   24  C   UNL     1     -44.697  60.805 -50.152  1.00  0.00     0.278 C 
BRANCH  24  25
HETATM   25  C   UNL     1     -44.913  61.289 -48.711  1.00  0.00     0.242 C 
HETATM   26  N   UNL     1     -45.532  60.372 -47.891  1.00  0.00    -0.351 N 
HETATM   27  H   UNL     1     -45.881  59.537 -48.355  1.00  0.00     0.163 HD
HETATM   28  O   UNL     1     -44.560  62.410 -48.356  1.00  0.00    -0.271 OA
BRANCH  26  29
HETATM   29  C   UNL     1     -45.927  60.591 -46.495  1.00  0.00     0.022 C 
HETATM   30  C   UNL     1     -46.610  59.337 -45.934  1.00  0.00     0.037 C 
HETATM   31  C   UNL     1     -44.649  60.867 -45.681  1.00  0.00     0.037 C 
HETATM   32  C   UNL     1     -46.855  61.808 -46.355  1.00  0.00     0.037 C 
ENDBRANCH  26  29
ENDBRANCH  24  25
ENDBRANCH  23  24
ENDBRANCH   2  23
TORSDOF 9
ENDMDL
MODEL 2
REMARK VINA RESULT:      -7.6      1.172      1.778
REMARK  9 active torsions:
REMARK  status: ('A' for Active; 'I' for Inactive)
REMARK    1  A    between atoms: C_2  and  O_3 
REMARK    2  A    between atoms: O_3  and  C_4 
REMARK    3  A    between atoms: C_5  and  O_6 
REMARK    4  A    between atoms: O_6  and  C_7 
REMARK    5  A    between atoms: C_7  and  C_8 
REMARK       I    between atoms: C_8  and  N_9 
REMARK    6  A    between atoms: N_9  and  C_10 
REMARK    7  A    between atoms: C_17  and  C_18 
REMARK    8  A    between atoms: C_18  and  N_19 
REMARK    9  A    between atoms: N_19  and  C_20 
ROOT
HETATM    1  C   UNL     1     -42.320  59.005 -51.552  1.00  0.00     0.102 A 
HETATM    2  C   UNL     1     -43.613  59.445 -51.228  1.00  0.00     0.102 A 
HETATM    3  C   UNL     1     -44.702  58.641 -51.578  1.00  0.00     0.040 A 
HETATM    4  C   UNL     1     -44.506  57.437 -52.265  1.00  0.00     0.012 A 
HETATM    5  C   UNL     1     -43.220  57.018 -52.628  1.00  0.00    -0.038 A 
HETATM    6  C   UNL     1     -42.130  57.818 -52.270  1.00  0.00     0.048 A 
ENDROOT
BRANCH   5   7
HETATM    7  C   UNL     1     -43.023  55.747 -53.423  1.00  0.00     0.158 C 
BRANCH   7   8
HETATM    8  N   UNL     1     -41.596  55.470 -53.525  1.00  0.00    -0.386 N 
HETATM    9  H   UNL     1     -41.026  56.236 -53.177  1.00  0.00     0.160 HD
BRANCH   8  10
HETATM   10  C   UNL     1     -41.094  54.224 -53.141  1.00  0.00     0.031 A 
HETATM   11  C   UNL     1     -40.952  53.139 -54.013  1.00  0.00     0.068 A 
HETATM   12  C   UNL     1     -40.366  51.944 -53.585  1.00  0.00     0.104 A 
HETATM   13  C   UNL     1     -39.908  51.815 -52.273  1.00  0.00     0.102 A 
HETATM   14  O   UNL     1     -40.276  50.935 -54.513  1.00  0.00    -0.346 OA
HETATM   15  O   UNL     1     -39.351  50.664 -51.777  1.00  0.00    -0.346 OA
HETATM   16  C   UNL     1     -39.988  52.898 -51.408  1.00  0.00     0.042 A 
HETATM   17  C   UNL     1     -39.616  49.547 -52.632  1.00  0.00     0.202 C 
HETATM   18  C   UNL     1     -39.368  49.914 -54.086  1.00  0.00     0.202 C 
HETATM   19  C   UNL     1     -40.565  54.093 -51.846  1.00  0.00     0.032 A 
ENDBRANCH   8  10
ENDBRANCH   7   8
ENDBRANCH   5   7
BRANCH   1  20
HETATM   20  O   UNL     1     -41.172  59.715 -51.302  1.00  0.00    -0.349 OA
BRANCH  20  21
HETATM   21  C   UNL     1     -40.307  59.160 -50.304  1.00  0.00     0.171 C 
HETATM   22  C   UNL     1     -38.926  59.798 -50.294  1.00  0.00     0.034 C 
ENDBRANCH  20  21
ENDBRANCH   1  20
BRANCH   2  23
HETATM   23  O   UNL     1     -43.715  60.684 -50.655  1.00  0.00    -0.339 OA
BRANCH  23  24
HETATM   24  C   UNL     1     -44.997  61.208 -50.340  1.00  0.00     0.278 C 
BRANCH  24  25
HETATM   25  C   UNL     1     -45.476  60.976 -48.899  1.00  0.00     0.242 C 
HETATM   26  N   UNL     1     -45.268  62.044 -48.054  1.00  0.00    -0.351 N 
HETATM   27  H   UNL     1     -44.720  62.807 -48.441  1.00  0.00     0.163 HD
HETATM   28  O   UNL     1     -45.988  59.913 -48.561  1.00  0.00    -0.271 OA
BRANCH  26  29
HETATM   29  C   UNL     1     -45.559  62.074 -46.616  1.00  0.00     0.022 C 
HETATM   30  C   UNL     1     -44.687  61.050 -45.877  1.00  0.00     0.037 C 
HETATM   31  C   UNL     1     -45.219  63.483 -46.095  1.00  0.00     0.037 C 
HETATM   32  C   UNL     1     -47.046  61.807 -46.335  1.00  0.00     0.037 C 
ENDBRANCH  26  29
ENDBRANCH  24  25
ENDBRANCH  23  24
ENDBRANCH   2  23
TORSDOF 9
ENDMDL
MODEL 3
REMARK VINA RESULT:      -7.5      5.235      7.989
REMARK  9 active torsions:
REMARK  status: ('A' for Active; 'I' for Inactive)
REMARK    1  A    between atoms: C_2  and  O_3 
REMARK    2  A    between atoms: O_3  and  C_4 
REMARK    3  A    between atoms: C_5  and  O_6 
REMARK    4  A    between atoms: O_6  and  C_7 
REMARK    5  A    between atoms: C_7  and  C_8 
REMARK       I    between atoms: C_8  and  N_9 
REMARK    6  A    between atoms: N_9  and  C_10 
REMARK    7  A    between atoms: C_17  and  C_18 
REMARK    8  A    between atoms: C_18  and  N_19 
REMARK    9  A    between atoms: N_19  and  C_20 
ROOT
HETATM    1  C   UNL     1     -41.792  55.065 -53.956  1.00  0.00     0.102 A 
HETATM    2  C   UNL     1     -42.953  55.261 -53.191  1.00  0.00     0.102 A 
HETATM    3  C   UNL     1     -43.970  56.066 -53.710  1.00  0.00     0.040 A 
HETATM    4  C   UNL     1     -43.820  56.689 -54.954  1.00  0.00     0.012 A 
HETATM    5  C   UNL     1     -42.645  56.530 -55.700  1.00  0.00    -0.038 A 
HETATM    6  C   UNL     1     -41.631  55.716 -55.185  1.00  0.00     0.048 A 
ENDROOT
BRANCH   5   7
HETATM    7  C   UNL     1     -42.467  57.256 -57.015  1.00  0.00     0.158 C 
BRANCH   7   8
HETATM    8  N   UNL     1     -42.530  56.288 -58.101  1.00  0.00    -0.386 N 
HETATM    9  H   UNL     1     -42.199  55.368 -57.822  1.00  0.00     0.160 HD
BRANCH   8  10
HETATM   10  C   UNL     1     -43.666  56.214 -58.911  1.00  0.00     0.031 A 
HETATM   11  C   UNL     1     -44.624  57.231 -59.004  1.00  0.00     0.068 A 
HETATM   12  C   UNL     1     -45.696  57.129 -59.896  1.00  0.00     0.104 A 
HETATM   13  C   UNL     1     -45.827  56.005 -60.714  1.00  0.00     0.102 A 
HETATM   14  O   UNL     1     -46.585  58.175 -59.911  1.00  0.00    -0.346 OA
HETATM   15  O   UNL     1     -46.868  55.826 -61.588  1.00  0.00    -0.346 OA
HETATM   16  C   UNL     1     -44.858  55.012 -60.677  1.00  0.00     0.042 A 
HETATM   17  C   UNL     1     -47.944  56.727 -61.309  1.00  0.00     0.202 C 
HETATM   18  C   UNL     1     -47.420  58.134 -61.074  1.00  0.00     0.202 C 
HETATM   19  C   UNL     1     -43.783  55.125 -59.791  1.00  0.00     0.032 A 
ENDBRANCH   8  10
ENDBRANCH   7   8
ENDBRANCH   5   7
BRANCH   1  20
HETATM   20  O   UNL     1     -40.706  54.332 -53.548  1.00  0.00    -0.349 OA
BRANCH  20  21
HETATM   21  C   UNL     1     -40.199  53.392 -54.503  1.00  0.00     0.171 C 
HETATM   22  C   UNL     1     -40.555  51.953 -54.166  1.00  0.00     0.034 C 
ENDBRANCH  20  21
ENDBRANCH   1  20
BRANCH   2  23
HETATM   23  O   UNL     1     -42.966  54.701 -51.941  1.00  0.00    -0.339 OA
BRANCH  23  24
HETATM   24  C   UNL     1     -42.992  55.543 -50.797  1.00  0.00     0.278 C 
BRANCH  24  25
HETATM   25  C   UNL     1     -41.978  56.695 -50.794  1.00  0.00     0.242 C 
HETATM   26  N   UNL     1     -42.535  57.942 -50.974  1.00  0.00    -0.351 N 
HETATM   27  H   UNL     1     -43.525  57.948 -51.207  1.00  0.00     0.163 HD
HETATM   28  O   UNL     1     -40.777  56.487 -50.651  1.00  0.00    -0.271 OA
BRANCH  26  29
HETATM   29  C   UNL     1     -41.800  59.207 -51.086  1.00  0.00     0.022 C 
HETATM   30  C   UNL     1     -41.037  59.261 -52.417  1.00  0.00     0.037 C 
HETATM   31  C   UNL     1     -42.827  60.354 -51.056  1.00  0.00     0.037 C 
HETATM   32  C   UNL     1     -40.830  59.403 -49.910  1.00  0.00     0.037 C 
ENDBRANCH  26  29
ENDBRANCH  24  25
ENDBRANCH  23  24
ENDBRANCH   2  23
TORSDOF 9
ENDMDL
MODEL 4
REMARK VINA RESULT:      -7.5      3.711      7.698
REMARK  9 active torsions:
REMARK  status: ('A' for Active; 'I' for Inactive)
REMARK    1  A    between atoms: C_2  and  O_3 
REMARK    2  A    between atoms: O_3  and  C_4 
REMARK    3  A    between atoms: C_5  and  O_6 
REMARK    4  A    between atoms: O_6  and  C_7 
REMARK    5  A    between atoms: C_7  and  C_8 
REMARK       I    between atoms: C_8  and  N_9 
REMARK    6  A    between atoms: N_9  and  C_10 
REMARK    7  A    between atoms: C_17  and  C_18 
REMARK    8  A    between atoms: C_18  and  N_19 
REMARK    9  A    between atoms: N_19  and  C_20 
ROOT
HETATM    1  C   UNL     1     -41.211  53.623 -52.915  1.00  0.00     0.102 A 
HETATM    2  C   UNL     1     -42.282  53.933 -52.062  1.00  0.00     0.102 A 
HETATM    3  C   UNL     1     -43.445  54.477 -52.616  1.00  0.00     0.040 A 
HETATM    4  C   UNL     1     -43.526  54.735 -53.989  1.00  0.00     0.012 A 
HETATM    5  C   UNL     1     -42.442  54.467 -54.835  1.00  0.00    -0.038 A 
HETATM    6  C   UNL     1     -41.282  53.915 -54.282  1.00  0.00     0.048 A 
ENDROOT
BRANCH   5   7
HETATM    7  C   UNL     1     -42.516  54.807 -56.307  1.00  0.00     0.158 C 
BRANCH   7   8
HETATM    8  N   UNL     1     -43.407  55.946 -56.485  1.00  0.00    -0.386 N 
HETATM    9  H   UNL     1     -44.156  55.964 -55.798  1.00  0.00     0.160 HD
BRANCH   8  10
HETATM   10  C   UNL     1     -42.881  57.218 -56.723  1.00  0.00     0.031 A 
HETATM   11  C   UNL     1     -42.645  57.737 -58.001  1.00  0.00     0.068 A 
HETATM   12  C   UNL     1     -42.194  59.050 -58.172  1.00  0.00     0.104 A 
HETATM   13  C   UNL     1     -41.973  59.868 -57.063  1.00  0.00     0.102 A 
HETATM   14  O   UNL     1     -41.987  59.465 -59.464  1.00  0.00    -0.346 OA
HETATM   15  O   UNL     1     -41.503  61.153 -57.156  1.00  0.00    -0.346 OA
HETATM   16  C   UNL     1     -42.254  59.391 -55.790  1.00  0.00     0.042 A 
HETATM   17  C   UNL     1     -40.951  61.414 -58.450  1.00  0.00     0.202 C 
HETATM   18  C   UNL     1     -41.870  60.890 -59.541  1.00  0.00     0.202 C 
HETATM   19  C   UNL     1     -42.715  58.082 -55.627  1.00  0.00     0.032 A 
ENDBRANCH   8  10
ENDBRANCH   7   8
ENDBRANCH   5   7
BRANCH   1  20
HETATM   20  O   UNL     1     -40.003  53.124 -52.496  1.00  0.00    -0.349 OA
BRANCH  20  21
HETATM   21  C   UNL     1     -39.765  51.744 -52.803  1.00  0.00     0.171 C 
HETATM   22  C   UNL     1     -39.561  50.888 -51.562  1.00  0.00     0.034 C 
ENDBRANCH  20  21
ENDBRANCH   1  20
BRANCH   2  23
HETATM   23  O   UNL     1     -42.073  53.749 -50.721  1.00  0.00    -0.339 OA
BRANCH  23  24
HETATM   24  C   UNL     1     -42.201  54.850 -49.833  1.00  0.00     0.278 C 
BRANCH  24  25
HETATM   25  C   UNL     1     -41.412  56.110 -50.217  1.00  0.00     0.242 C 
HETATM   26  N   UNL     1     -42.195  57.169 -50.618  1.00  0.00    -0.351 N 
HETATM   27  H   UNL     1     -43.184  56.964 -50.731  1.00  0.00     0.163 HD
HETATM   28  O   UNL     1     -40.185  56.133 -50.168  1.00  0.00    -0.271 OA
BRANCH  26  29
HETATM   29  C   UNL     1     -41.708  58.465 -51.107  1.00  0.00     0.022 C 
HETATM   30  C   UNL     1     -40.851  58.269 -52.365  1.00  0.00     0.037 C 
HETATM   31  C   UNL     1     -42.934  59.323 -51.470  1.00  0.00     0.037 C 
HETATM   32  C   UNL     1     -40.905  59.209 -50.029  1.00  0.00     0.037 C 
ENDBRANCH  26  29
ENDBRANCH  24  25
ENDBRANCH  23  24
ENDBRANCH   2  23
TORSDOF 9
ENDMDL
MODEL 5
REMARK VINA RESULT:      -7.4      1.329      1.562
REMARK  9 active torsions:
REMARK  status: ('A' for Active; 'I' for Inactive)
REMARK    1  A    between atoms: C_2  and  O_3 
REMARK    2  A    between atoms: O_3  and  C_4 
REMARK    3  A    between atoms: C_5  and  O_6 
REMARK    4  A    between atoms: O_6  and  C_7 
REMARK    5  A    between atoms: C_7  and  C_8 
REMARK       I    between atoms: C_8  and  N_9 
REMARK    6  A    between atoms: N_9  and  C_10 
REMARK    7  A    between atoms: C_17  and  C_18 
REMARK    8  A    between atoms: C_18  and  N_19 
REMARK    9  A    between atoms: N_19  and  C_20 
ROOT
HETATM    1  C   UNL     1     -42.453  59.319 -51.688  1.00  0.00     0.102 A 
HETATM    2  C   UNL     1     -43.579  59.654 -50.919  1.00  0.00     0.102 A 
HETATM    3  C   UNL     1     -44.807  59.067 -51.236  1.00  0.00     0.040 A 
HETATM    4  C   UNL     1     -44.916  58.186 -52.318  1.00  0.00     0.012 A 
HETATM    5  C   UNL     1     -43.803  57.883 -53.113  1.00  0.00    -0.038 A 
HETATM    6  C   UNL     1     -42.573  58.464 -52.790  1.00  0.00     0.048 A 
ENDROOT
BRANCH   5   7
HETATM    7  C   UNL     1     -43.944  56.978 -54.317  1.00  0.00     0.158 C 
BRANCH   7   8
HETATM    8  N   UNL     1     -44.168  55.614 -53.858  1.00  0.00    -0.386 N 
HETATM    9  H   UNL     1     -44.885  55.136 -54.398  1.00  0.00     0.160 HD
BRANCH   8  10
HETATM   10  C   UNL     1     -43.083  54.781 -53.572  1.00  0.00     0.031 A 
HETATM   11  C   UNL     1     -42.655  54.479 -52.274  1.00  0.00     0.068 A 
HETATM   12  C   UNL     1     -41.612  53.573 -52.054  1.00  0.00     0.104 A 
HETATM   13  C   UNL     1     -40.980  52.952 -53.133  1.00  0.00     0.102 A 
HETATM   14  O   UNL     1     -41.261  53.346 -50.746  1.00  0.00    -0.346 OA
HETATM   15  O   UNL     1     -39.933  52.078 -52.992  1.00  0.00    -0.346 OA
HETATM   16  C   UNL     1     -41.427  53.195 -54.424  1.00  0.00     0.042 A 
HETATM   17  C   UNL     1     -39.361  52.157 -51.682  1.00  0.00     0.202 C 
HETATM   18  C   UNL     1     -40.449  52.173 -50.621  1.00  0.00     0.202 C 
HETATM   19  C   UNL     1     -42.477  54.093 -54.636  1.00  0.00     0.032 A 
ENDBRANCH   8  10
ENDBRANCH   7   8
ENDBRANCH   5   7
BRANCH   1  20
HETATM   20  O   UNL     1     -41.202  59.853 -51.508  1.00  0.00    -0.349 OA
BRANCH  20  21
HETATM   21  C   UNL     1     -40.141  58.902 -51.351  1.00  0.00     0.171 C 
HETATM   22  C   UNL     1     -38.918  59.487 -50.662  1.00  0.00     0.034 C 
ENDBRANCH  20  21
ENDBRANCH   1  20
BRANCH   2  23
HETATM   23  O   UNL     1     -43.400  60.607 -49.952  1.00  0.00    -0.339 OA
BRANCH  23  24
HETATM   24  C   UNL     1     -44.320  61.685 -49.850  1.00  0.00     0.278 C 
BRANCH  24  25
HETATM   25  C   UNL     1     -45.325  61.595 -48.693  1.00  0.00     0.242 C 
HETATM   26  N   UNL     1     -44.753  61.364 -47.461  1.00  0.00    -0.351 N 
HETATM   27  H   UNL     1     -43.757  61.160 -47.473  1.00  0.00     0.163 HD
HETATM   28  O   UNL     1     -46.531  61.715 -48.886  1.00  0.00    -0.271 OA
BRANCH  26  29
HETATM   29  C   UNL     1     -45.475  61.161 -46.200  1.00  0.00     0.022 C 
HETATM   30  C   UNL     1     -46.326  59.886 -46.274  1.00  0.00     0.037 C 
HETATM   31  C   UNL     1     -44.432  60.998 -45.080  1.00  0.00     0.037 C 
HETATM   32  C   UNL     1     -46.361  62.370 -45.856  1.00  0.00     0.037 C 
ENDBRANCH  26  29
ENDBRANCH  24  25
ENDBRANCH  23  24
ENDBRANCH   2  23
TORSDOF 9
ENDMDL
MODEL 6
REMARK VINA RESULT:      -7.2      6.269      8.969
REMARK  9 active torsions:
REMARK  status: ('A' for Active; 'I' for Inactive)
REMARK    1  A    between atoms: C_2  and  O_3 
REMARK    2  A    between atoms: O_3  and  C_4 
REMARK    3  A    between atoms: C_5  and  O_6 
REMARK    4  A    between atoms: O_6  and  C_7 
REMARK    5  A    between atoms: C_7  and  C_8 
REMARK       I    between atoms: C_8  and  N_9 
REMARK    6  A    between atoms: N_9  and  C_10 
REMARK    7  A    between atoms: C_17  and  C_18 
REMARK    8  A    between atoms: C_18  and  N_19 
REMARK    9  A    between atoms: N_19  and  C_20 
ROOT
HETATM    1  C   UNL     1     -43.389  56.403 -59.754  1.00  0.00     0.102 A 
HETATM    2  C   UNL     1     -43.071  57.761 -59.589  1.00  0.00     0.102 A 
HETATM    3  C   UNL     1     -42.605  58.194 -58.344  1.00  0.00     0.040 A 
HETATM    4  C   UNL     1     -42.490  57.296 -57.276  1.00  0.00     0.012 A 
HETATM    5  C   UNL     1     -42.848  55.951 -57.427  1.00  0.00    -0.038 A 
HETATM    6  C   UNL     1     -43.305  55.516 -58.675  1.00  0.00     0.048 A 
ENDROOT
BRANCH   5   7
HETATM    7  C   UNL     1     -42.778  55.002 -56.251  1.00  0.00     0.158 C 
BRANCH   7   8
HETATM    8  N   UNL     1     -41.380  54.780 -55.906  1.00  0.00    -0.386 N 
HETATM    9  H   UNL     1     -40.778  55.539 -56.215  1.00  0.00     0.160 HD
BRANCH   8  10
HETATM   10  C   UNL     1     -41.035  54.321 -54.632  1.00  0.00     0.031 A 
HETATM   11  C   UNL     1     -41.336  55.006 -53.450  1.00  0.00     0.068 A 
HETATM   12  C   UNL     1     -41.035  54.453 -52.201  1.00  0.00     0.104 A 
HETATM   13  C   UNL     1     -40.427  53.199 -52.115  1.00  0.00     0.102 A 
HETATM   14  O   UNL     1     -41.363  55.204 -51.100  1.00  0.00    -0.346 OA
HETATM   15  O   UNL     1     -40.077  52.610 -50.927  1.00  0.00    -0.346 OA
HETATM   16  C   UNL     1     -40.172  52.478 -53.274  1.00  0.00     0.042 A 
HETATM   17  C   UNL     1     -40.085  53.557 -49.854  1.00  0.00     0.202 C 
HETATM   18  C   UNL     1     -41.338  54.416 -49.905  1.00  0.00     0.202 C 
HETATM   19  C   UNL     1     -40.485  53.033 -54.518  1.00  0.00     0.032 A 
ENDBRANCH   8  10
ENDBRANCH   7   8
ENDBRANCH   5   7
BRANCH   1  20
HETATM   20  O   UNL     1     -43.891  55.858 -60.909  1.00  0.00    -0.349 OA
BRANCH  20  21
HETATM   21  C   UNL     1     -45.138  55.165 -60.774  1.00  0.00     0.171 C 
HETATM   22  C   UNL     1     -46.330  56.105 -60.667  1.00  0.00     0.034 C 
ENDBRANCH  20  21
ENDBRANCH   1  20
BRANCH   2  23
HETATM   23  O   UNL     1     -43.318  58.584 -60.655  1.00  0.00    -0.339 OA
BRANCH  23  24
HETATM   24  C   UNL     1     -44.006  59.809 -60.449  1.00  0.00     0.278 C 
BRANCH  24  25
HETATM   25  C   UNL     1     -43.220  61.081 -60.800  1.00  0.00     0.242 C 
HETATM   26  N   UNL     1     -42.122  61.308 -60.000  1.00  0.00    -0.351 N 
HETATM   27  H   UNL     1     -42.025  60.684 -59.203  1.00  0.00     0.163 HD
HETATM   28  O   UNL     1     -43.575  61.817 -61.716  1.00  0.00    -0.271 OA
BRANCH  26  29
HETATM   29  C   UNL     1     -41.237  62.477 -60.061  1.00  0.00     0.022 C 
HETATM   30  C   UNL     1     -40.171  62.393 -58.960  1.00  0.00     0.037 C 
HETATM   31  C   UNL     1     -40.536  62.467 -61.432  1.00  0.00     0.037 C 
HETATM   32  C   UNL     1     -42.026  63.789 -59.937  1.00  0.00     0.037 C 
ENDBRANCH  26  29
ENDBRANCH  24  25
ENDBRANCH  23  24
ENDBRANCH   2  23
TORSDOF 9
ENDMDL
MODEL 7
REMARK VINA RESULT:      -7.2      5.280      7.976
REMARK  9 active torsions:
REMARK  status: ('A' for Active; 'I' for Inactive)
REMARK    1  A    between atoms: C_2  and  O_3 
REMARK    2  A    between atoms: O_3  and  C_4 
REMARK    3  A    between atoms: C_5  and  O_6 
REMARK    4  A    between atoms: O_6  and  C_7 
REMARK    5  A    between atoms: C_7  and  C_8 
REMARK       I    between atoms: C_8  and  N_9 
REMARK    6  A    between atoms: N_9  and  C_10 
REMARK    7  A    between atoms: C_17  and  C_18 
REMARK    8  A    between atoms: C_18  and  N_19 
REMARK    9  A    between atoms: N_19  and  C_20 
ROOT
HETATM    1  C   UNL     1     -42.520  57.724 -56.666  1.00  0.00     0.102 A 
HETATM    2  C   UNL     1     -42.663  56.731 -57.648  1.00  0.00     0.102 A 
HETATM    3  C   UNL     1     -42.877  55.411 -57.240  1.00  0.00     0.040 A 
HETATM    4  C   UNL     1     -42.917  55.084 -55.880  1.00  0.00     0.012 A 
HETATM    5  C   UNL     1     -42.731  56.067 -54.899  1.00  0.00    -0.038 A 
HETATM    6  C   UNL     1     -42.526  57.388 -55.307  1.00  0.00     0.048 A 
ENDROOT
BRANCH   5   7
HETATM    7  C   UNL     1     -42.715  55.694 -53.434  1.00  0.00     0.158 C 
BRANCH   7   8
HETATM    8  N   UNL     1     -41.337  55.461 -53.021  1.00  0.00    -0.386 N 
HETATM    9  H   UNL     1     -41.028  56.120 -52.312  1.00  0.00     0.160 HD
BRANCH   8  10
HETATM   10  C   UNL     1     -40.892  54.162 -52.761  1.00  0.00     0.031 A 
HETATM   11  C   UNL     1     -40.765  53.171 -53.741  1.00  0.00     0.068 A 
HETATM   12  C   UNL     1     -40.235  51.915 -53.430  1.00  0.00     0.104 A 
HETATM   13  C   UNL     1     -39.820  51.629 -52.129  1.00  0.00     0.102 A 
HETATM   14  O   UNL     1     -40.157  51.009 -54.459  1.00  0.00    -0.346 OA
HETATM   15  O   UNL     1     -39.320  50.411 -51.747  1.00  0.00    -0.346 OA
HETATM   16  C   UNL     1     -39.885  52.616 -51.155  1.00  0.00     0.042 A 
HETATM   17  C   UNL     1     -39.601  49.403 -52.723  1.00  0.00     0.202 C 
HETATM   18  C   UNL     1     -39.299  49.913 -54.123  1.00  0.00     0.202 C 
HETATM   19  C   UNL     1     -40.405  53.873 -51.475  1.00  0.00     0.032 A 
ENDBRANCH   8  10
ENDBRANCH   7   8
ENDBRANCH   5   7
BRANCH   1  20
HETATM   20  O   UNL     1     -42.267  59.047 -56.930  1.00  0.00    -0.349 OA
BRANCH  20  21
HETATM   21  C   UNL     1     -43.423  59.874 -57.109  1.00  0.00     0.171 C 
HETATM   22  C   UNL     1     -43.436  61.084 -56.187  1.00  0.00     0.034 C 
ENDBRANCH  20  21
ENDBRANCH   1  20
BRANCH   2  23
HETATM   23  O   UNL     1     -42.501  57.125 -58.949  1.00  0.00    -0.339 OA
BRANCH  23  24
HETATM   24  C   UNL     1     -43.058  56.341 -59.994  1.00  0.00     0.278 C 
BRANCH  24  25
HETATM   25  C   UNL     1     -44.592  56.273 -60.030  1.00  0.00     0.242 C 
HETATM   26  N   UNL     1     -45.208  57.485 -60.248  1.00  0.00    -0.351 N 
HETATM   27  H   UNL     1     -44.595  58.296 -60.239  1.00  0.00     0.163 HD
HETATM   28  O   UNL     1     -45.186  55.212 -59.865  1.00  0.00    -0.271 OA
BRANCH  26  29
HETATM   29  C   UNL     1     -46.656  57.727 -60.258  1.00  0.00     0.022 C 
HETATM   30  C   UNL     1     -47.198  57.761 -58.823  1.00  0.00     0.037 C 
HETATM   31  C   UNL     1     -46.901  59.098 -60.914  1.00  0.00     0.037 C 
HETATM   32  C   UNL     1     -47.400  56.663 -61.082  1.00  0.00     0.037 C 
ENDBRANCH  26  29
ENDBRANCH  24  25
ENDBRANCH  23  24
ENDBRANCH   2  23
TORSDOF 9
ENDMDL
MODEL 8
REMARK VINA RESULT:      -7.1      6.151      9.032
REMARK  9 active torsions:
REMARK  status: ('A' for Active; 'I' for Inactive)
REMARK    1  A    between atoms: C_2  and  O_3 
REMARK    2  A    between atoms: O_3  and  C_4 
REMARK    3  A    between atoms: C_5  and  O_6 
REMARK    4  A    between atoms: O_6  and  C_7 
REMARK    5  A    between atoms: C_7  and  C_8 
REMARK       I    between atoms: C_8  and  N_9 
REMARK    6  A    between atoms: N_9  and  C_10 
REMARK    7  A    between atoms: C_17  and  C_18 
REMARK    8  A    between atoms: C_18  and  N_19 
REMARK    9  A    between atoms: N_19  and  C_20 
ROOT
HETATM    1  C   UNL     1     -42.731  56.900 -58.768  1.00  0.00     0.102 A 
HETATM    2  C   UNL     1     -42.158  58.175 -58.903  1.00  0.00     0.102 A 
HETATM    3  C   UNL     1     -42.036  58.980 -57.767  1.00  0.00     0.040 A 
HETATM    4  C   UNL     1     -42.506  58.535 -56.526  1.00  0.00     0.012 A 
HETATM    5  C   UNL     1     -43.118  57.281 -56.397  1.00  0.00    -0.038 A 
HETATM    6  C   UNL     1     -43.231  56.472 -57.532  1.00  0.00     0.048 A 
ENDROOT
BRANCH   5   7
HETATM    7  C   UNL     1     -43.678  56.834 -55.065  1.00  0.00     0.158 C 
BRANCH   7   8
HETATM    8  N   UNL     1     -43.691  55.378 -55.023  1.00  0.00    -0.386 N 
HETATM    9  H   UNL     1     -43.798  54.964 -55.945  1.00  0.00     0.160 HD
BRANCH   8  10
HETATM   10  C   UNL     1     -42.759  54.689 -54.242  1.00  0.00     0.031 A 
HETATM   11  C   UNL     1     -42.155  53.488 -54.630  1.00  0.00     0.068 A 
HETATM   12  C   UNL     1     -41.168  52.892 -53.838  1.00  0.00     0.104 A 
HETATM   13  C   UNL     1     -40.767  53.490 -52.643  1.00  0.00     0.102 A 
HETATM   14  O   UNL     1     -40.639  51.712 -54.300  1.00  0.00    -0.346 OA
HETATM   15  O   UNL     1     -39.829  52.946 -51.804  1.00  0.00    -0.346 OA
HETATM   16  C   UNL     1     -41.314  54.710 -52.268  1.00  0.00     0.042 A 
HETATM   17  C   UNL     1     -39.586  51.571 -52.116  1.00  0.00     0.202 C 
HETATM   18  C   UNL     1     -39.425  51.381 -53.616  1.00  0.00     0.202 C 
HETATM   19  C   UNL     1     -42.292  55.307 -53.069  1.00  0.00     0.032 A 
ENDBRANCH   8  10
ENDBRANCH   7   8
ENDBRANCH   5   7
BRANCH   1  20
HETATM   20  O   UNL     1     -42.944  56.029 -59.807  1.00  0.00    -0.349 OA
BRANCH  20  21
HETATM   21  C   UNL     1     -44.311  55.861 -60.202  1.00  0.00     0.171 C 
HETATM   22  C   UNL     1     -44.809  54.435 -60.025  1.00  0.00     0.034 C 
ENDBRANCH  20  21
ENDBRANCH   1  20
BRANCH   2  23
HETATM   23  O   UNL     1     -41.827  58.568 -60.172  1.00  0.00    -0.339 OA
BRANCH  23  24
HETATM   24  C   UNL     1     -42.690  59.445 -60.882  1.00  0.00     0.278 C 
BRANCH  24  25
HETATM   25  C   UNL     1     -42.064  60.773 -61.334  1.00  0.00     0.242 C 
HETATM   26  N   UNL     1     -41.303  61.398 -60.371  1.00  0.00    -0.351 N 
HETATM   27  H   UNL     1     -41.339  60.979 -59.445  1.00  0.00     0.163 HD
HETATM   28  O   UNL     1     -42.256  61.216 -62.462  1.00  0.00    -0.271 OA
BRANCH  26  29
HETATM   29  C   UNL     1     -40.652  62.706 -60.501  1.00  0.00     0.022 C 
HETATM   30  C   UNL     1     -39.687  62.938 -59.330  1.00  0.00     0.037 C 
HETATM   31  C   UNL     1     -39.847  62.704 -61.814  1.00  0.00     0.037 C 
HETATM   32  C   UNL     1     -41.681  63.845 -60.574  1.00  0.00     0.037 C 
ENDBRANCH  26  29
ENDBRANCH  24  25
ENDBRANCH  23  24
ENDBRANCH   2  23
TORSDOF 9
ENDMDL
MODEL 9
REMARK VINA RESULT:      -7.0      4.201      7.412
REMARK  9 active torsions:
REMARK  status: ('A' for Active; 'I' for Inactive)
REMARK    1  A    between atoms: C_2  and  O_3 
REMARK    2  A    between atoms: O_3  and  C_4 
REMARK    3  A    between atoms: C_5  and  O_6 
REMARK    4  A    between atoms: O_6  and  C_7 
REMARK    5  A    between atoms: C_7  and  C_8 
REMARK       I    between atoms: C_8  and  N_9 
REMARK    6  A    between atoms: N_9  and  C_10 
REMARK    7  A    between atoms: C_17  and  C_18 
REMARK    8  A    between atoms: C_18  and  N_19 
REMARK    9  A    between atoms: N_19  and  C_20 
ROOT
HETATM    1  C   UNL     1     -42.675  58.165 -55.087  1.00  0.00     0.102 A 
HETATM    2  C   UNL     1     -41.973  59.372 -54.936  1.00  0.00     0.102 A 
HETATM    3  C   UNL     1     -41.800  59.891 -53.650  1.00  0.00     0.040 A 
HETATM    4  C   UNL     1     -42.343  59.235 -52.539  1.00  0.00     0.012 A 
HETATM    5  C   UNL     1     -43.080  58.054 -52.691  1.00  0.00    -0.038 A 
HETATM    6  C   UNL     1     -43.246  57.530 -53.977  1.00  0.00     0.048 A 
ENDROOT
BRANCH   5   7
HETATM    7  C   UNL     1     -43.714  57.386 -51.492  1.00  0.00     0.158 C 
BRANCH   7   8
HETATM    8  N   UNL     1     -43.953  55.983 -51.804  1.00  0.00    -0.386 N 
HETATM    9  H   UNL     1     -44.541  55.862 -52.624  1.00  0.00     0.160 HD
BRANCH   8  10
HETATM   10  C   UNL     1     -42.898  55.068 -51.773  1.00  0.00     0.031 A 
HETATM   11  C   UNL     1     -42.577  54.213 -52.834  1.00  0.00     0.068 A 
HETATM   12  C   UNL     1     -41.458  53.377 -52.771  1.00  0.00     0.104 A 
HETATM   13  C   UNL     1     -40.637  53.384 -51.642  1.00  0.00     0.102 A 
HETATM   14  O   UNL     1     -41.229  52.572 -53.859  1.00  0.00    -0.346 OA
HETATM   15  O   UNL     1     -39.542  52.571 -51.500  1.00  0.00    -0.346 OA
HETATM   16  C   UNL     1     -40.906  54.264 -50.603  1.00  0.00     0.042 A 
HETATM   17  C   UNL     1     -39.556  51.507 -52.457  1.00  0.00     0.202 C 
HETATM   18  C   UNL     1     -39.903  52.034 -53.840  1.00  0.00     0.202 C 
HETATM   19  C   UNL     1     -42.020  55.105 -50.677  1.00  0.00     0.032 A 
ENDBRANCH   8  10
ENDBRANCH   7   8
ENDBRANCH   5   7
BRANCH   1  20
HETATM   20  O   UNL     1     -42.948  57.570 -56.293  1.00  0.00    -0.349 OA
BRANCH  20  21
HETATM   21  C   UNL     1     -42.770  56.149 -56.336  1.00  0.00     0.171 C 
HETATM   22  C   UNL     1     -43.104  55.550 -57.693  1.00  0.00     0.034 C 
ENDBRANCH  20  21
ENDBRANCH   1  20
BRANCH   2  23
HETATM   23  O   UNL     1     -41.574  59.997 -56.087  1.00  0.00    -0.339 OA
BRANCH  23  24
HETATM   24  C   UNL     1     -42.436  60.939 -56.709  1.00  0.00     0.278 C 
BRANCH  24  25
HETATM   25  C   UNL     1     -42.821  60.631 -58.163  1.00  0.00     0.242 C 
HETATM   26  N   UNL     1     -42.370  59.413 -58.623  1.00  0.00    -0.351 N 
HETATM   27  H   UNL     1     -41.740  58.916 -57.999  1.00  0.00     0.163 HD
HETATM   28  O   UNL     1     -43.468  61.429 -58.834  1.00  0.00    -0.271 OA
BRANCH  26  29
HETATM   29  C   UNL     1     -42.527  58.894 -59.987  1.00  0.00     0.022 C 
HETATM   30  C   UNL     1     -44.013  58.677 -60.303  1.00  0.00     0.037 C 
HETATM   31  C   UNL     1     -41.961  59.945 -60.960  1.00  0.00     0.037 C 
HETATM   32  C   UNL     1     -41.745  57.587 -60.187  1.00  0.00     0.037 C 
ENDBRANCH  26  29
ENDBRANCH  24  25
ENDBRANCH  23  24
ENDBRANCH   2  23
TORSDOF 9
ENDMDL
MODEL 10
REMARK VINA RESULT:      -6.9      1.754      2.735
REMARK  9 active torsions:
REMARK  status: ('A' for Active; 'I' for Inactive)
REMARK    1  A    between atoms: C_2  and  O_3 
REMARK    2  A    between atoms: O_3  and  C_4 
REMARK    3  A    between atoms: C_5  and  O_6 
REMARK    4  A    between atoms: O_6  and  C_7 
REMARK    5  A    between atoms: C_7  and  C_8 
REMARK       I    between atoms: C_8  and  N_9 
REMARK    6  A    between atoms: N_9  and  C_10 
REMARK    7  A    between atoms: C_17  and  C_18 
REMARK    8  A    between atoms: C_18  and  N_19 
REMARK    9  A    between atoms: N_19  and  C_20 
ROOT
HETATM    1  C   UNL     1     -43.665  59.118 -53.114  1.00  0.00     0.102 A 
HETATM    2  C   UNL     1     -43.868  58.947 -51.735  1.00  0.00     0.102 A 
HETATM    3  C   UNL     1     -43.717  57.669 -51.189  1.00  0.00     0.040 A 
HETATM    4  C   UNL     1     -43.402  56.579 -52.006  1.00  0.00     0.012 A 
HETATM    5  C   UNL     1     -43.242  56.739 -53.389  1.00  0.00    -0.038 A 
HETATM    6  C   UNL     1     -43.384  58.019 -53.934  1.00  0.00     0.048 A 
ENDROOT
BRANCH   5   7
HETATM    7  C   UNL     1     -42.962  55.545 -54.273  1.00  0.00     0.158 C 
BRANCH   7   8
HETATM    8  N   UNL     1     -41.533  55.264 -54.249  1.00  0.00    -0.386 N 
HETATM    9  H   UNL     1     -40.983  56.071 -53.965  1.00  0.00     0.160 HD
BRANCH   8  10
HETATM   10  C   UNL     1     -41.059  54.079 -53.681  1.00  0.00     0.031 A 
HETATM   11  C   UNL     1     -40.853  52.897 -54.401  1.00  0.00     0.068 A 
HETATM   12  C   UNL     1     -40.299  51.769 -53.789  1.00  0.00     0.104 A 
HETATM   13  C   UNL     1     -39.938  51.805 -52.441  1.00  0.00     0.102 A 
HETATM   14  O   UNL     1     -40.141  50.656 -54.579  1.00  0.00    -0.346 OA
HETATM   15  O   UNL     1     -39.418  50.728 -51.770  1.00  0.00    -0.346 OA
HETATM   16  C   UNL     1     -40.082  52.984 -51.723  1.00  0.00     0.042 A 
HETATM   17  C   UNL     1     -39.619  49.513 -52.500  1.00  0.00     0.202 C 
HETATM   18  C   UNL     1     -39.266  49.702 -53.966  1.00  0.00     0.202 C 
HETATM   19  C   UNL     1     -40.626  54.111 -52.344  1.00  0.00     0.032 A 
ENDBRANCH   8  10
ENDBRANCH   7   8
ENDBRANCH   5   7
BRANCH   1  20
HETATM   20  O   UNL     1     -43.819  60.308 -53.781  1.00  0.00    -0.349 OA
BRANCH  20  21
HETATM   21  C   UNL     1     -44.981  60.404 -54.614  1.00  0.00     0.171 C 
HETATM   22  C   UNL     1     -44.708  61.110 -55.933  1.00  0.00     0.034 C 
ENDBRANCH  20  21
ENDBRANCH   1  20
BRANCH   2  23
HETATM   23  O   UNL     1     -44.280  60.049 -51.034  1.00  0.00    -0.339 OA
BRANCH  23  24
HETATM   24  C   UNL     1     -45.480  59.989 -50.277  1.00  0.00     0.278 C 
BRANCH  24  25
HETATM   25  C   UNL     1     -45.466  60.753 -48.945  1.00  0.00     0.242 C 
HETATM   26  N   UNL     1     -45.842  59.999 -47.855  1.00  0.00    -0.351 N 
HETATM   27  H   UNL     1     -46.197  59.070 -48.067  1.00  0.00     0.163 HD
HETATM   28  O   UNL     1     -45.152  61.939 -48.893  1.00  0.00    -0.271 OA
BRANCH  26  29
HETATM   29  C   UNL     1     -45.988  60.487 -46.478  1.00  0.00     0.022 C 
HETATM   30  C   UNL     1     -46.967  61.668 -46.436  1.00  0.00     0.037 C 
HETATM   31  C   UNL     1     -46.560  59.337 -45.629  1.00  0.00     0.037 C 
HETATM   32  C   UNL     1     -44.634  60.897 -45.878  1.00  0.00     0.037 C 
ENDBRANCH  26  29
ENDBRANCH  24  25
ENDBRANCH  23  24
ENDBRANCH   2  23
TORSDOF 9
ENDMDL
