MODEL 1
REMARK VINA RESULT:      -8.9      0.000      0.000
REMARK  8 active torsions:
REMARK  status: ('A' for Active; 'I' for Inactive)
REMARK    1  A    between atoms: C_12  and  S_13 
REMARK    2  A    between atoms: S_13  and  C_14 
REMARK    3  A    between atoms: C_14  and  C_15 
REMARK       I    between atoms: C_15  and  N_16 
REMARK    4  A    between atoms: N_16  and  C_17 
REMARK    5  A    between atoms: C_17  and  C_18 
REMARK    6  A    between atoms: C_18  and  C_19 
REMARK    7  A    between atoms: C_21  and  O_22 
REMARK    8  A    between atoms: C_24  and  O_25 
ROOT
HETATM    1  C   UNL     1     -42.809  57.775 -51.429  1.00  0.00     0.185 C 
ENDROOT
BRANCH   1   2
HETATM    2  S   UNL     1     -41.154  57.094 -51.742  1.00  0.00    -0.080 SA
BRANCH   2   3
HETATM    3  C   UNL     1     -41.169  55.708 -50.704  1.00  0.00     0.197 A 
HETATM    4  N   UNL     1     -40.854  54.401 -51.042  1.00  0.00    -0.271 N 
HETATM    5  C   UNL     1     -40.549  53.733 -52.263  1.00  0.00     0.054 A 
HETATM    6  C   UNL     1     -40.876  53.740 -49.820  1.00  0.00     0.159 A 
HETATM    7  C   UNL     1     -40.180  52.368 -52.168  1.00  0.00    -0.003 A 
HETATM    8  C   UNL     1     -40.619  54.350 -53.517  1.00  0.00     0.031 A 
HETATM    9  C   UNL     1     -40.147  51.693 -50.844  1.00  0.00    -0.046 A 
HETATM   10  C   UNL     1     -39.862  51.672 -53.347  1.00  0.00     0.014 A 
HETATM   11  C   UNL     1     -39.726  50.254 -50.739  1.00  0.00     0.049 C 
HETATM   12  C   UNL     1     -40.502  52.382 -49.746  1.00  0.00     0.060 A 
HETATM   13  C   UNL     1     -39.919  52.302 -54.590  1.00  0.00     0.001 A 
HETATM   14  C   UNL     1     -40.302  53.634 -54.674  1.00  0.00     0.002 A 
HETATM   15  N   UNL     1     -41.263  54.557 -48.865  1.00  0.00    -0.129 NA
HETATM   16  N   UNL     1     -41.448  55.789 -49.420  1.00  0.00    -0.122 NA
ENDBRANCH   2   3
ENDBRANCH   1   2
BRANCH   1  17
HETATM   17  C   UNL     1     -43.853  56.694 -51.641  1.00  0.00     0.227 C 
HETATM   18  N   UNL     1     -44.034  56.166 -52.894  1.00  0.00    -0.360 N 
HETATM   19  H   UNL     1     -44.809  55.512 -52.916  1.00  0.00     0.162 HD
HETATM   20  O   UNL     1     -44.533  56.251 -50.714  1.00  0.00    -0.273 OA
BRANCH  18  21
HETATM   21  C   UNL     1     -43.612  56.757 -54.153  1.00  0.00     0.127 C 
BRANCH  21  22
HETATM   22  C   UNL     1     -43.359  55.702 -55.230  1.00  0.00     0.058 C 
BRANCH  22  23
HETATM   23  C   UNL     1     -43.039  56.350 -56.556  1.00  0.00    -0.054 A 
HETATM   24  C   UNL     1     -43.318  55.674 -57.755  1.00  0.00     0.046 A 
HETATM   25  C   UNL     1     -42.971  56.231 -58.991  1.00  0.00     0.102 A 
HETATM   26  C   UNL     1     -42.366  57.501 -59.037  1.00  0.00     0.101 A 
HETATM   27  C   UNL     1     -42.102  58.180 -57.843  1.00  0.00     0.040 A 
HETATM   28  C   UNL     1     -42.430  57.606 -56.611  1.00  0.00     0.010 A 
BRANCH  25  29
HETATM   29  O   UNL     1     -43.201  55.618 -60.198  1.00  0.00    -0.353 OA
HETATM   30  C   UNL     1     -44.558  55.492 -60.607  1.00  0.00     0.210 C 
ENDBRANCH  25  29
BRANCH  26  31
HETATM   31  O   UNL     1     -42.066  57.982 -60.287  1.00  0.00    -0.353 OA
HETATM   32  C   UNL     1     -42.222  59.374 -60.514  1.00  0.00     0.210 C 
ENDBRANCH  26  31
ENDBRANCH  22  23
ENDBRANCH  21  22
ENDBRANCH  18  21
ENDBRANCH   1  17
TORSDOF 8
ENDMDL
MODEL 2
REMARK VINA RESULT:      -8.7      0.990      1.923
REMARK  8 active torsions:
REMARK  status: ('A' for Active; 'I' for Inactive)
REMARK    1  A    between atoms: C_12  and  S_13 
REMARK    2  A    between atoms: S_13  and  C_14 
REMARK    3  A    between atoms: C_14  and  C_15 
REMARK       I    between atoms: C_15  and  N_16 
REMARK    4  A    between atoms: N_16  and  C_17 
REMARK    5  A    between atoms: C_17  and  C_18 
REMARK    6  A    between atoms: C_18  and  C_19 
REMARK    7  A    between atoms: C_21  and  O_22 
REMARK    8  A    between atoms: C_24  and  O_25 
ROOT
HETATM    1  C   UNL     1     -43.009  56.822 -51.356  1.00  0.00     0.185 C 
ENDROOT
BRANCH   1   2
HETATM    2  S   UNL     1     -41.293  56.870 -50.760  1.00  0.00    -0.080 SA
BRANCH   2   3
HETATM    3  C   UNL     1     -41.148  55.296 -50.054  1.00  0.00     0.197 A 
HETATM    4  N   UNL     1     -40.813  54.114 -50.696  1.00  0.00    -0.271 N 
HETATM    5  C   UNL     1     -40.602  53.743 -52.056  1.00  0.00     0.054 A 
HETATM    6  C   UNL     1     -40.687  53.206 -49.651  1.00  0.00     0.159 A 
HETATM    7  C   UNL     1     -40.169  52.415 -52.293  1.00  0.00    -0.003 A 
HETATM    8  C   UNL     1     -40.821  54.608 -53.133  1.00  0.00     0.031 A 
HETATM    9  C   UNL     1     -39.978  51.475 -51.158  1.00  0.00    -0.046 A 
HETATM   10  C   UNL     1     -39.940  52.009 -53.620  1.00  0.00     0.014 A 
HETATM   11  C   UNL     1     -39.489  50.076 -51.407  1.00  0.00     0.049 C 
HETATM   12  C   UNL     1     -40.251  51.889 -49.909  1.00  0.00     0.060 A 
HETATM   13  C   UNL     1     -40.145  52.886 -54.685  1.00  0.00     0.001 A 
HETATM   14  C   UNL     1     -40.590  54.178 -54.442  1.00  0.00     0.002 A 
HETATM   15  N   UNL     1     -41.012  53.774 -48.510  1.00  0.00    -0.129 NA
HETATM   16  N   UNL     1     -41.303  55.083 -48.764  1.00  0.00    -0.122 NA
ENDBRANCH   2   3
ENDBRANCH   1   2
BRANCH   1  17
HETATM   17  C   UNL     1     -43.335  58.118 -52.076  1.00  0.00     0.227 C 
HETATM   18  N   UNL     1     -43.649  58.089 -53.410  1.00  0.00    -0.360 N 
HETATM   19  H   UNL     1     -43.769  59.023 -53.787  1.00  0.00     0.162 HD
HETATM   20  O   UNL     1     -43.352  59.203 -51.493  1.00  0.00    -0.273 OA
BRANCH  18  21
HETATM   21  C   UNL     1     -43.358  57.016 -54.347  1.00  0.00     0.127 C 
BRANCH  21  22
HETATM   22  C   UNL     1     -42.269  57.400 -55.348  1.00  0.00     0.058 C 
BRANCH  22  23
HETATM   23  C   UNL     1     -42.634  56.953 -56.742  1.00  0.00    -0.054 A 
HETATM   24  C   UNL     1     -42.692  57.888 -57.789  1.00  0.00     0.046 A 
HETATM   25  C   UNL     1     -43.090  57.504 -59.074  1.00  0.00     0.102 A 
HETATM   26  C   UNL     1     -43.405  56.156 -59.332  1.00  0.00     0.101 A 
HETATM   27  C   UNL     1     -43.333  55.224 -58.293  1.00  0.00     0.040 A 
HETATM   28  C   UNL     1     -42.958  55.620 -57.006  1.00  0.00     0.010 A 
BRANCH  25  29
HETATM   29  O   UNL     1     -43.182  58.369 -60.137  1.00  0.00    -0.353 OA
HETATM   30  C   UNL     1     -41.970  58.961 -60.590  1.00  0.00     0.210 C 
ENDBRANCH  25  29
BRANCH  26  31
HETATM   31  O   UNL     1     -43.777  55.859 -60.620  1.00  0.00    -0.353 OA
HETATM   32  C   UNL     1     -44.846  54.943 -60.803  1.00  0.00     0.210 C 
ENDBRANCH  26  31
ENDBRANCH  22  23
ENDBRANCH  21  22
ENDBRANCH  18  21
ENDBRANCH   1  17
TORSDOF 8
ENDMDL
MODEL 3
REMARK VINA RESULT:      -8.2      2.722      7.843
REMARK  8 active torsions:
REMARK  status: ('A' for Active; 'I' for Inactive)
REMARK    1  A    between atoms: C_12  and  S_13 
REMARK    2  A    between atoms: S_13  and  C_14 
REMARK    3  A    between atoms: C_14  and  C_15 
REMARK       I    between atoms: C_15  and  N_16 
REMARK    4  A    between atoms: N_16  and  C_17 
REMARK    5  A    between atoms: C_17  and  C_18 
REMARK    6  A    between atoms: C_18  and  C_19 
REMARK    7  A    between atoms: C_21  and  O_22 
REMARK    8  A    between atoms: C_24  and  O_25 
ROOT
HETATM    1  C   UNL     1     -41.560  57.747 -52.935  1.00  0.00     0.185 C 
ENDROOT
BRANCH   1   2
HETATM    2  S   UNL     1     -42.481  57.171 -54.392  1.00  0.00    -0.080 SA
BRANCH   2   3
HETATM    3  C   UNL     1     -42.137  58.440 -55.518  1.00  0.00     0.197 A 
HETATM    4  N   UNL     1     -42.347  58.428 -56.888  1.00  0.00    -0.271 N 
HETATM    5  C   UNL     1     -42.764  57.438 -57.825  1.00  0.00     0.054 A 
HETATM    6  C   UNL     1     -42.051  59.732 -57.269  1.00  0.00     0.159 A 
HETATM    7  C   UNL     1     -42.950  57.865 -59.163  1.00  0.00    -0.003 A 
HETATM    8  C   UNL     1     -42.969  56.096 -57.486  1.00  0.00     0.031 A 
HETATM    9  C   UNL     1     -42.691  59.279 -59.540  1.00  0.00    -0.046 A 
HETATM   10  C   UNL     1     -43.371  56.922 -60.118  1.00  0.00     0.014 A 
HETATM   11  C   UNL     1     -42.918  59.738 -60.953  1.00  0.00     0.049 C 
HETATM   12  C   UNL     1     -42.247  60.137 -58.607  1.00  0.00     0.060 A 
HETATM   13  C   UNL     1     -43.588  55.590 -59.765  1.00  0.00     0.001 A 
HETATM   14  C   UNL     1     -43.382  55.179 -58.455  1.00  0.00     0.002 A 
HETATM   15  N   UNL     1     -41.614  60.421 -56.239  1.00  0.00    -0.129 NA
HETATM   16  N   UNL     1     -41.666  59.611 -55.143  1.00  0.00    -0.122 NA
ENDBRANCH   2   3
ENDBRANCH   1   2
BRANCH   1  17
HETATM   17  C   UNL     1     -42.499  57.850 -51.747  1.00  0.00     0.227 C 
HETATM   18  N   UNL     1     -42.109  57.350 -50.532  1.00  0.00    -0.360 N 
HETATM   19  H   UNL     1     -42.853  57.412 -49.845  1.00  0.00     0.162 HD
HETATM   20  O   UNL     1     -43.601  58.396 -51.831  1.00  0.00    -0.273 OA
BRANCH  18  21
HETATM   21  C   UNL     1     -41.045  56.389 -50.290  1.00  0.00     0.127 C 
BRANCH  21  22
HETATM   22  C   UNL     1     -41.587  54.995 -49.973  1.00  0.00     0.058 C 
BRANCH  22  23
HETATM   23  C   UNL     1     -41.017  53.966 -50.919  1.00  0.00    -0.054 A 
HETATM   24  C   UNL     1     -41.194  54.110 -52.305  1.00  0.00     0.046 A 
HETATM   25  C   UNL     1     -40.728  53.135 -53.193  1.00  0.00     0.102 A 
HETATM   26  C   UNL     1     -40.043  52.010 -52.697  1.00  0.00     0.101 A 
HETATM   27  C   UNL     1     -39.855  51.875 -51.318  1.00  0.00     0.040 A 
HETATM   28  C   UNL     1     -40.344  52.842 -50.434  1.00  0.00     0.010 A 
BRANCH  25  29
HETATM   29  O   UNL     1     -40.881  53.206 -54.557  1.00  0.00    -0.353 OA
HETATM   30  C   UNL     1     -40.165  54.234 -55.231  1.00  0.00     0.210 C 
ENDBRANCH  25  29
BRANCH  26  31
HETATM   31  O   UNL     1     -39.610  51.104 -53.633  1.00  0.00    -0.353 OA
HETATM   32  C   UNL     1     -39.563  49.737 -53.256  1.00  0.00     0.210 C 
ENDBRANCH  26  31
ENDBRANCH  22  23
ENDBRANCH  21  22
ENDBRANCH  18  21
ENDBRANCH   1  17
TORSDOF 8
ENDMDL
MODEL 4
REMARK VINA RESULT:      -8.2      2.614      5.333
REMARK  8 active torsions:
REMARK  status: ('A' for Active; 'I' for Inactive)
REMARK    1  A    between atoms: C_12  and  S_13 
REMARK    2  A    between atoms: S_13  and  C_14 
REMARK    3  A    between atoms: C_14  and  C_15 
REMARK       I    between atoms: C_15  and  N_16 
REMARK    4  A    between atoms: N_16  and  C_17 
REMARK    5  A    between atoms: C_17  and  C_18 
REMARK    6  A    between atoms: C_18  and  C_19 
REMARK    7  A    between atoms: C_21  and  O_22 
REMARK    8  A    between atoms: C_24  and  O_25 
ROOT
HETATM    1  C   UNL     1     -42.648  56.459 -56.566  1.00  0.00     0.185 C 
ENDROOT
BRANCH   1   2
HETATM    2  S   UNL     1     -42.835  54.815 -55.814  1.00  0.00    -0.080 SA
BRANCH   2   3
HETATM    3  C   UNL     1     -42.819  55.223 -54.131  1.00  0.00     0.197 A 
HETATM    4  N   UNL     1     -42.059  54.636 -53.131  1.00  0.00    -0.271 N 
HETATM    5  C   UNL     1     -41.183  53.513 -53.073  1.00  0.00     0.054 A 
HETATM    6  C   UNL     1     -42.312  55.437 -52.024  1.00  0.00     0.159 A 
HETATM    7  C   UNL     1     -40.507  53.295 -51.847  1.00  0.00    -0.003 A 
HETATM    8  C   UNL     1     -40.990  52.631 -54.142  1.00  0.00     0.031 A 
HETATM    9  C   UNL     1     -40.742  54.201 -50.692  1.00  0.00    -0.046 A 
HETATM   10  C   UNL     1     -39.627  52.204 -51.749  1.00  0.00     0.014 A 
HETATM   11  C   UNL     1     -40.002  53.988 -49.401  1.00  0.00     0.049 C 
HETATM   12  C   UNL     1     -41.626  55.205 -50.813  1.00  0.00     0.060 A 
HETATM   13  C   UNL     1     -39.429  51.341 -52.827  1.00  0.00     0.001 A 
HETATM   14  C   UNL     1     -40.113  51.552 -54.017  1.00  0.00     0.002 A 
HETATM   15  N   UNL     1     -43.212  56.351 -52.317  1.00  0.00    -0.129 NA
HETATM   16  N   UNL     1     -43.530  56.214 -53.636  1.00  0.00    -0.122 NA
ENDBRANCH   2   3
ENDBRANCH   1   2
BRANCH   1  17
HETATM   17  C   UNL     1     -43.583  56.584 -57.755  1.00  0.00     0.227 C 
HETATM   18  N   UNL     1     -44.662  57.427 -57.681  1.00  0.00    -0.360 N 
HETATM   19  H   UNL     1     -45.247  57.360 -58.508  1.00  0.00     0.162 HD
HETATM   20  O   UNL     1     -43.391  55.968 -58.806  1.00  0.00    -0.273 OA
BRANCH  18  21
HETATM   21  C   UNL     1     -45.262  57.962 -56.470  1.00  0.00     0.127 C 
BRANCH  21  22
HETATM   22  C   UNL     1     -44.890  59.426 -56.238  1.00  0.00     0.058 C 
BRANCH  22  23
HETATM   23  C   UNL     1     -44.342  59.630 -54.847  1.00  0.00    -0.054 A 
HETATM   24  C   UNL     1     -42.954  59.654 -54.633  1.00  0.00     0.046 A 
HETATM   25  C   UNL     1     -42.428  59.779 -53.343  1.00  0.00     0.102 A 
HETATM   26  C   UNL     1     -43.300  59.916 -52.245  1.00  0.00     0.101 A 
HETATM   27  C   UNL     1     -44.681  59.907 -52.461  1.00  0.00     0.040 A 
HETATM   28  C   UNL     1     -45.199  59.758 -53.751  1.00  0.00     0.010 A 
BRANCH  25  29
HETATM   29  O   UNL     1     -41.083  59.794 -53.062  1.00  0.00    -0.353 OA
HETATM   30  C   UNL     1     -40.389  58.558 -53.175  1.00  0.00     0.210 C 
ENDBRANCH  25  29
BRANCH  26  31
HETATM   31  O   UNL     1     -42.705  60.043 -51.015  1.00  0.00    -0.353 OA
HETATM   32  C   UNL     1     -42.835  61.287 -50.344  1.00  0.00     0.210 C 
ENDBRANCH  26  31
ENDBRANCH  22  23
ENDBRANCH  21  22
ENDBRANCH  18  21
ENDBRANCH   1  17
TORSDOF 8
ENDMDL
MODEL 5
REMARK VINA RESULT:      -8.0      4.519      8.489
REMARK  8 active torsions:
REMARK  status: ('A' for Active; 'I' for Inactive)
REMARK    1  A    between atoms: C_12  and  S_13 
REMARK    2  A    between atoms: S_13  and  C_14 
REMARK    3  A    between atoms: C_14  and  C_15 
REMARK       I    between atoms: C_15  and  N_16 
REMARK    4  A    between atoms: N_16  and  C_17 
REMARK    5  A    between atoms: C_17  and  C_18 
REMARK    6  A    between atoms: C_18  and  C_19 
REMARK    7  A    between atoms: C_21  and  O_22 
REMARK    8  A    between atoms: C_24  and  O_25 
ROOT
HETATM    1  C   UNL     1     -43.855  58.261 -52.414  1.00  0.00     0.185 C 
ENDROOT
BRANCH   1   2
HETATM    2  S   UNL     1     -42.173  57.811 -51.892  1.00  0.00    -0.080 SA
BRANCH   2   3
HETATM    3  C   UNL     1     -41.692  56.779 -53.198  1.00  0.00     0.197 A 
HETATM    4  N   UNL     1     -41.239  55.472 -53.112  1.00  0.00    -0.271 N 
HETATM    5  C   UNL     1     -40.910  54.598 -52.036  1.00  0.00     0.054 A 
HETATM    6  C   UNL     1     -41.149  55.077 -54.442  1.00  0.00     0.159 A 
HETATM    7  C   UNL     1     -40.565  53.267 -52.378  1.00  0.00    -0.003 A 
HETATM    8  C   UNL     1     -40.894  55.000 -50.696  1.00  0.00     0.031 A 
HETATM    9  C   UNL     1     -40.536  52.844 -53.803  1.00  0.00    -0.046 A 
HETATM   10  C   UNL     1     -40.242  52.369 -51.346  1.00  0.00     0.014 A 
HETATM   11  C   UNL     1     -40.200  51.425 -54.163  1.00  0.00     0.049 C 
HETATM   12  C   UNL     1     -40.807  53.746 -54.761  1.00  0.00     0.060 A 
HETATM   13  C   UNL     1     -40.245  52.777 -50.012  1.00  0.00     0.001 A 
HETATM   14  C   UNL     1     -40.564  54.089 -49.690  1.00  0.00     0.002 A 
HETATM   15  N   UNL     1     -41.427  56.086 -55.239  1.00  0.00    -0.129 NA
HETATM   16  N   UNL     1     -41.765  57.152 -54.458  1.00  0.00    -0.122 NA
ENDBRANCH   2   3
ENDBRANCH   1   2
BRANCH   1  17
HETATM   17  C   UNL     1     -44.819  58.055 -51.260  1.00  0.00     0.227 C 
HETATM   18  N   UNL     1     -45.487  59.131 -50.737  1.00  0.00    -0.360 N 
HETATM   19  H   UNL     1     -46.038  58.872 -49.925  1.00  0.00     0.162 HD
HETATM   20  O   UNL     1     -45.043  56.938 -50.788  1.00  0.00    -0.273 OA
BRANCH  18  21
HETATM   21  C   UNL     1     -45.131  60.532 -50.892  1.00  0.00     0.127 C 
BRANCH  21  22
HETATM   22  C   UNL     1     -44.128  60.994 -49.835  1.00  0.00     0.058 C 
BRANCH  22  23
HETATM   23  C   UNL     1     -44.837  61.571 -48.634  1.00  0.00    -0.054 A 
HETATM   24  C   UNL     1     -45.735  60.780 -47.899  1.00  0.00     0.046 A 
HETATM   25  C   UNL     1     -46.449  61.314 -46.822  1.00  0.00     0.102 A 
HETATM   26  C   UNL     1     -46.241  62.655 -46.445  1.00  0.00     0.101 A 
HETATM   27  C   UNL     1     -45.336  63.438 -47.168  1.00  0.00     0.040 A 
HETATM   28  C   UNL     1     -44.644  62.903 -48.259  1.00  0.00     0.010 A 
BRANCH  25  29
HETATM   29  O   UNL     1     -47.352  60.601 -46.072  1.00  0.00    -0.353 OA
HETATM   30  C   UNL     1     -46.984  59.275 -45.713  1.00  0.00     0.210 C 
ENDBRANCH  25  29
BRANCH  26  31
HETATM   31  O   UNL     1     -46.972  63.102 -45.373  1.00  0.00    -0.353 OA
HETATM   32  C   UNL     1     -46.863  64.474 -45.025  1.00  0.00     0.210 C 
ENDBRANCH  26  31
ENDBRANCH  22  23
ENDBRANCH  21  22
ENDBRANCH  18  21
ENDBRANCH   1  17
TORSDOF 8
ENDMDL
MODEL 6
REMARK VINA RESULT:      -7.8      2.363      3.857
REMARK  8 active torsions:
REMARK  status: ('A' for Active; 'I' for Inactive)
REMARK    1  A    between atoms: C_12  and  S_13 
REMARK    2  A    between atoms: S_13  and  C_14 
REMARK    3  A    between atoms: C_14  and  C_15 
REMARK       I    between atoms: C_15  and  N_16 
REMARK    4  A    between atoms: N_16  and  C_17 
REMARK    5  A    between atoms: C_17  and  C_18 
REMARK    6  A    between atoms: C_18  and  C_19 
REMARK    7  A    between atoms: C_21  and  O_22 
REMARK    8  A    between atoms: C_24  and  O_25 
ROOT
HETATM    1  C   UNL     1     -43.457  58.865 -55.609  1.00  0.00     0.185 C 
ENDROOT
BRANCH   1   2
HETATM    2  S   UNL     1     -42.987  57.110 -55.567  1.00  0.00    -0.080 SA
BRANCH   2   3
HETATM    3  C   UNL     1     -43.211  56.752 -53.887  1.00  0.00     0.197 A 
HETATM    4  N   UNL     1     -42.576  55.769 -53.146  1.00  0.00    -0.271 N 
HETATM    5  C   UNL     1     -41.682  54.704 -53.459  1.00  0.00     0.054 A 
HETATM    6  C   UNL     1     -43.002  56.023 -51.847  1.00  0.00     0.159 A 
HETATM    7  C   UNL     1     -41.172  53.958 -52.367  1.00  0.00    -0.003 A 
HETATM    8  C   UNL     1     -41.319  54.363 -54.767  1.00  0.00     0.031 A 
HETATM    9  C   UNL     1     -41.588  54.285 -50.978  1.00  0.00    -0.046 A 
HETATM   10  C   UNL     1     -40.280  52.905 -52.631  1.00  0.00     0.014 A 
HETATM   11  C   UNL     1     -41.023  53.514 -49.819  1.00  0.00     0.049 C 
HETATM   12  C   UNL     1     -42.478  55.270 -50.774  1.00  0.00     0.060 A 
HETATM   13  C   UNL     1     -39.911  52.585 -53.938  1.00  0.00     0.001 A 
HETATM   14  C   UNL     1     -40.434  53.308 -55.001  1.00  0.00     0.002 A 
HETATM   15  N   UNL     1     -43.881  57.000 -51.836  1.00  0.00    -0.129 NA
HETATM   16  N   UNL     1     -44.013  57.456 -53.115  1.00  0.00    -0.122 NA
ENDBRANCH   2   3
ENDBRANCH   1   2
BRANCH   1  17
HETATM   17  C   UNL     1     -42.212  59.728 -55.517  1.00  0.00     0.227 C 
HETATM   18  N   UNL     1     -42.045  60.769 -56.393  1.00  0.00    -0.360 N 
HETATM   19  H   UNL     1     -41.141  61.216 -56.276  1.00  0.00     0.162 HD
HETATM   20  O   UNL     1     -41.349  59.541 -54.657  1.00  0.00    -0.273 OA
BRANCH  18  21
HETATM   21  C   UNL     1     -42.730  60.953 -57.662  1.00  0.00     0.127 C 
BRANCH  21  22
HETATM   22  C   UNL     1     -41.909  60.436 -58.843  1.00  0.00     0.058 C 
BRANCH  22  23
HETATM   23  C   UNL     1     -42.499  59.160 -59.393  1.00  0.00    -0.054 A 
HETATM   24  C   UNL     1     -43.876  59.079 -59.659  1.00  0.00     0.046 A 
HETATM   25  C   UNL     1     -44.452  57.886 -60.109  1.00  0.00     0.102 A 
HETATM   26  C   UNL     1     -43.637  56.759 -60.331  1.00  0.00     0.101 A 
HETATM   27  C   UNL     1     -42.264  56.845 -60.079  1.00  0.00     0.040 A 
HETATM   28  C   UNL     1     -41.700  58.034 -59.607  1.00  0.00     0.010 A 
BRANCH  25  29
HETATM   29  O   UNL     1     -45.791  57.734 -60.374  1.00  0.00    -0.353 OA
HETATM   30  C   UNL     1     -46.550  58.924 -60.548  1.00  0.00     0.210 C 
ENDBRANCH  25  29
BRANCH  26  31
HETATM   31  O   UNL     1     -44.276  55.631 -60.781  1.00  0.00    -0.353 OA
HETATM   32  C   UNL     1     -44.520  54.593 -59.844  1.00  0.00     0.210 C 
ENDBRANCH  26  31
ENDBRANCH  22  23
ENDBRANCH  21  22
ENDBRANCH  18  21
ENDBRANCH   1  17
TORSDOF 8
ENDMDL
MODEL 7
REMARK VINA RESULT:      -7.8      1.615      3.024
REMARK  8 active torsions:
REMARK  status: ('A' for Active; 'I' for Inactive)
REMARK    1  A    between atoms: C_12  and  S_13 
REMARK    2  A    between atoms: S_13  and  C_14 
REMARK    3  A    between atoms: C_14  and  C_15 
REMARK       I    between atoms: C_15  and  N_16 
REMARK    4  A    between atoms: N_16  and  C_17 
REMARK    5  A    between atoms: C_17  and  C_18 
REMARK    6  A    between atoms: C_18  and  C_19 
REMARK    7  A    between atoms: C_21  and  O_22 
REMARK    8  A    between atoms: C_24  and  O_25 
ROOT
HETATM    1  C   UNL     1     -42.963  58.188 -51.790  1.00  0.00     0.185 C 
ENDROOT
BRANCH   1   2
HETATM    2  S   UNL     1     -41.550  57.237 -51.154  1.00  0.00    -0.080 SA
BRANCH   2   3
HETATM    3  C   UNL     1     -41.056  56.391 -52.582  1.00  0.00     0.197 A 
HETATM    4  N   UNL     1     -40.741  55.046 -52.696  1.00  0.00    -0.271 N 
HETATM    5  C   UNL     1     -40.595  53.974 -51.768  1.00  0.00     0.054 A 
HETATM    6  C   UNL     1     -40.573  54.871 -54.064  1.00  0.00     0.159 A 
HETATM    7  C   UNL     1     -40.350  52.689 -52.313  1.00  0.00    -0.003 A 
HETATM    8  C   UNL     1     -40.658  54.143 -50.380  1.00  0.00     0.031 A 
HETATM    9  C   UNL     1     -40.237  52.509 -53.784  1.00  0.00    -0.046 A 
HETATM   10  C   UNL     1     -40.209  51.602 -51.433  1.00  0.00     0.014 A 
HETATM   11  C   UNL     1     -40.008  51.141 -54.363  1.00  0.00     0.049 C 
HETATM   12  C   UNL     1     -40.334  53.582 -54.586  1.00  0.00     0.060 A 
HETATM   13  C   UNL     1     -40.291  51.779 -50.052  1.00  0.00     0.001 A 
HETATM   14  C   UNL     1     -40.509  53.046 -49.529  1.00  0.00     0.002 A 
HETATM   15  N   UNL     1     -40.680  56.023 -54.689  1.00  0.00    -0.129 NA
HETATM   16  N   UNL     1     -40.981  56.975 -53.760  1.00  0.00    -0.122 NA
ENDBRANCH   2   3
ENDBRANCH   1   2
BRANCH   1  17
HETATM   17  C   UNL     1     -44.213  57.328 -51.751  1.00  0.00     0.227 C 
HETATM   18  N   UNL     1     -44.744  56.855 -52.924  1.00  0.00    -0.360 N 
HETATM   19  H   UNL     1     -45.617  56.362 -52.767  1.00  0.00     0.162 HD
HETATM   20  O   UNL     1     -44.759  57.015 -50.691  1.00  0.00    -0.273 OA
BRANCH  18  21
HETATM   21  C   UNL     1     -44.488  57.366 -54.260  1.00  0.00     0.127 C 
BRANCH  21  22
HETATM   22  C   UNL     1     -43.980  56.278 -55.207  1.00  0.00     0.058 C 
BRANCH  22  23
HETATM   23  C   UNL     1     -43.724  56.838 -56.585  1.00  0.00    -0.054 A 
HETATM   24  C   UNL     1     -44.179  58.125 -56.918  1.00  0.00     0.046 A 
HETATM   25  C   UNL     1     -44.008  58.636 -58.208  1.00  0.00     0.102 A 
HETATM   26  C   UNL     1     -43.340  57.866 -59.180  1.00  0.00     0.101 A 
HETATM   27  C   UNL     1     -42.875  56.591 -58.843  1.00  0.00     0.040 A 
HETATM   28  C   UNL     1     -43.072  56.078 -57.558  1.00  0.00     0.010 A 
BRANCH  25  29
HETATM   29  O   UNL     1     -44.440  59.879 -58.604  1.00  0.00    -0.353 OA
HETATM   30  C   UNL     1     -45.018  60.707 -57.602  1.00  0.00     0.210 C 
ENDBRANCH  25  29
BRANCH  26  31
HETATM   31  O   UNL     1     -43.204  58.442 -60.418  1.00  0.00    -0.353 OA
HETATM   32  C   UNL     1     -41.927  58.953 -60.771  1.00  0.00     0.210 C 
ENDBRANCH  26  31
ENDBRANCH  22  23
ENDBRANCH  21  22
ENDBRANCH  18  21
ENDBRANCH   1  17
TORSDOF 8
ENDMDL
MODEL 8
REMARK VINA RESULT:      -7.8      2.155      3.681
REMARK  8 active torsions:
REMARK  status: ('A' for Active; 'I' for Inactive)
REMARK    1  A    between atoms: C_12  and  S_13 
REMARK    2  A    between atoms: S_13  and  C_14 
REMARK    3  A    between atoms: C_14  and  C_15 
REMARK       I    between atoms: C_15  and  N_16 
REMARK    4  A    between atoms: N_16  and  C_17 
REMARK    5  A    between atoms: C_17  and  C_18 
REMARK    6  A    between atoms: C_18  and  C_19 
REMARK    7  A    between atoms: C_21  and  O_22 
REMARK    8  A    between atoms: C_24  and  O_25 
ROOT
HETATM    1  C   UNL     1     -44.158  58.866 -52.109  1.00  0.00     0.185 C 
ENDROOT
BRANCH   1   2
HETATM    2  S   UNL     1     -44.207  57.166 -51.470  1.00  0.00    -0.080 SA
BRANCH   2   3
HETATM    3  C   UNL     1     -43.601  56.287 -52.834  1.00  0.00     0.197 A 
HETATM    4  N   UNL     1     -42.592  55.337 -52.841  1.00  0.00    -0.271 N 
HETATM    5  C   UNL     1     -41.673  54.850 -51.866  1.00  0.00     0.054 A 
HETATM    6  C   UNL     1     -42.621  54.848 -54.142  1.00  0.00     0.159 A 
HETATM    7  C   UNL     1     -40.838  53.775 -52.258  1.00  0.00    -0.003 A 
HETATM    8  C   UNL     1     -41.554  55.394 -50.582  1.00  0.00     0.031 A 
HETATM    9  C   UNL     1     -40.927  53.221 -53.634  1.00  0.00    -0.046 A 
HETATM   10  C   UNL     1     -39.924  53.258 -51.323  1.00  0.00     0.014 A 
HETATM   11  C   UNL     1     -40.063  52.061 -54.040  1.00  0.00     0.049 C 
HETATM   12  C   UNL     1     -41.783  53.774 -54.510  1.00  0.00     0.060 A 
HETATM   13  C   UNL     1     -39.825  53.797 -50.041  1.00  0.00     0.001 A 
HETATM   14  C   UNL     1     -40.633  54.865 -49.674  1.00  0.00     0.002 A 
HETATM   15  N   UNL     1     -43.496  55.515 -54.861  1.00  0.00    -0.129 NA
HETATM   16  N   UNL     1     -44.108  56.417 -54.042  1.00  0.00    -0.122 NA
ENDBRANCH   2   3
ENDBRANCH   1   2
BRANCH   1  17
HETATM   17  C   UNL     1     -42.749  59.416 -51.987  1.00  0.00     0.227 C 
HETATM   18  N   UNL     1     -42.294  60.320 -52.912  1.00  0.00    -0.360 N 
HETATM   19  H   UNL     1     -41.316  60.549 -52.762  1.00  0.00     0.162 HD
HETATM   20  O   UNL     1     -42.000  59.095 -51.062  1.00  0.00    -0.273 OA
BRANCH  18  21
HETATM   21  C   UNL     1     -42.850  60.565 -54.232  1.00  0.00     0.127 C 
BRANCH  21  22
HETATM   22  C   UNL     1     -42.052  59.869 -55.334  1.00  0.00     0.058 C 
BRANCH  22  23
HETATM   23  C   UNL     1     -42.963  59.086 -56.248  1.00  0.00    -0.054 A 
HETATM   24  C   UNL     1     -42.419  58.275 -57.257  1.00  0.00     0.046 A 
HETATM   25  C   UNL     1     -43.247  57.591 -58.154  1.00  0.00     0.102 A 
HETATM   26  C   UNL     1     -44.646  57.690 -58.024  1.00  0.00     0.101 A 
HETATM   27  C   UNL     1     -45.186  58.487 -57.011  1.00  0.00     0.040 A 
HETATM   28  C   UNL     1     -44.351  59.186 -56.133  1.00  0.00     0.010 A 
BRANCH  25  29
HETATM   29  O   UNL     1     -42.782  56.794 -59.171  1.00  0.00    -0.353 OA
HETATM   30  C   UNL     1     -41.909  57.401 -60.116  1.00  0.00     0.210 C 
ENDBRANCH  25  29
BRANCH  26  31
HETATM   31  O   UNL     1     -45.388  56.983 -58.937  1.00  0.00    -0.353 OA
HETATM   32  C   UNL     1     -46.739  57.373 -59.133  1.00  0.00     0.210 C 
ENDBRANCH  26  31
ENDBRANCH  22  23
ENDBRANCH  21  22
ENDBRANCH  18  21
ENDBRANCH   1  17
TORSDOF 8
ENDMDL
MODEL 9
REMARK VINA RESULT:      -7.7      2.123      3.717
REMARK  8 active torsions:
REMARK  status: ('A' for Active; 'I' for Inactive)
REMARK    1  A    between atoms: C_12  and  S_13 
REMARK    2  A    between atoms: S_13  and  C_14 
REMARK    3  A    between atoms: C_14  and  C_15 
REMARK       I    between atoms: C_15  and  N_16 
REMARK    4  A    between atoms: N_16  and  C_17 
REMARK    5  A    between atoms: C_17  and  C_18 
REMARK    6  A    between atoms: C_18  and  C_19 
REMARK    7  A    between atoms: C_21  and  O_22 
REMARK    8  A    between atoms: C_24  and  O_25 
ROOT
HETATM    1  C   UNL     1     -43.098  58.669 -52.654  1.00  0.00     0.185 C 
ENDROOT
BRANCH   1   2
HETATM    2  S   UNL     1     -43.936  57.141 -52.139  1.00  0.00    -0.080 SA
BRANCH   2   3
HETATM    3  C   UNL     1     -43.328  56.023 -53.314  1.00  0.00     0.197 A 
HETATM    4  N   UNL     1     -42.355  55.054 -53.127  1.00  0.00    -0.271 N 
HETATM    5  C   UNL     1     -41.481  54.712 -52.054  1.00  0.00     0.054 A 
HETATM    6  C   UNL     1     -42.369  54.350 -54.326  1.00  0.00     0.159 A 
HETATM    7  C   UNL     1     -40.676  53.559 -52.231  1.00  0.00    -0.003 A 
HETATM    8  C   UNL     1     -41.374  55.463 -50.878  1.00  0.00     0.031 A 
HETATM    9  C   UNL     1     -40.750  52.781 -53.495  1.00  0.00    -0.046 A 
HETATM   10  C   UNL     1     -39.806  53.180 -51.194  1.00  0.00     0.014 A 
HETATM   11  C   UNL     1     -39.920  51.541 -53.670  1.00  0.00     0.049 C 
HETATM   12  C   UNL     1     -41.562  53.203 -54.479  1.00  0.00     0.060 A 
HETATM   13  C   UNL     1     -39.720  53.928 -50.019  1.00  0.00     0.001 A 
HETATM   14  C   UNL     1     -40.498  55.068 -49.866  1.00  0.00     0.002 A 
HETATM   15  N   UNL     1     -43.200  54.912 -55.176  1.00  0.00    -0.129 NA
HETATM   16  N   UNL     1     -43.799  55.961 -54.541  1.00  0.00    -0.122 NA
ENDBRANCH   2   3
ENDBRANCH   1   2
BRANCH   1  17
HETATM   17  C   UNL     1     -43.964  59.414 -53.653  1.00  0.00     0.227 C 
HETATM   18  N   UNL     1     -43.609  59.427 -54.977  1.00  0.00    -0.360 N 
HETATM   19  H   UNL     1     -44.225  60.020 -55.524  1.00  0.00     0.162 HD
HETATM   20  O   UNL     1     -45.000  59.991 -53.317  1.00  0.00    -0.273 OA
BRANCH  18  21
HETATM   21  C   UNL     1     -42.297  59.128 -55.527  1.00  0.00     0.127 C 
BRANCH  21  22
HETATM   22  C   UNL     1     -42.171  59.558 -56.988  1.00  0.00     0.058 C 
BRANCH  22  23
HETATM   23  C   UNL     1     -42.849  58.567 -57.903  1.00  0.00    -0.054 A 
HETATM   24  C   UNL     1     -43.883  58.990 -58.755  1.00  0.00     0.046 A 
HETATM   25  C   UNL     1     -44.566  58.075 -59.563  1.00  0.00     0.102 A 
HETATM   26  C   UNL     1     -44.193  56.718 -59.549  1.00  0.00     0.101 A 
HETATM   27  C   UNL     1     -43.154  56.301 -58.711  1.00  0.00     0.040 A 
HETATM   28  C   UNL     1     -42.492  57.217 -57.888  1.00  0.00     0.010 A 
BRANCH  25  29
HETATM   29  O   UNL     1     -45.595  58.418 -60.407  1.00  0.00    -0.353 OA
HETATM   30  C   UNL     1     -46.490  59.425 -59.953  1.00  0.00     0.210 C 
ENDBRANCH  25  29
BRANCH  26  31
HETATM   31  O   UNL     1     -44.905  55.887 -60.377  1.00  0.00    -0.353 OA
HETATM   32  C   UNL     1     -44.916  54.501 -60.071  1.00  0.00     0.210 C 
ENDBRANCH  26  31
ENDBRANCH  22  23
ENDBRANCH  21  22
ENDBRANCH  18  21
ENDBRANCH   1  17
TORSDOF 8
ENDMDL
MODEL 10
REMARK VINA RESULT:      -7.6      2.833      7.745
REMARK  8 active torsions:
REMARK  status: ('A' for Active; 'I' for Inactive)
REMARK    1  A    between atoms: C_12  and  S_13 
REMARK    2  A    between atoms: S_13  and  C_14 
REMARK    3  A    between atoms: C_14  and  C_15 
REMARK       I    between atoms: C_15  and  N_16 
REMARK    4  A    between atoms: N_16  and  C_17 
REMARK    5  A    between atoms: C_17  and  C_18 
REMARK    6  A    between atoms: C_18  and  C_19 
REMARK    7  A    between atoms: C_21  and  O_22 
REMARK    8  A    between atoms: C_24  and  O_25 
ROOT
HETATM    1  C   UNL     1     -40.856  59.043 -52.680  1.00  0.00     0.185 C 
ENDROOT
BRANCH   1   2
HETATM    2  S   UNL     1     -41.713  59.705 -54.139  1.00  0.00    -0.080 SA
BRANCH   2   3
HETATM    3  C   UNL     1     -42.361  58.253 -54.825  1.00  0.00     0.197 A 
HETATM    4  N   UNL     1     -42.506  57.951 -56.169  1.00  0.00    -0.271 N 
HETATM    5  C   UNL     1     -42.318  58.677 -57.381  1.00  0.00     0.054 A 
HETATM    6  C   UNL     1     -42.919  56.623 -56.156  1.00  0.00     0.159 A 
HETATM    7  C   UNL     1     -42.489  57.956 -58.589  1.00  0.00    -0.003 A 
HETATM    8  C   UNL     1     -42.002  60.039 -57.421  1.00  0.00     0.031 A 
HETATM    9  C   UNL     1     -42.868  56.519 -58.556  1.00  0.00    -0.046 A 
HETATM   10  C   UNL     1     -42.303  58.631 -59.808  1.00  0.00     0.014 A 
HETATM   11  C   UNL     1     -43.019  55.746 -59.836  1.00  0.00     0.049 C 
HETATM   12  C   UNL     1     -43.080  55.923 -57.370  1.00  0.00     0.060 A 
HETATM   13  C   UNL     1     -41.972  59.986 -59.835  1.00  0.00     0.001 A 
HETATM   14  C   UNL     1     -41.828  60.687 -58.646  1.00  0.00     0.002 A 
HETATM   15  N   UNL     1     -43.096  56.212 -54.920  1.00  0.00    -0.129 NA
HETATM   16  N   UNL     1     -42.748  57.234 -54.086  1.00  0.00    -0.122 NA
ENDBRANCH   2   3
ENDBRANCH   1   2
BRANCH   1  17
HETATM   17  C   UNL     1     -41.722  59.237 -51.449  1.00  0.00     0.227 C 
HETATM   18  N   UNL     1     -41.526  58.439 -50.352  1.00  0.00    -0.360 N 
HETATM   19  H   UNL     1     -42.217  58.618 -49.630  1.00  0.00     0.162 HD
HETATM   20  O   UNL     1     -42.587  60.113 -51.390  1.00  0.00    -0.273 OA
BRANCH  18  21
HETATM   21  C   UNL     1     -40.833  57.161 -50.321  1.00  0.00     0.127 C 
BRANCH  21  22
HETATM   22  C   UNL     1     -41.791  55.989 -50.108  1.00  0.00     0.058 C 
BRANCH  22  23
HETATM   23  C   UNL     1     -41.156  54.688 -50.536  1.00  0.00    -0.054 A 
HETATM   24  C   UNL     1     -40.919  54.435 -51.897  1.00  0.00     0.046 A 
HETATM   25  C   UNL     1     -40.390  53.210 -52.318  1.00  0.00     0.102 A 
HETATM   26  C   UNL     1     -40.058  52.229 -51.364  1.00  0.00     0.101 A 
HETATM   27  C   UNL     1     -40.281  52.488 -50.008  1.00  0.00     0.040 A 
HETATM   28  C   UNL     1     -40.832  53.706 -49.597  1.00  0.00     0.010 A 
BRANCH  25  29
HETATM   29  O   UNL     1     -40.147  52.892 -53.632  1.00  0.00    -0.353 OA
HETATM   30  C   UNL     1     -41.204  53.124 -54.555  1.00  0.00     0.210 C 
ENDBRANCH  25  29
BRANCH  26  31
HETATM   31  O   UNL     1     -39.535  51.060 -51.857  1.00  0.00    -0.353 OA
HETATM   32  C   UNL     1     -39.621  49.903 -51.039  1.00  0.00     0.210 C 
ENDBRANCH  26  31
ENDBRANCH  22  23
ENDBRANCH  21  22
ENDBRANCH  18  21
ENDBRANCH   1  17
TORSDOF 8
ENDMDL
