MODEL 1
REMARK VINA RESULT:      -8.3      0.000      0.000
REMARK  3 active torsions:
REMARK  status: ('A' for Active; 'I' for Inactive)
REMARK    1  A    between atoms: C_9  and  C_10 
REMARK    2  A    between atoms: C_16  and  C_17 
REMARK       I    between atoms: C_17  and  N_18 
REMARK    3  A    between atoms: N_18  and  C_19 
ROOT
HETATM    1  C   UNL     1     -41.617  54.841 -49.122  1.00  0.00     0.070 C 
HETATM    2  C   UNL     1     -41.452  55.848 -50.233  1.00  0.00     0.037 C 
HETATM    3  N   UNL     1     -41.270  57.167 -49.826  1.00  0.00    -0.191 N 
HETATM    4  C   UNL     1     -40.859  58.139 -50.666  1.00  0.00     0.735 A 
HETATM    5  N   UNL     1     -40.766  57.873 -52.004  1.00  0.00    -0.092 N 
HETATM    6  N   UNL     1     -40.263  58.932 -52.655  1.00  0.00     0.012 NA
HETATM    7  N   UNL     1     -40.099  59.856 -51.711  1.00  0.00     0.033 NA
HETATM    8  N   UNL     1     -40.465  59.374 -50.468  1.00  0.00     0.030 NA
HETATM    9  C   UNL     1     -41.115  56.596 -52.620  1.00  0.00     0.198 C 
HETATM   10  C   UNL     1     -41.400  55.541 -51.554  1.00  0.00     0.062 C 
HETATM   11  H   UNL     1     -41.221  57.347 -48.825  1.00  0.00     0.184 HD
ENDROOT
BRANCH  10  12
HETATM   12  C   UNL     1     -41.487  54.156 -52.085  1.00  0.00     0.256 C 
HETATM   13  N   UNL     1     -40.286  53.484 -52.077  1.00  0.00    -0.322 N 
HETATM   14  H   UNL     1     -39.490  53.955 -51.666  1.00  0.00     0.169 HD
HETATM   15  O   UNL     1     -42.578  53.725 -52.434  1.00  0.00    -0.267 OA
BRANCH  13  16
HETATM   16  C   UNL     1     -40.045  52.197 -52.603  1.00  0.00     0.052 A 
HETATM   17  C   UNL     1     -39.690  51.077 -51.855  1.00  0.00     0.145 A 
HETATM   18  N   UNL     1     -39.492  49.840 -52.383  1.00  0.00    -0.271 NA
HETATM   19  C   UNL     1     -39.654  49.710 -53.714  1.00  0.00     0.116 A 
HETATM   20  C   UNL     1     -40.002  50.759 -54.547  1.00  0.00     0.021 A 
HETATM   21  C   UNL     1     -40.197  52.019 -53.981  1.00  0.00     0.032 A 
ENDBRANCH  13  16
ENDBRANCH  10  12
BRANCH   9  22
HETATM   22  C   UNL     1     -42.293  56.768 -53.575  1.00  0.00    -0.029 A 
HETATM   23  C   UNL     1     -43.545  57.154 -53.070  1.00  0.00     0.009 A 
HETATM   24  C   UNL     1     -44.637  57.322 -53.923  1.00  0.00     0.001 A 
HETATM   25  C   UNL     1     -44.492  57.113 -55.293  1.00  0.00     0.000 A 
HETATM   26  C   UNL     1     -43.253  56.744 -55.813  1.00  0.00     0.001 A 
HETATM   27  C   UNL     1     -42.159  56.578 -54.963  1.00  0.00     0.009 A 
ENDBRANCH   9  22
TORSDOF 3
ENDMDL
MODEL 2
REMARK VINA RESULT:      -7.9      3.165      5.923
REMARK  3 active torsions:
REMARK  status: ('A' for Active; 'I' for Inactive)
REMARK    1  A    between atoms: C_9  and  C_10 
REMARK    2  A    between atoms: C_16  and  C_17 
REMARK       I    between atoms: C_17  and  N_18 
REMARK    3  A    between atoms: N_18  and  C_19 
ROOT
HETATM    1  C   UNL     1     -42.108  60.029 -55.693  1.00  0.00     0.070 C 
HETATM    2  C   UNL     1     -41.898  58.976 -54.633  1.00  0.00     0.037 C 
HETATM    3  N   UNL     1     -41.061  59.342 -53.581  1.00  0.00    -0.191 N 
HETATM    4  C   UNL     1     -40.971  58.627 -52.440  1.00  0.00     0.735 A 
HETATM    5  N   UNL     1     -41.594  57.414 -52.358  1.00  0.00    -0.092 N 
HETATM    6  N   UNL     1     -41.458  56.903 -51.125  1.00  0.00     0.012 NA
HETATM    7  N   UNL     1     -40.708  57.791 -50.478  1.00  0.00     0.033 NA
HETATM    8  N   UNL     1     -40.399  58.871 -51.286  1.00  0.00     0.030 NA
HETATM    9  C   UNL     1     -42.346  56.795 -53.445  1.00  0.00     0.198 C 
HETATM   10  C   UNL     1     -42.514  57.768 -54.610  1.00  0.00     0.062 C 
HETATM   11  H   UNL     1     -40.692  60.290 -53.583  1.00  0.00     0.184 HD
ENDROOT
BRANCH  10  12
HETATM   12  C   UNL     1     -43.496  57.321 -55.631  1.00  0.00     0.256 C 
HETATM   13  N   UNL     1     -42.937  57.062 -56.862  1.00  0.00    -0.322 N 
HETATM   14  H   UNL     1     -41.930  57.136 -56.941  1.00  0.00     0.169 HD
HETATM   15  O   UNL     1     -44.668  57.185 -55.304  1.00  0.00    -0.267 OA
BRANCH  13  16
HETATM   16  C   UNL     1     -43.632  56.715 -58.040  1.00  0.00     0.052 A 
HETATM   17  C   UNL     1     -44.517  57.545 -58.724  1.00  0.00     0.145 A 
HETATM   18  N   UNL     1     -45.153  57.198 -59.874  1.00  0.00    -0.271 NA
HETATM   19  C   UNL     1     -44.896  55.970 -60.367  1.00  0.00     0.116 A 
HETATM   20  C   UNL     1     -44.036  55.069 -59.765  1.00  0.00     0.021 A 
HETATM   21  C   UNL     1     -43.399  55.450 -58.583  1.00  0.00     0.032 A 
ENDBRANCH  13  16
ENDBRANCH  10  12
BRANCH   9  22
HETATM   22  C   UNL     1     -41.676  55.496 -53.886  1.00  0.00    -0.029 A 
HETATM   23  C   UNL     1     -42.252  54.264 -53.533  1.00  0.00     0.009 A 
HETATM   24  C   UNL     1     -41.661  53.062 -53.928  1.00  0.00     0.001 A 
HETATM   25  C   UNL     1     -40.492  53.074 -54.686  1.00  0.00     0.000 A 
HETATM   26  C   UNL     1     -39.916  54.288 -55.057  1.00  0.00     0.001 A 
HETATM   27  C   UNL     1     -40.505  55.490 -54.666  1.00  0.00     0.009 A 
ENDBRANCH   9  22
TORSDOF 3
ENDMDL
MODEL 3
REMARK VINA RESULT:      -7.8      2.567      4.207
REMARK  3 active torsions:
REMARK  status: ('A' for Active; 'I' for Inactive)
REMARK    1  A    between atoms: C_9  and  C_10 
REMARK    2  A    between atoms: C_16  and  C_17 
REMARK       I    between atoms: C_17  and  N_18 
REMARK    3  A    between atoms: N_18  and  C_19 
ROOT
HETATM    1  C   UNL     1     -43.231  54.576 -56.203  1.00  0.00     0.070 C 
HETATM    2  C   UNL     1     -43.441  55.766 -55.301  1.00  0.00     0.037 C 
HETATM    3  N   UNL     1     -44.021  56.881 -55.903  1.00  0.00    -0.191 N 
HETATM    4  C   UNL     1     -44.505  57.922 -55.194  1.00  0.00     0.735 A 
HETATM    5  N   UNL     1     -44.285  57.976 -53.846  1.00  0.00    -0.092 N 
HETATM    6  N   UNL     1     -44.913  59.034 -53.314  1.00  0.00     0.012 NA
HETATM    7  N   UNL     1     -45.472  59.647 -54.354  1.00  0.00     0.033 NA
HETATM    8  N   UNL     1     -45.227  58.963 -55.531  1.00  0.00     0.030 NA
HETATM    9  C   UNL     1     -43.520  56.986 -53.092  1.00  0.00     0.198 C 
HETATM   10  C   UNL     1     -43.175  55.785 -53.970  1.00  0.00     0.062 C 
HETATM   11  H   UNL     1     -44.294  56.798 -56.880  1.00  0.00     0.184 HD
ENDROOT
BRANCH  10  12
HETATM   12  C   UNL     1     -42.647  54.619 -53.216  1.00  0.00     0.256 C 
HETATM   13  N   UNL     1     -41.369  54.259 -53.577  1.00  0.00    -0.322 N 
HETATM   14  H   UNL     1     -40.895  54.840 -54.257  1.00  0.00     0.169 HD
HETATM   15  O   UNL     1     -43.343  54.117 -52.343  1.00  0.00    -0.267 OA
BRANCH  13  16
HETATM   16  C   UNL     1     -40.650  53.141 -53.102  1.00  0.00     0.052 A 
HETATM   17  C   UNL     1     -40.229  52.956 -51.788  1.00  0.00     0.145 A 
HETATM   18  N   UNL     1     -39.562  51.857 -51.349  1.00  0.00    -0.271 NA
HETATM   19  C   UNL     1     -39.302  50.897 -52.258  1.00  0.00     0.116 A 
HETATM   20  C   UNL     1     -39.673  50.983 -53.588  1.00  0.00     0.021 A 
HETATM   21  C   UNL     1     -40.354  52.124 -54.013  1.00  0.00     0.032 A 
ENDBRANCH  13  16
ENDBRANCH  10  12
BRANCH   9  22
HETATM   22  C   UNL     1     -42.271  57.623 -52.489  1.00  0.00    -0.029 A 
HETATM   23  C   UNL     1     -41.306  58.193 -53.335  1.00  0.00     0.009 A 
HETATM   24  C   UNL     1     -40.157  58.785 -52.808  1.00  0.00     0.001 A 
HETATM   25  C   UNL     1     -39.959  58.822 -51.429  1.00  0.00     0.000 A 
HETATM   26  C   UNL     1     -40.914  58.274 -50.575  1.00  0.00     0.001 A 
HETATM   27  C   UNL     1     -42.064  57.683 -51.099  1.00  0.00     0.009 A 
ENDBRANCH   9  22
TORSDOF 3
ENDMDL
MODEL 4
REMARK VINA RESULT:      -7.6      3.092      4.894
REMARK  3 active torsions:
REMARK  status: ('A' for Active; 'I' for Inactive)
REMARK    1  A    between atoms: C_9  and  C_10 
REMARK    2  A    between atoms: C_16  and  C_17 
REMARK       I    between atoms: C_17  and  N_18 
REMARK    3  A    between atoms: N_18  and  C_19 
ROOT
HETATM    1  C   UNL     1     -40.701  53.898 -55.075  1.00  0.00     0.070 C 
HETATM    2  C   UNL     1     -41.675  55.043 -55.195  1.00  0.00     0.037 C 
HETATM    3  N   UNL     1     -41.796  55.597 -56.467  1.00  0.00    -0.191 N 
HETATM    4  C   UNL     1     -42.792  56.444 -56.801  1.00  0.00     0.735 A 
HETATM    5  N   UNL     1     -43.629  56.912 -55.827  1.00  0.00    -0.092 N 
HETATM    6  N   UNL     1     -44.597  57.667 -56.368  1.00  0.00     0.012 NA
HETATM    7  N   UNL     1     -44.311  57.694 -57.666  1.00  0.00     0.033 NA
HETATM    8  N   UNL     1     -43.190  56.935 -57.950  1.00  0.00     0.030 NA
HETATM    9  C   UNL     1     -43.513  56.585 -54.409  1.00  0.00     0.198 C 
HETATM   10  C   UNL     1     -42.463  55.498 -54.188  1.00  0.00     0.062 C 
HETATM   11  H   UNL     1     -41.260  55.170 -57.219  1.00  0.00     0.184 HD
ENDROOT
BRANCH  10  12
HETATM   12  C   UNL     1     -42.479  54.912 -52.823  1.00  0.00     0.256 C 
HETATM   13  N   UNL     1     -41.392  55.265 -52.057  1.00  0.00    -0.322 N 
HETATM   14  H   UNL     1     -40.732  55.920 -52.457  1.00  0.00     0.169 HD
HETATM   15  O   UNL     1     -43.435  54.226 -52.486  1.00  0.00    -0.267 OA
BRANCH  13  16
HETATM   16  C   UNL     1     -41.092  54.789 -50.762  1.00  0.00     0.052 A 
HETATM   17  C   UNL     1     -41.314  55.488 -49.578  1.00  0.00     0.145 A 
HETATM   18  N   UNL     1     -41.043  54.996 -48.341  1.00  0.00    -0.271 NA
HETATM   19  C   UNL     1     -40.528  53.753 -48.277  1.00  0.00     0.116 A 
HETATM   20  C   UNL     1     -40.267  52.975 -49.392  1.00  0.00     0.021 A 
HETATM   21  C   UNL     1     -40.552  53.506 -50.650  1.00  0.00     0.032 A 
ENDBRANCH  13  16
ENDBRANCH  10  12
BRANCH   9  22
HETATM   22  C   UNL     1     -43.206  57.839 -53.595  1.00  0.00    -0.029 A 
HETATM   23  C   UNL     1     -44.087  58.239 -52.577  1.00  0.00     0.009 A 
HETATM   24  C   UNL     1     -43.827  59.380 -51.816  1.00  0.00     0.001 A 
HETATM   25  C   UNL     1     -42.680  60.133 -52.056  1.00  0.00     0.000 A 
HETATM   26  C   UNL     1     -41.787  59.742 -53.052  1.00  0.00     0.001 A 
HETATM   27  C   UNL     1     -42.043  58.602 -53.813  1.00  0.00     0.009 A 
ENDBRANCH   9  22
TORSDOF 3
ENDMDL
MODEL 5
REMARK VINA RESULT:      -7.6      2.883      6.004
REMARK  3 active torsions:
REMARK  status: ('A' for Active; 'I' for Inactive)
REMARK    1  A    between atoms: C_9  and  C_10 
REMARK    2  A    between atoms: C_16  and  C_17 
REMARK       I    between atoms: C_17  and  N_18 
REMARK    3  A    between atoms: N_18  and  C_19 
ROOT
HETATM    1  C   UNL     1     -41.834  58.550 -52.767  1.00  0.00     0.070 C 
HETATM    2  C   UNL     1     -42.260  57.127 -52.497  1.00  0.00     0.037 C 
HETATM    3  N   UNL     1     -42.792  56.890 -51.232  1.00  0.00    -0.191 N 
HETATM    4  C   UNL     1     -43.447  55.752 -50.919  1.00  0.00     0.735 A 
HETATM    5  N   UNL     1     -43.459  54.718 -51.813  1.00  0.00    -0.092 N 
HETATM    6  N   UNL     1     -44.227  53.718 -51.357  1.00  0.00     0.012 NA
HETATM    7  N   UNL     1     -44.637  54.132 -50.162  1.00  0.00     0.033 NA
HETATM    8  N   UNL     1     -44.160  55.398 -49.877  1.00  0.00     0.030 NA
HETATM    9  C   UNL     1     -42.777  54.733 -53.104  1.00  0.00     0.198 C 
HETATM   10  C   UNL     1     -42.221  56.122 -53.408  1.00  0.00     0.062 C 
HETATM   11  H   UNL     1     -42.893  57.687 -50.608  1.00  0.00     0.184 HD
ENDROOT
BRANCH  10  12
HETATM   12  C   UNL     1     -41.762  56.295 -54.810  1.00  0.00     0.256 C 
HETATM   13  N   UNL     1     -42.761  56.678 -55.676  1.00  0.00    -0.322 N 
HETATM   14  H   UNL     1     -43.675  56.863 -55.282  1.00  0.00     0.169 HD
HETATM   15  O   UNL     1     -40.577  56.130 -55.068  1.00  0.00    -0.267 OA
BRANCH  13  16
HETATM   16  C   UNL     1     -42.643  56.826 -57.075  1.00  0.00     0.052 A 
HETATM   17  C   UNL     1     -42.151  57.956 -57.724  1.00  0.00     0.145 A 
HETATM   18  N   UNL     1     -42.020  58.063 -59.073  1.00  0.00    -0.271 NA
HETATM   19  C   UNL     1     -42.395  56.999 -59.809  1.00  0.00     0.116 A 
HETATM   20  C   UNL     1     -42.898  55.831 -59.264  1.00  0.00     0.021 A 
HETATM   21  C   UNL     1     -43.025  55.748 -57.877  1.00  0.00     0.032 A 
ENDBRANCH  13  16
ENDBRANCH  10  12
BRANCH   9  22
HETATM   22  C   UNL     1     -41.684  53.667 -53.143  1.00  0.00    -0.029 A 
HETATM   23  C   UNL     1     -40.836  53.503 -52.035  1.00  0.00     0.009 A 
HETATM   24  C   UNL     1     -39.832  52.533 -52.044  1.00  0.00     0.001 A 
HETATM   25  C   UNL     1     -39.667  51.709 -53.155  1.00  0.00     0.000 A 
HETATM   26  C   UNL     1     -40.509  51.848 -54.256  1.00  0.00     0.001 A 
HETATM   27  C   UNL     1     -41.514  52.815 -54.250  1.00  0.00     0.009 A 
ENDBRANCH   9  22
TORSDOF 3
ENDMDL
MODEL 6
REMARK VINA RESULT:      -7.4      2.596      5.264
REMARK  3 active torsions:
REMARK  status: ('A' for Active; 'I' for Inactive)
REMARK    1  A    between atoms: C_9  and  C_10 
REMARK    2  A    between atoms: C_16  and  C_17 
REMARK       I    between atoms: C_17  and  N_18 
REMARK    3  A    between atoms: N_18  and  C_19 
ROOT
HETATM    1  C   UNL     1     -41.486  52.900 -53.659  1.00  0.00     0.070 C 
HETATM    2  C   UNL     1     -41.534  53.885 -52.517  1.00  0.00     0.037 C 
HETATM    3  N   UNL     1     -41.578  53.324 -51.243  1.00  0.00    -0.191 N 
HETATM    4  C   UNL     1     -41.370  54.046 -50.122  1.00  0.00     0.735 A 
HETATM    5  N   UNL     1     -41.268  55.407 -50.210  1.00  0.00    -0.092 N 
HETATM    6  N   UNL     1     -40.979  55.930 -49.009  1.00  0.00     0.012 NA
HETATM    7  N   UNL     1     -40.956  54.885 -48.187  1.00  0.00     0.033 NA
HETATM    8  N   UNL     1     -41.197  53.705 -48.868  1.00  0.00     0.030 NA
HETATM    9  C   UNL     1     -41.400  56.168 -51.449  1.00  0.00     0.198 C 
HETATM   10  C   UNL     1     -41.464  55.233 -52.655  1.00  0.00     0.062 C 
HETATM   11  H   UNL     1     -41.534  52.310 -51.173  1.00  0.00     0.184 HD
ENDROOT
BRANCH  10  12
HETATM   12  C   UNL     1     -41.318  55.924 -53.961  1.00  0.00     0.256 C 
HETATM   13  N   UNL     1     -42.498  56.041 -54.660  1.00  0.00    -0.322 N 
HETATM   14  H   UNL     1     -43.342  55.714 -54.209  1.00  0.00     0.169 HD
HETATM   15  O   UNL     1     -40.217  56.352 -54.283  1.00  0.00    -0.267 OA
BRANCH  13  16
HETATM   16  C   UNL     1     -42.649  56.564 -55.963  1.00  0.00     0.052 A 
HETATM   17  C   UNL     1     -42.559  57.912 -56.302  1.00  0.00     0.145 A 
HETATM   18  N   UNL     1     -42.680  58.388 -57.570  1.00  0.00    -0.271 NA
HETATM   19  C   UNL     1     -42.900  57.483 -58.544  1.00  0.00     0.116 A 
HETATM   20  C   UNL     1     -43.008  56.123 -58.313  1.00  0.00     0.021 A 
HETATM   21  C   UNL     1     -42.883  55.661 -57.002  1.00  0.00     0.032 A 
ENDBRANCH  13  16
ENDBRANCH  10  12
BRANCH   9  22
HETATM   22  C   UNL     1     -42.616  57.088 -51.383  1.00  0.00    -0.029 A 
HETATM   23  C   UNL     1     -43.893  56.538 -51.182  1.00  0.00     0.009 A 
HETATM   24  C   UNL     1     -45.020  57.359 -51.114  1.00  0.00     0.001 A 
HETATM   25  C   UNL     1     -44.887  58.740 -51.237  1.00  0.00     0.000 A 
HETATM   26  C   UNL     1     -43.626  59.304 -51.422  1.00  0.00     0.001 A 
HETATM   27  C   UNL     1     -42.497  58.486 -51.489  1.00  0.00     0.009 A 
ENDBRANCH   9  22
TORSDOF 3
ENDMDL
MODEL 7
REMARK VINA RESULT:      -7.2      3.914      6.534
REMARK  3 active torsions:
REMARK  status: ('A' for Active; 'I' for Inactive)
REMARK    1  A    between atoms: C_9  and  C_10 
REMARK    2  A    between atoms: C_16  and  C_17 
REMARK       I    between atoms: C_17  and  N_18 
REMARK    3  A    between atoms: N_18  and  C_19 
ROOT
HETATM    1  C   UNL     1     -42.215  60.265 -56.223  1.00  0.00     0.070 C 
HETATM    2  C   UNL     1     -42.523  59.113 -55.299  1.00  0.00     0.037 C 
HETATM    3  N   UNL     1     -42.532  59.419 -53.940  1.00  0.00    -0.191 N 
HETATM    4  C   UNL     1     -43.031  58.580 -53.008  1.00  0.00     0.735 A 
HETATM    5  N   UNL     1     -43.400  57.315 -53.373  1.00  0.00    -0.092 N 
HETATM    6  N   UNL     1     -43.946  56.671 -52.331  1.00  0.00     0.012 NA
HETATM    7  N   UNL     1     -43.861  57.536 -51.324  1.00  0.00     0.033 NA
HETATM    8  N   UNL     1     -43.294  58.729 -51.732  1.00  0.00     0.030 NA
HETATM    9  C   UNL     1     -43.265  56.770 -54.721  1.00  0.00     0.198 C 
HETATM   10  C   UNL     1     -42.851  57.861 -55.707  1.00  0.00     0.062 C 
HETATM   11  H   UNL     1     -42.375  60.389 -53.676  1.00  0.00     0.184 HD
ENDROOT
BRANCH  10  12
HETATM   12  C   UNL     1     -42.963  57.459 -57.132  1.00  0.00     0.256 C 
HETATM   13  N   UNL     1     -44.208  56.986 -57.477  1.00  0.00    -0.322 N 
HETATM   14  H   UNL     1     -44.931  57.012 -56.769  1.00  0.00     0.169 HD
HETATM   15  O   UNL     1     -41.995  57.610 -57.867  1.00  0.00    -0.267 OA
BRANCH  13  16
HETATM   16  C   UNL     1     -44.581  56.448 -58.728  1.00  0.00     0.052 A 
HETATM   17  C   UNL     1     -43.886  55.457 -59.416  1.00  0.00     0.145 A 
HETATM   18  N   UNL     1     -44.282  54.934 -60.606  1.00  0.00    -0.271 NA
HETATM   19  C   UNL     1     -45.421  55.419 -61.137  1.00  0.00     0.116 A 
HETATM   20  C   UNL     1     -46.185  56.404 -60.537  1.00  0.00     0.021 A 
HETATM   21  C   UNL     1     -45.755  56.926 -59.317  1.00  0.00     0.032 A 
ENDBRANCH  13  16
ENDBRANCH  10  12
BRANCH   9  22
HETATM   22  C   UNL     1     -42.286  55.600 -54.728  1.00  0.00    -0.029 A 
HETATM   23  C   UNL     1     -42.777  54.284 -54.725  1.00  0.00     0.009 A 
HETATM   24  C   UNL     1     -41.902  53.196 -54.736  1.00  0.00     0.001 A 
HETATM   25  C   UNL     1     -40.525  53.408 -54.758  1.00  0.00     0.000 A 
HETATM   26  C   UNL     1     -40.021  54.707 -54.777  1.00  0.00     0.001 A 
HETATM   27  C   UNL     1     -40.893  55.796 -54.768  1.00  0.00     0.009 A 
ENDBRANCH   9  22
TORSDOF 3
ENDMDL
MODEL 8
REMARK VINA RESULT:      -7.1      4.518      6.388
REMARK  3 active torsions:
REMARK  status: ('A' for Active; 'I' for Inactive)
REMARK    1  A    between atoms: C_9  and  C_10 
REMARK    2  A    between atoms: C_16  and  C_17 
REMARK       I    between atoms: C_17  and  N_18 
REMARK    3  A    between atoms: N_18  and  C_19 
ROOT
HETATM    1  C   UNL     1     -43.268  59.931 -55.421  1.00  0.00     0.070 C 
HETATM    2  C   UNL     1     -43.045  59.383 -56.809  1.00  0.00     0.037 C 
HETATM    3  N   UNL     1     -42.926  60.336 -57.818  1.00  0.00    -0.191 N 
HETATM    4  C   UNL     1     -42.478  60.035 -59.055  1.00  0.00     0.735 A 
HETATM    5  N   UNL     1     -42.279  58.727 -59.396  1.00  0.00    -0.092 N 
HETATM    6  N   UNL     1     -41.754  58.642 -60.627  1.00  0.00     0.012 NA
HETATM    7  N   UNL     1     -41.684  59.902 -61.047  1.00  0.00     0.033 NA
HETATM    8  N   UNL     1     -42.130  60.780 -60.076  1.00  0.00     0.030 NA
HETATM    9  C   UNL     1     -42.549  57.592 -58.517  1.00  0.00     0.198 C 
HETATM   10  C   UNL     1     -42.887  58.069 -57.106  1.00  0.00     0.062 C 
HETATM   11  H   UNL     1     -42.956  61.316 -57.545  1.00  0.00     0.184 HD
ENDROOT
BRANCH  10  12
HETATM   12  C   UNL     1     -42.900  56.985 -56.091  1.00  0.00     0.256 C 
HETATM   13  N   UNL     1     -41.649  56.511 -55.771  1.00  0.00    -0.322 N 
HETATM   14  H   UNL     1     -40.853  56.972 -56.194  1.00  0.00     0.169 HD
HETATM   15  O   UNL     1     -43.972  56.640 -55.609  1.00  0.00    -0.267 OA
BRANCH  13  16
HETATM   16  C   UNL     1     -41.358  55.428 -54.913  1.00  0.00     0.052 A 
HETATM   17  C   UNL     1     -41.814  55.295 -53.604  1.00  0.00     0.145 A 
HETATM   18  N   UNL     1     -41.544  54.227 -52.808  1.00  0.00    -0.271 NA
HETATM   19  C   UNL     1     -40.788  53.246 -53.338  1.00  0.00     0.116 A 
HETATM   20  C   UNL     1     -40.283  53.281 -54.626  1.00  0.00     0.021 A 
HETATM   21  C   UNL     1     -40.573  54.390 -55.421  1.00  0.00     0.032 A 
ENDBRANCH  13  16
ENDBRANCH  10  12
BRANCH   9  22
HETATM   22  C   UNL     1     -43.656  56.718 -59.099  1.00  0.00    -0.029 A 
HETATM   23  C   UNL     1     -44.935  57.262 -59.302  1.00  0.00     0.009 A 
HETATM   24  C   UNL     1     -45.964  56.484 -59.836  1.00  0.00     0.001 A 
HETATM   25  C   UNL     1     -45.727  55.156 -60.183  1.00  0.00     0.000 A 
HETATM   26  C   UNL     1     -44.460  54.604 -60.002  1.00  0.00     0.001 A 
HETATM   27  C   UNL     1     -43.430  55.379 -59.470  1.00  0.00     0.009 A 
ENDBRANCH   9  22
TORSDOF 3
ENDMDL
MODEL 9
REMARK VINA RESULT:      -7.1      1.909      2.286
REMARK  3 active torsions:
REMARK  status: ('A' for Active; 'I' for Inactive)
REMARK    1  A    between atoms: C_9  and  C_10 
REMARK    2  A    between atoms: C_16  and  C_17 
REMARK       I    between atoms: C_17  and  N_18 
REMARK    3  A    between atoms: N_18  and  C_19 
ROOT
HETATM    1  C   UNL     1     -44.101  55.970 -50.514  1.00  0.00     0.070 C 
HETATM    2  C   UNL     1     -43.547  56.914 -51.552  1.00  0.00     0.037 C 
HETATM    3  N   UNL     1     -43.685  58.270 -51.265  1.00  0.00    -0.191 N 
HETATM    4  C   UNL     1     -43.029  59.230 -51.950  1.00  0.00     0.735 A 
HETATM    5  N   UNL     1     -42.324  58.891 -53.071  1.00  0.00    -0.092 N 
HETATM    6  N   UNL     1     -41.679  59.962 -53.557  1.00  0.00     0.012 NA
HETATM    7  N   UNL     1     -42.038  60.959 -52.753  1.00  0.00     0.033 NA
HETATM    8  N   UNL     1     -42.877  60.516 -51.747  1.00  0.00     0.030 NA
HETATM    9  C   UNL     1     -42.245  57.541 -53.622  1.00  0.00     0.198 C 
HETATM   10  C   UNL     1     -42.882  56.530 -52.671  1.00  0.00     0.062 C 
HETATM   11  H   UNL     1     -44.104  58.520 -50.372  1.00  0.00     0.184 HD
ENDROOT
BRANCH  10  12
HETATM   12  C   UNL     1     -42.599  55.114 -53.019  1.00  0.00     0.256 C 
HETATM   13  N   UNL     1     -41.344  54.692 -52.644  1.00  0.00    -0.322 N 
HETATM   14  H   UNL     1     -40.768  55.344 -52.126  1.00  0.00     0.169 HD
HETATM   15  O   UNL     1     -43.478  54.449 -53.552  1.00  0.00    -0.267 OA
BRANCH  13  16
HETATM   16  C   UNL     1     -40.765  53.435 -52.924  1.00  0.00     0.052 A 
HETATM   17  C   UNL     1     -40.732  52.828 -54.177  1.00  0.00     0.145 A 
HETATM   18  N   UNL     1     -40.143  51.629 -54.427  1.00  0.00    -0.271 NA
HETATM   19  C   UNL     1     -39.560  51.006 -53.385  1.00  0.00     0.116 A 
HETATM   20  C   UNL     1     -39.539  51.521 -52.101  1.00  0.00     0.021 A 
HETATM   21  C   UNL     1     -40.154  52.752 -51.871  1.00  0.00     0.032 A 
ENDBRANCH  13  16
ENDBRANCH  10  12
BRANCH   9  22
HETATM   22  C   UNL     1     -42.881  57.492 -55.008  1.00  0.00    -0.029 A 
HETATM   23  C   UNL     1     -44.187  57.976 -55.190  1.00  0.00     0.009 A 
HETATM   24  C   UNL     1     -44.790  57.946 -56.448  1.00  0.00     0.001 A 
HETATM   25  C   UNL     1     -44.095  57.439 -57.544  1.00  0.00     0.000 A 
HETATM   26  C   UNL     1     -42.793  56.968 -57.385  1.00  0.00     0.001 A 
HETATM   27  C   UNL     1     -42.187  56.999 -56.129  1.00  0.00     0.009 A 
ENDBRANCH   9  22
TORSDOF 3
ENDMDL
MODEL 10
REMARK VINA RESULT:      -7.0      2.510      6.038
REMARK  3 active torsions:
REMARK  status: ('A' for Active; 'I' for Inactive)
REMARK    1  A    between atoms: C_9  and  C_10 
REMARK    2  A    between atoms: C_16  and  C_17 
REMARK       I    between atoms: C_17  and  N_18 
REMARK    3  A    between atoms: N_18  and  C_19 
ROOT
HETATM    1  C   UNL     1     -42.121  59.525 -51.430  1.00  0.00     0.070 C 
HETATM    2  C   UNL     1     -42.036  58.021 -51.337  1.00  0.00     0.037 C 
HETATM    3  N   UNL     1     -41.387  57.525 -50.209  1.00  0.00    -0.191 N 
HETATM    4  C   UNL     1     -41.445  56.227 -49.847  1.00  0.00     0.735 A 
HETATM    5  N   UNL     1     -42.023  55.321 -50.692  1.00  0.00    -0.092 N 
HETATM    6  N   UNL     1     -42.059  54.108 -50.120  1.00  0.00     0.012 NA
HETATM    7  N   UNL     1     -41.455  54.276 -48.947  1.00  0.00     0.033 NA
HETATM    8  N   UNL     1     -41.069  55.591 -48.764  1.00  0.00     0.030 NA
HETATM    9  C   UNL     1     -42.572  55.647 -52.005  1.00  0.00     0.198 C 
HETATM   10  C   UNL     1     -42.598  57.159 -52.221  1.00  0.00     0.062 C 
HETATM   11  H   UNL     1     -41.061  58.200 -49.520  1.00  0.00     0.184 HD
ENDROOT
BRANCH  10  12
HETATM   12  C   UNL     1     -43.391  57.586 -53.402  1.00  0.00     0.256 C 
HETATM   13  N   UNL     1     -42.631  58.130 -54.412  1.00  0.00    -0.322 N 
HETATM   14  H   UNL     1     -41.626  58.133 -54.290  1.00  0.00     0.169 HD
HETATM   15  O   UNL     1     -44.599  57.392 -53.404  1.00  0.00    -0.267 OA
BRANCH  13  16
HETATM   16  C   UNL     1     -43.115  58.704 -55.607  1.00  0.00     0.052 A 
HETATM   17  C   UNL     1     -43.872  59.870 -55.688  1.00  0.00     0.145 A 
HETATM   18  N   UNL     1     -44.303  60.419 -56.854  1.00  0.00    -0.271 NA
HETATM   19  C   UNL     1     -43.965  59.780 -57.992  1.00  0.00     0.116 A 
HETATM   20  C   UNL     1     -43.219  58.615 -58.021  1.00  0.00     0.021 A 
HETATM   21  C   UNL     1     -42.793  58.071 -56.810  1.00  0.00     0.032 A 
ENDBRANCH  13  16
ENDBRANCH  10  12
BRANCH   9  22
HETATM   22  C   UNL     1     -41.790  54.933 -53.104  1.00  0.00    -0.029 A 
HETATM   23  C   UNL     1     -42.138  53.620 -53.462  1.00  0.00     0.009 A 
HETATM   24  C   UNL     1     -41.441  52.946 -54.466  1.00  0.00     0.001 A 
HETATM   25  C   UNL     1     -40.391  53.576 -55.131  1.00  0.00     0.000 A 
HETATM   26  C   UNL     1     -40.042  54.884 -54.798  1.00  0.00     0.001 A 
HETATM   27  C   UNL     1     -40.738  55.560 -53.797  1.00  0.00     0.009 A 
ENDBRANCH   9  22
TORSDOF 3
ENDMDL
