MODEL 1
REMARK VINA RESULT:      -8.7      0.000      0.000
REMARK  5 active torsions:
REMARK  status: ('A' for Active; 'I' for Inactive)
REMARK    1  A    between atoms: O_2  and  C_3 
REMARK    2  A    between atoms: C_4  and  C_5 
REMARK    3  A    between atoms: C_9  and  N_10 
REMARK       I    between atoms: N_10  and  C_11 
REMARK    4  A    between atoms: C_11  and  C_12 
REMARK    5  A    between atoms: C_12  and  C_13 
ROOT
HETATM    1  C   UNL     1     -41.789  54.150 -54.249  1.00  0.00     0.093 A 
HETATM    2  N   UNL     1     -43.115  54.322 -54.131  1.00  0.00    -0.172 NA
HETATM    3  N   UNL     1     -43.478  54.914 -55.282  1.00  0.00    -0.262 N 
HETATM    4  H   UNL     1     -44.452  55.168 -55.433  1.00  0.00     0.191 HD
HETATM    5  C   UNL     1     -42.445  55.083 -56.164  1.00  0.00     0.126 A 
HETATM    6  C   UNL     1     -41.331  54.604 -55.519  1.00  0.00     0.084 A 
ENDROOT
BRANCH   5   7
HETATM    7  N   UNL     1     -42.574  55.621 -57.427  1.00  0.00    -0.311 N 
HETATM    8  C   UNL     1     -43.213  56.827 -57.643  1.00  0.00     0.236 C 
HETATM    9  O   UNL     1     -43.694  57.547 -56.772  1.00  0.00    -0.272 OA
HETATM   10  H   UNL     1     -42.211  55.103 -58.217  1.00  0.00     0.170 HD
BRANCH   8  11
HETATM   11  C   UNL     1     -43.312  57.220 -59.096  1.00  0.00     0.068 A 
HETATM   12  C   UNL     1     -42.430  58.380 -59.557  1.00  0.00     0.026 A 
HETATM   13  C   UNL     1     -42.100  56.991 -59.997  1.00  0.00     0.026 A 
BRANCH  11  14
HETATM   14  C   UNL     1     -44.712  57.140 -59.700  1.00  0.00    -0.039 A 
HETATM   15  C   UNL     1     -45.591  58.237 -59.698  1.00  0.00     0.032 A 
HETATM   16  C   UNL     1     -46.862  58.143 -60.271  1.00  0.00     0.034 A 
HETATM   17 CL   UNL     1     -47.909  59.508 -60.242  1.00  0.00    -0.084 Cl
HETATM   18  C   UNL     1     -47.285  56.958 -60.864  1.00  0.00     0.024 A 
HETATM   19  C   UNL     1     -46.432  55.860 -60.887  1.00  0.00     0.002 A 
HETATM   20  C   UNL     1     -45.162  55.954 -60.311  1.00  0.00     0.008 A 
ENDBRANCH  11  14
ENDBRANCH   8  11
ENDBRANCH   5   7
BRANCH   1  21
HETATM   21  C   UNL     1     -40.989  53.513 -53.204  1.00  0.00     0.029 A 
HETATM   22  C   UNL     1     -40.373  52.262 -53.377  1.00  0.00     0.081 A 
HETATM   23  C   UNL     1     -39.635  51.678 -52.340  1.00  0.00     0.039 A 
HETATM   24  C   UNL     1     -39.480  52.351 -51.129  1.00  0.00     0.026 A 
HETATM   25  C   UNL     1     -40.075  53.598 -50.955  1.00  0.00     0.035 A 
HETATM   26  C   UNL     1     -40.826  54.179 -51.978  1.00  0.00     0.040 A 
HETATM   27 CL   UNL     1     -39.892  54.428 -49.458  1.00  0.00    -0.084 Cl
BRANCH  22  28
HETATM   28  O   UNL     1     -40.564  51.533 -54.524  1.00  0.00    -0.355 OA
HETATM   29  C   UNL     1     -40.211  50.166 -54.309  1.00  0.00     0.210 C 
ENDBRANCH  22  28
ENDBRANCH   1  21
TORSDOF 5
ENDMDL
MODEL 2
REMARK VINA RESULT:      -8.4      1.567      2.166
REMARK  5 active torsions:
REMARK  status: ('A' for Active; 'I' for Inactive)
REMARK    1  A    between atoms: O_2  and  C_3 
REMARK    2  A    between atoms: C_4  and  C_5 
REMARK    3  A    between atoms: C_9  and  N_10 
REMARK       I    between atoms: N_10  and  C_11 
REMARK    4  A    between atoms: C_11  and  C_12 
REMARK    5  A    between atoms: C_12  and  C_13 
ROOT
HETATM    1  C   UNL     1     -41.815  54.087 -54.496  1.00  0.00     0.093 A 
HETATM    2  N   UNL     1     -43.108  54.378 -54.280  1.00  0.00    -0.172 NA
HETATM    3  N   UNL     1     -43.478  55.080 -55.364  1.00  0.00    -0.262 N 
HETATM    4  H   UNL     1     -44.428  55.436 -55.434  1.00  0.00     0.191 HD
HETATM    5  C   UNL     1     -42.488  55.209 -56.301  1.00  0.00     0.126 A 
HETATM    6  C   UNL     1     -41.391  54.582 -55.763  1.00  0.00     0.084 A 
ENDROOT
BRANCH   5   7
HETATM    7  N   UNL     1     -42.638  55.843 -57.516  1.00  0.00    -0.311 N 
HETATM    8  C   UNL     1     -43.261  57.071 -57.624  1.00  0.00     0.236 C 
HETATM    9  O   UNL     1     -43.710  57.730 -56.690  1.00  0.00    -0.272 OA
HETATM   10  H   UNL     1     -42.302  55.381 -58.352  1.00  0.00     0.170 HD
BRANCH   8  11
HETATM   11  C   UNL     1     -43.388  57.574 -59.041  1.00  0.00     0.068 A 
HETATM   12  C   UNL     1     -42.634  58.859 -59.385  1.00  0.00     0.026 A 
HETATM   13  C   UNL     1     -42.148  57.556 -59.934  1.00  0.00     0.026 A 
BRANCH  11  14
HETATM   14  C   UNL     1     -44.764  57.394 -59.678  1.00  0.00    -0.039 A 
HETATM   15  C   UNL     1     -45.688  58.449 -59.771  1.00  0.00     0.032 A 
HETATM   16  C   UNL     1     -46.936  58.263 -60.372  1.00  0.00     0.034 A 
HETATM   17 CL   UNL     1     -48.041  59.579 -60.460  1.00  0.00    -0.084 Cl
HETATM   18  C   UNL     1     -47.290  57.026 -60.899  1.00  0.00     0.024 A 
HETATM   19  C   UNL     1     -46.391  55.967 -60.827  1.00  0.00     0.002 A 
HETATM   20  C   UNL     1     -45.145  56.153 -60.223  1.00  0.00     0.008 A 
ENDBRANCH  11  14
ENDBRANCH   8  11
ENDBRANCH   5   7
BRANCH   1  21
HETATM   21  C   UNL     1     -41.022  53.305 -53.549  1.00  0.00     0.029 A 
HETATM   22  C   UNL     1     -40.689  53.775 -52.268  1.00  0.00     0.081 A 
HETATM   23  C   UNL     1     -39.907  53.002 -51.402  1.00  0.00     0.039 A 
HETATM   24  C   UNL     1     -39.474  51.737 -51.795  1.00  0.00     0.026 A 
HETATM   25  C   UNL     1     -39.812  51.257 -53.058  1.00  0.00     0.035 A 
HETATM   26  C   UNL     1     -40.577  52.029 -53.933  1.00  0.00     0.040 A 
HETATM   27 CL   UNL     1     -39.271  49.698 -53.549  1.00  0.00    -0.084 Cl
BRANCH  22  28
HETATM   28  O   UNL     1     -41.031  55.044 -51.871  1.00  0.00    -0.355 OA
HETATM   29  C   UNL     1     -40.993  55.147 -50.447  1.00  0.00     0.210 C 
ENDBRANCH  22  28
ENDBRANCH   1  21
TORSDOF 5
ENDMDL
MODEL 3
REMARK VINA RESULT:      -8.2      2.766      9.285
REMARK  5 active torsions:
REMARK  status: ('A' for Active; 'I' for Inactive)
REMARK    1  A    between atoms: O_2  and  C_3 
REMARK    2  A    between atoms: C_4  and  C_5 
REMARK    3  A    between atoms: C_9  and  N_10 
REMARK       I    between atoms: N_10  and  C_11 
REMARK    4  A    between atoms: C_11  and  C_12 
REMARK    5  A    between atoms: C_12  and  C_13 
ROOT
HETATM    1  C   UNL     1     -42.070  56.442 -55.588  1.00  0.00     0.093 A 
HETATM    2  N   UNL     1     -41.926  57.439 -54.699  1.00  0.00    -0.172 NA
HETATM    3  N   UNL     1     -41.416  56.842 -53.608  1.00  0.00    -0.262 N 
HETATM    4  H   UNL     1     -41.228  57.392 -52.774  1.00  0.00     0.191 HD
HETATM    5  C   UNL     1     -41.175  55.504 -53.775  1.00  0.00     0.126 A 
HETATM    6  C   UNL     1     -41.597  55.212 -55.048  1.00  0.00     0.084 A 
ENDROOT
BRANCH   5   7
HETATM    7  N   UNL     1     -40.611  54.685 -52.819  1.00  0.00    -0.311 N 
HETATM    8  C   UNL     1     -41.302  54.312 -51.682  1.00  0.00     0.236 C 
HETATM    9  O   UNL     1     -42.458  54.626 -51.412  1.00  0.00    -0.272 OA
HETATM   10  H   UNL     1     -39.658  54.371 -52.946  1.00  0.00     0.170 HD
BRANCH   8  11
HETATM   11  C   UNL     1     -40.499  53.467 -50.724  1.00  0.00     0.068 A 
HETATM   12  C   UNL     1     -39.395  54.176 -49.940  1.00  0.00     0.026 A 
HETATM   13  C   UNL     1     -40.632  53.738 -49.226  1.00  0.00     0.026 A 
BRANCH  11  14
HETATM   14  C   UNL     1     -40.201  52.046 -51.198  1.00  0.00    -0.039 A 
HETATM   15  C   UNL     1     -39.948  51.747 -52.547  1.00  0.00     0.032 A 
HETATM   16  C   UNL     1     -39.663  50.441 -52.955  1.00  0.00     0.034 A 
HETATM   17 CL   UNL     1     -39.364  50.117 -54.618  1.00  0.00    -0.084 Cl
HETATM   18  C   UNL     1     -39.617  49.405 -52.029  1.00  0.00     0.024 A 
HETATM   19  C   UNL     1     -39.856  49.675 -50.685  1.00  0.00     0.002 A 
HETATM   20  C   UNL     1     -40.144  50.981 -50.279  1.00  0.00     0.008 A 
ENDBRANCH  11  14
ENDBRANCH   8  11
ENDBRANCH   5   7
BRANCH   1  21
HETATM   21  C   UNL     1     -42.587  56.669 -56.936  1.00  0.00     0.029 A 
HETATM   22  C   UNL     1     -42.549  57.926 -57.563  1.00  0.00     0.081 A 
HETATM   23  C   UNL     1     -43.078  58.102 -58.847  1.00  0.00     0.039 A 
HETATM   24  C   UNL     1     -43.624  57.018 -59.532  1.00  0.00     0.026 A 
HETATM   25  C   UNL     1     -43.653  55.765 -58.924  1.00  0.00     0.035 A 
HETATM   26  C   UNL     1     -43.143  55.585 -57.637  1.00  0.00     0.040 A 
HETATM   27 CL   UNL     1     -44.334  54.426 -59.764  1.00  0.00    -0.084 Cl
BRANCH  22  28
HETATM   28  O   UNL     1     -42.090  59.033 -56.895  1.00  0.00    -0.355 OA
HETATM   29  C   UNL     1     -41.707  60.050 -57.823  1.00  0.00     0.210 C 
ENDBRANCH  22  28
ENDBRANCH   1  21
TORSDOF 5
ENDMDL
MODEL 4
REMARK VINA RESULT:      -8.2      2.146      2.827
REMARK  5 active torsions:
REMARK  status: ('A' for Active; 'I' for Inactive)
REMARK    1  A    between atoms: O_2  and  C_3 
REMARK    2  A    between atoms: C_4  and  C_5 
REMARK    3  A    between atoms: C_9  and  N_10 
REMARK       I    between atoms: N_10  and  C_11 
REMARK    4  A    between atoms: C_11  and  C_12 
REMARK    5  A    between atoms: C_12  and  C_13 
ROOT
HETATM    1  C   UNL     1     -41.172  54.327 -54.369  1.00  0.00     0.093 A 
HETATM    2  N   UNL     1     -40.510  55.472 -54.603  1.00  0.00    -0.172 NA
HETATM    3  N   UNL     1     -41.340  56.183 -55.385  1.00  0.00    -0.262 N 
HETATM    4  H   UNL     1     -41.055  57.101 -55.718  1.00  0.00     0.191 HD
HETATM    5  C   UNL     1     -42.537  55.564 -55.623  1.00  0.00     0.126 A 
HETATM    6  C   UNL     1     -42.457  54.351 -54.984  1.00  0.00     0.084 A 
ENDROOT
BRANCH   5   7
HETATM    7  N   UNL     1     -43.570  56.112 -56.355  1.00  0.00    -0.311 N 
HETATM    8  C   UNL     1     -43.399  57.256 -57.111  1.00  0.00     0.236 C 
HETATM    9  O   UNL     1     -42.347  57.877 -57.240  1.00  0.00    -0.272 OA
HETATM   10  H   UNL     1     -44.482  55.675 -56.315  1.00  0.00     0.170 HD
BRANCH   8  11
HETATM   11  C   UNL     1     -44.657  57.739 -57.789  1.00  0.00     0.068 A 
HETATM   12  C   UNL     1     -45.774  58.253 -56.882  1.00  0.00     0.026 A 
HETATM   13  C   UNL     1     -45.001  59.225 -57.712  1.00  0.00     0.026 A 
BRANCH  11  14
HETATM   14  C   UNL     1     -45.083  56.941 -59.020  1.00  0.00    -0.039 A 
HETATM   15  C   UNL     1     -46.308  57.167 -59.670  1.00  0.00     0.032 A 
HETATM   16  C   UNL     1     -46.669  56.435 -60.803  1.00  0.00     0.034 A 
HETATM   17 CL   UNL     1     -48.182  56.739 -61.566  1.00  0.00    -0.084 Cl
HETATM   18  C   UNL     1     -45.817  55.465 -61.320  1.00  0.00     0.024 A 
HETATM   19  C   UNL     1     -44.594  55.226 -60.700  1.00  0.00     0.002 A 
HETATM   20  C   UNL     1     -44.236  55.957 -59.565  1.00  0.00     0.008 A 
ENDBRANCH  11  14
ENDBRANCH   8  11
ENDBRANCH   5   7
BRANCH   1  21
HETATM   21  C   UNL     1     -40.619  53.263 -53.532  1.00  0.00     0.029 A 
HETATM   22  C   UNL     1     -40.473  53.392 -52.141  1.00  0.00     0.081 A 
HETATM   23  C   UNL     1     -39.917  52.356 -51.380  1.00  0.00     0.039 A 
HETATM   24  C   UNL     1     -39.528  51.168 -51.998  1.00  0.00     0.026 A 
HETATM   25  C   UNL     1     -39.683  51.027 -53.375  1.00  0.00     0.035 A 
HETATM   26  C   UNL     1     -40.221  52.062 -54.141  1.00  0.00     0.040 A 
HETATM   27 CL   UNL     1     -39.195  49.565 -54.142  1.00  0.00    -0.084 Cl
BRANCH  22  28
HETATM   28  O   UNL     1     -40.772  54.570 -51.505  1.00  0.00    -0.355 OA
HETATM   29  C   UNL     1     -41.645  54.333 -50.399  1.00  0.00     0.210 C 
ENDBRANCH  22  28
ENDBRANCH   1  21
TORSDOF 5
ENDMDL
MODEL 5
REMARK VINA RESULT:      -8.0      1.881      3.163
REMARK  5 active torsions:
REMARK  status: ('A' for Active; 'I' for Inactive)
REMARK    1  A    between atoms: O_2  and  C_3 
REMARK    2  A    between atoms: C_4  and  C_5 
REMARK    3  A    between atoms: C_9  and  N_10 
REMARK       I    between atoms: N_10  and  C_11 
REMARK    4  A    between atoms: C_11  and  C_12 
REMARK    5  A    between atoms: C_12  and  C_13 
ROOT
HETATM    1  C   UNL     1     -41.913  54.459 -54.144  1.00  0.00     0.093 A 
HETATM    2  N   UNL     1     -43.220  54.294 -54.404  1.00  0.00    -0.172 NA
HETATM    3  N   UNL     1     -43.410  54.924 -55.575  1.00  0.00    -0.262 N 
HETATM    4  H   UNL     1     -44.340  54.956 -55.986  1.00  0.00     0.191 HD
HETATM    5  C   UNL     1     -42.264  55.447 -56.111  1.00  0.00     0.126 A 
HETATM    6  C   UNL     1     -41.274  55.169 -55.201  1.00  0.00     0.084 A 
ENDROOT
BRANCH   5   7
HETATM    7  N   UNL     1     -42.193  56.096 -57.326  1.00  0.00    -0.311 N 
HETATM    8  C   UNL     1     -43.168  56.986 -57.733  1.00  0.00     0.236 C 
HETATM    9  O   UNL     1     -44.155  57.314 -57.080  1.00  0.00    -0.272 OA
HETATM   10  H   UNL     1     -41.416  55.894 -57.942  1.00  0.00     0.170 HD
BRANCH   8  11
HETATM   11  C   UNL     1     -42.950  57.547 -59.117  1.00  0.00     0.068 A 
HETATM   12  C   UNL     1     -42.499  56.563 -60.195  1.00  0.00     0.026 A 
HETATM   13  C   UNL     1     -43.890  57.107 -60.238  1.00  0.00     0.026 A 
BRANCH  11  14
HETATM   14  C   UNL     1     -42.341  58.947 -59.165  1.00  0.00    -0.039 A 
HETATM   15  C   UNL     1     -42.265  59.688 -60.357  1.00  0.00     0.032 A 
HETATM   16  C   UNL     1     -41.717  60.973 -60.373  1.00  0.00     0.034 A 
HETATM   17 CL   UNL     1     -41.637  61.844 -61.855  1.00  0.00    -0.084 Cl
HETATM   18  C   UNL     1     -41.238  61.553 -59.203  1.00  0.00     0.024 A 
HETATM   19  C   UNL     1     -41.308  60.844 -58.008  1.00  0.00     0.002 A 
HETATM   20  C   UNL     1     -41.854  59.558 -57.994  1.00  0.00     0.008 A 
ENDBRANCH  11  14
ENDBRANCH   8  11
ENDBRANCH   5   7
BRANCH   1  21
HETATM   21  C   UNL     1     -41.279  53.903 -52.951  1.00  0.00     0.029 A 
HETATM   22  C   UNL     1     -40.458  52.763 -52.989  1.00  0.00     0.081 A 
HETATM   23  C   UNL     1     -39.890  52.249 -51.817  1.00  0.00     0.039 A 
HETATM   24  C   UNL     1     -40.110  52.888 -50.597  1.00  0.00     0.026 A 
HETATM   25  C   UNL     1     -40.910  54.027 -50.553  1.00  0.00     0.035 A 
HETATM   26  C   UNL     1     -41.494  54.534 -51.714  1.00  0.00     0.040 A 
HETATM   27 CL   UNL     1     -41.191  54.812 -49.046  1.00  0.00    -0.084 Cl
BRANCH  22  28
HETATM   28  O   UNL     1     -40.279  52.062 -54.155  1.00  0.00    -0.355 OA
HETATM   29  C   UNL     1     -39.680  50.793 -53.885  1.00  0.00     0.210 C 
ENDBRANCH  22  28
ENDBRANCH   1  21
TORSDOF 5
ENDMDL
MODEL 6
REMARK VINA RESULT:      -7.9      2.289      9.259
REMARK  5 active torsions:
REMARK  status: ('A' for Active; 'I' for Inactive)
REMARK    1  A    between atoms: O_2  and  C_3 
REMARK    2  A    between atoms: C_4  and  C_5 
REMARK    3  A    between atoms: C_9  and  N_10 
REMARK       I    between atoms: N_10  and  C_11 
REMARK    4  A    between atoms: C_11  and  C_12 
REMARK    5  A    between atoms: C_12  and  C_13 
ROOT
HETATM    1  C   UNL     1     -43.489  56.898 -57.953  1.00  0.00     0.093 A 
HETATM    2  N   UNL     1     -43.416  55.591 -58.251  1.00  0.00    -0.172 NA
HETATM    3  N   UNL     1     -43.116  54.998 -57.083  1.00  0.00    -0.262 N 
HETATM    4  H   UNL     1     -42.989  53.990 -57.047  1.00  0.00     0.191 HD
HETATM    5  C   UNL     1     -43.046  55.867 -56.027  1.00  0.00     0.126 A 
HETATM    6  C   UNL     1     -43.275  57.112 -56.561  1.00  0.00     0.084 A 
ENDROOT
BRANCH   5   7
HETATM    7  N   UNL     1     -42.802  55.495 -54.722  1.00  0.00    -0.311 N 
HETATM    8  C   UNL     1     -41.527  55.208 -54.274  1.00  0.00     0.236 C 
HETATM    9  O   UNL     1     -40.501  55.274 -54.945  1.00  0.00    -0.272 OA
HETATM   10  H   UNL     1     -43.583  55.409 -54.085  1.00  0.00     0.170 HD
BRANCH   8  11
HETATM   11  C   UNL     1     -41.467  54.758 -52.835  1.00  0.00     0.068 A 
HETATM   12  C   UNL     1     -41.207  55.838 -51.786  1.00  0.00     0.026 A 
HETATM   13  C   UNL     1     -42.565  55.222 -51.880  1.00  0.00     0.026 A 
BRANCH  11  14
HETATM   14  C   UNL     1     -40.805  53.401 -52.602  1.00  0.00    -0.039 A 
HETATM   15  C   UNL     1     -40.567  52.497 -53.651  1.00  0.00     0.032 A 
HETATM   16  C   UNL     1     -39.945  51.267 -53.415  1.00  0.00     0.034 A 
HETATM   17 CL   UNL     1     -39.677  50.186 -54.727  1.00  0.00    -0.084 Cl
HETATM   18  C   UNL     1     -39.542  50.913 -52.132  1.00  0.00     0.024 A 
HETATM   19  C   UNL     1     -39.760  51.793 -51.077  1.00  0.00     0.002 A 
HETATM   20  C   UNL     1     -40.383  53.021 -51.313  1.00  0.00     0.008 A 
ENDBRANCH  11  14
ENDBRANCH   8  11
ENDBRANCH   5   7
BRANCH   1  21
HETATM   21  C   UNL     1     -43.816  57.910 -58.956  1.00  0.00     0.029 A 
HETATM   22  C   UNL     1     -45.138  58.235 -59.304  1.00  0.00     0.081 A 
HETATM   23  C   UNL     1     -45.405  59.194 -60.289  1.00  0.00     0.039 A 
HETATM   24  C   UNL     1     -44.353  59.861 -60.915  1.00  0.00     0.026 A 
HETATM   25  C   UNL     1     -43.040  59.556 -60.566  1.00  0.00     0.035 A 
HETATM   26  C   UNL     1     -42.766  58.588 -59.598  1.00  0.00     0.040 A 
HETATM   27 CL   UNL     1     -41.740  60.372 -61.345  1.00  0.00    -0.084 Cl
BRANCH  22  28
HETATM   28  O   UNL     1     -46.198  57.548 -58.767  1.00  0.00    -0.355 OA
HETATM   29  C   UNL     1     -46.820  56.735 -59.763  1.00  0.00     0.210 C 
ENDBRANCH  22  28
ENDBRANCH   1  21
TORSDOF 5
ENDMDL
MODEL 7
REMARK VINA RESULT:      -7.9      2.476      3.922
REMARK  5 active torsions:
REMARK  status: ('A' for Active; 'I' for Inactive)
REMARK    1  A    between atoms: O_2  and  C_3 
REMARK    2  A    between atoms: C_4  and  C_5 
REMARK    3  A    between atoms: C_9  and  N_10 
REMARK       I    between atoms: N_10  and  C_11 
REMARK    4  A    between atoms: C_11  and  C_12 
REMARK    5  A    between atoms: C_12  and  C_13 
ROOT
HETATM    1  C   UNL     1     -42.013  54.907 -53.780  1.00  0.00     0.093 A 
HETATM    2  N   UNL     1     -43.273  54.590 -54.121  1.00  0.00    -0.172 NA
HETATM    3  N   UNL     1     -43.419  55.091 -55.359  1.00  0.00    -0.262 N 
HETATM    4  H   UNL     1     -44.310  54.994 -55.841  1.00  0.00     0.191 HD
HETATM    5  C   UNL     1     -42.284  55.674 -55.855  1.00  0.00     0.126 A 
HETATM    6  C   UNL     1     -41.354  55.579 -54.849  1.00  0.00     0.084 A 
ENDROOT
BRANCH   5   7
HETATM    7  N   UNL     1     -42.169  56.216 -57.118  1.00  0.00    -0.311 N 
HETATM    8  C   UNL     1     -43.146  57.036 -57.649  1.00  0.00     0.236 C 
HETATM    9  O   UNL     1     -44.173  57.390 -57.076  1.00  0.00    -0.272 OA
HETATM   10  H   UNL     1     -41.357  55.985 -57.676  1.00  0.00     0.170 HD
BRANCH   8  11
HETATM   11  C   UNL     1     -42.874  57.479 -59.066  1.00  0.00     0.068 A 
HETATM   12  C   UNL     1     -42.334  56.421 -60.026  1.00  0.00     0.026 A 
HETATM   13  C   UNL     1     -43.738  56.906 -60.187  1.00  0.00     0.026 A 
BRANCH  11  14
HETATM   14  C   UNL     1     -42.310  58.891 -59.211  1.00  0.00    -0.039 A 
HETATM   15  C   UNL     1     -42.308  59.572 -60.440  1.00  0.00     0.032 A 
HETATM   16  C   UNL     1     -41.800  60.869 -60.545  1.00  0.00     0.034 A 
HETATM   17 CL   UNL     1     -41.810  61.666 -62.071  1.00  0.00    -0.084 Cl
HETATM   18  C   UNL     1     -41.289  61.521 -59.428  1.00  0.00     0.024 A 
HETATM   19  C   UNL     1     -41.286  60.873 -58.197  1.00  0.00     0.002 A 
HETATM   20  C   UNL     1     -41.792  59.574 -58.094  1.00  0.00     0.008 A 
ENDBRANCH  11  14
ENDBRANCH   8  11
ENDBRANCH   5   7
BRANCH   1  21
HETATM   21  C   UNL     1     -41.434  54.525 -52.493  1.00  0.00     0.029 A 
HETATM   22  C   UNL     1     -41.344  55.413 -51.408  1.00  0.00     0.081 A 
HETATM   23  C   UNL     1     -40.759  55.012 -50.201  1.00  0.00     0.039 A 
HETATM   24  C   UNL     1     -40.286  53.708 -50.054  1.00  0.00     0.026 A 
HETATM   25  C   UNL     1     -40.385  52.817 -51.120  1.00  0.00     0.035 A 
HETATM   26  C   UNL     1     -40.951  53.216 -52.332  1.00  0.00     0.040 A 
HETATM   27 CL   UNL     1     -39.792  51.211 -50.945  1.00  0.00    -0.084 Cl
BRANCH  22  28
HETATM   28  O   UNL     1     -41.728  56.724 -51.535  1.00  0.00    -0.355 OA
HETATM   29  C   UNL     1     -40.905  57.564 -50.724  1.00  0.00     0.210 C 
ENDBRANCH  22  28
ENDBRANCH   1  21
TORSDOF 5
ENDMDL
MODEL 8
REMARK VINA RESULT:      -7.8      2.449      8.958
REMARK  5 active torsions:
REMARK  status: ('A' for Active; 'I' for Inactive)
REMARK    1  A    between atoms: O_2  and  C_3 
REMARK    2  A    between atoms: C_4  and  C_5 
REMARK    3  A    between atoms: C_9  and  N_10 
REMARK       I    between atoms: N_10  and  C_11 
REMARK    4  A    between atoms: C_11  and  C_12 
REMARK    5  A    between atoms: C_12  and  C_13 
ROOT
HETATM    1  C   UNL     1     -43.437  57.110 -56.729  1.00  0.00     0.093 A 
HETATM    2  N   UNL     1     -44.532  57.409 -56.011  1.00  0.00    -0.172 NA
HETATM    3  N   UNL     1     -44.404  56.680 -54.889  1.00  0.00    -0.262 N 
HETATM    4  H   UNL     1     -45.129  56.720 -54.177  1.00  0.00     0.191 HD
HETATM    5  C   UNL     1     -43.241  55.960 -54.830  1.00  0.00     0.126 A 
HETATM    6  C   UNL     1     -42.594  56.211 -56.015  1.00  0.00     0.084 A 
ENDROOT
BRANCH   5   7
HETATM    7  N   UNL     1     -42.860  55.175 -53.762  1.00  0.00    -0.311 N 
HETATM    8  C   UNL     1     -41.588  55.240 -53.228  1.00  0.00     0.236 C 
HETATM    9  O   UNL     1     -40.692  55.992 -53.604  1.00  0.00    -0.272 OA
HETATM   10  H   UNL     1     -43.527  54.518 -53.377  1.00  0.00     0.170 HD
BRANCH   8  11
HETATM   11  C   UNL     1     -41.339  54.261 -52.108  1.00  0.00     0.068 A 
HETATM   12  C   UNL     1     -40.874  54.844 -50.774  1.00  0.00     0.026 A 
HETATM   13  C   UNL     1     -42.260  54.298 -50.890  1.00  0.00     0.026 A 
BRANCH  11  14
HETATM   14  C   UNL     1     -40.719  52.930 -52.529  1.00  0.00    -0.039 A 
HETATM   15  C   UNL     1     -40.220  52.009 -51.593  1.00  0.00     0.032 A 
HETATM   16  C   UNL     1     -39.671  50.790 -52.002  1.00  0.00     0.034 A 
HETATM   17 CL   UNL     1     -39.065  49.693 -50.824  1.00  0.00    -0.084 Cl
HETATM   18  C   UNL     1     -39.612  50.459 -53.351  1.00  0.00     0.024 A 
HETATM   19  C   UNL     1     -40.106  51.350 -54.299  1.00  0.00     0.002 A 
HETATM   20  C   UNL     1     -40.652  52.569 -53.889  1.00  0.00     0.008 A 
ENDBRANCH  11  14
ENDBRANCH   8  11
ENDBRANCH   5   7
BRANCH   1  21
HETATM   21  C   UNL     1     -43.172  57.712 -58.034  1.00  0.00     0.029 A 
HETATM   22  C   UNL     1     -43.491  57.073 -59.244  1.00  0.00     0.081 A 
HETATM   23  C   UNL     1     -43.197  57.677 -60.473  1.00  0.00     0.039 A 
HETATM   24  C   UNL     1     -42.608  58.940 -60.506  1.00  0.00     0.026 A 
HETATM   25  C   UNL     1     -42.302  59.587 -59.311  1.00  0.00     0.035 A 
HETATM   26  C   UNL     1     -42.577  58.984 -58.083  1.00  0.00     0.040 A 
HETATM   27 CL   UNL     1     -41.567  61.144 -59.349  1.00  0.00    -0.084 Cl
BRANCH  22  28
HETATM   28  O   UNL     1     -44.000  55.799 -59.256  1.00  0.00    -0.355 OA
HETATM   29  C   UNL     1     -44.708  55.557 -60.473  1.00  0.00     0.210 C 
ENDBRANCH  22  28
ENDBRANCH   1  21
TORSDOF 5
ENDMDL
MODEL 9
REMARK VINA RESULT:      -7.8      2.355      3.673
REMARK  5 active torsions:
REMARK  status: ('A' for Active; 'I' for Inactive)
REMARK    1  A    between atoms: O_2  and  C_3 
REMARK    2  A    between atoms: C_4  and  C_5 
REMARK    3  A    between atoms: C_9  and  N_10 
REMARK       I    between atoms: N_10  and  C_11 
REMARK    4  A    between atoms: C_11  and  C_12 
REMARK    5  A    between atoms: C_12  and  C_13 
ROOT
HETATM    1  C   UNL     1     -41.836  54.137 -54.710  1.00  0.00     0.093 A 
HETATM    2  N   UNL     1     -43.174  54.220 -54.647  1.00  0.00    -0.172 NA
HETATM    3  N   UNL     1     -43.504  55.051 -55.651  1.00  0.00    -0.262 N 
HETATM    4  H   UNL     1     -44.480  55.291 -55.806  1.00  0.00     0.191 HD
HETATM    5  C   UNL     1     -42.433  55.467 -56.395  1.00  0.00     0.126 A 
HETATM    6  C   UNL     1     -41.332  54.897 -55.804  1.00  0.00     0.084 A 
ENDROOT
BRANCH   5   7
HETATM    7  N   UNL     1     -42.521  56.282 -57.505  1.00  0.00    -0.311 N 
HETATM    8  C   UNL     1     -43.497  57.253 -57.619  1.00  0.00     0.236 C 
HETATM    9  O   UNL     1     -44.348  57.515 -56.773  1.00  0.00    -0.272 OA
HETATM   10  H   UNL     1     -41.864  56.146 -58.263  1.00  0.00     0.170 HD
BRANCH   8  11
HETATM   11  C   UNL     1     -43.471  58.000 -58.930  1.00  0.00     0.068 A 
HETATM   12  C   UNL     1     -43.099  57.194 -60.174  1.00  0.00     0.026 A 
HETATM   13  C   UNL     1     -44.512  57.646 -59.990  1.00  0.00     0.026 A 
BRANCH  11  14
HETATM   14  C   UNL     1     -42.945  59.431 -58.855  1.00  0.00    -0.039 A 
HETATM   15  C   UNL     1     -43.628  60.511 -59.440  1.00  0.00     0.032 A 
HETATM   16  C   UNL     1     -43.134  61.814 -59.345  1.00  0.00     0.034 A 
HETATM   17 CL   UNL     1     -43.999  63.107 -60.082  1.00  0.00    -0.084 Cl
HETATM   18  C   UNL     1     -41.952  62.074 -58.659  1.00  0.00     0.024 A 
HETATM   19  C   UNL     1     -41.260  61.025 -58.064  1.00  0.00     0.002 A 
HETATM   20  C   UNL     1     -41.753  59.721 -58.162  1.00  0.00     0.008 A 
ENDBRANCH  11  14
ENDBRANCH   8  11
ENDBRANCH   5   7
BRANCH   1  21
HETATM   21  C   UNL     1     -41.062  53.305 -53.789  1.00  0.00     0.029 A 
HETATM   22  C   UNL     1     -40.760  53.705 -52.477  1.00  0.00     0.081 A 
HETATM   23  C   UNL     1     -39.995  52.887 -51.637  1.00  0.00     0.039 A 
HETATM   24  C   UNL     1     -39.548  51.646 -52.089  1.00  0.00     0.026 A 
HETATM   25  C   UNL     1     -39.854  51.236 -53.385  1.00  0.00     0.035 A 
HETATM   26  C   UNL     1     -40.602  52.054 -54.233  1.00  0.00     0.040 A 
HETATM   27 CL   UNL     1     -39.296  49.709 -53.949  1.00  0.00    -0.084 Cl
BRANCH  22  28
HETATM   28  O   UNL     1     -41.116  54.948 -52.018  1.00  0.00    -0.355 OA
HETATM   29  C   UNL     1     -40.933  55.028 -50.604  1.00  0.00     0.210 C 
ENDBRANCH  22  28
ENDBRANCH   1  21
TORSDOF 5
ENDMDL
MODEL 10
REMARK VINA RESULT:      -7.6      2.385      9.213
REMARK  5 active torsions:
REMARK  status: ('A' for Active; 'I' for Inactive)
REMARK    1  A    between atoms: O_2  and  C_3 
REMARK    2  A    between atoms: C_4  and  C_5 
REMARK    3  A    between atoms: C_9  and  N_10 
REMARK       I    between atoms: N_10  and  C_11 
REMARK    4  A    between atoms: C_11  and  C_12 
REMARK    5  A    between atoms: C_12  and  C_13 
ROOT
HETATM    1  C   UNL     1     -44.175  57.366 -55.797  1.00  0.00     0.093 A 
HETATM    2  N   UNL     1     -45.074  57.708 -54.861  1.00  0.00    -0.172 NA
HETATM    3  N   UNL     1     -44.736  56.972 -53.789  1.00  0.00    -0.262 N 
HETATM    4  H   UNL     1     -45.287  57.041 -52.936  1.00  0.00     0.191 HD
HETATM    5  C   UNL     1     -43.619  56.205 -53.978  1.00  0.00     0.126 A 
HETATM    6  C   UNL     1     -43.234  56.431 -55.277  1.00  0.00     0.084 A 
ENDROOT
BRANCH   5   7
HETATM    7  N   UNL     1     -43.048  55.402 -53.013  1.00  0.00    -0.311 N 
HETATM    8  C   UNL     1     -41.791  55.662 -52.501  1.00  0.00     0.236 C 
HETATM    9  O   UNL     1     -41.076  56.612 -52.807  1.00  0.00    -0.272 OA
HETATM   10  H   UNL     1     -43.557  54.588 -52.691  1.00  0.00     0.170 HD
BRANCH   8  11
HETATM   11  C   UNL     1     -41.310  54.638 -51.502  1.00  0.00     0.068 A 
HETATM   12  C   UNL     1     -40.683  55.173 -50.216  1.00  0.00     0.026 A 
HETATM   13  C   UNL     1     -42.032  54.534 -50.160  1.00  0.00     0.026 A 
BRANCH  11  14
HETATM   14  C   UNL     1     -40.678  53.385 -52.105  1.00  0.00    -0.039 A 
HETATM   15  C   UNL     1     -40.280  52.294 -51.313  1.00  0.00     0.032 A 
HETATM   16  C   UNL     1     -39.718  51.152 -51.890  1.00  0.00     0.034 A 
HETATM   17 CL   UNL     1     -39.239  49.841 -50.884  1.00  0.00    -0.084 Cl
HETATM   18  C   UNL     1     -39.546  51.066 -53.267  1.00  0.00     0.024 A 
HETATM   19  C   UNL     1     -39.938  52.129 -54.075  1.00  0.00     0.002 A 
HETATM   20  C   UNL     1     -40.497  53.272 -53.497  1.00  0.00     0.008 A 
ENDBRANCH  11  14
ENDBRANCH   8  11
ENDBRANCH   5   7
BRANCH   1  21
HETATM   21  C   UNL     1     -44.175  57.960 -57.133  1.00  0.00     0.029 A 
HETATM   22  C   UNL     1     -43.142  58.795 -57.592  1.00  0.00     0.081 A 
HETATM   23  C   UNL     1     -43.195  59.362 -58.871  1.00  0.00     0.039 A 
HETATM   24  C   UNL     1     -44.265  59.076 -59.718  1.00  0.00     0.026 A 
HETATM   25  C   UNL     1     -45.286  58.237 -59.276  1.00  0.00     0.035 A 
HETATM   26  C   UNL     1     -45.248  57.682 -57.996  1.00  0.00     0.040 A 
HETATM   27 CL   UNL     1     -46.613  57.890 -60.315  1.00  0.00    -0.084 Cl
BRANCH  22  28
HETATM   28  O   UNL     1     -42.111  59.162 -56.765  1.00  0.00    -0.355 OA
HETATM   29  C   UNL     1     -42.284  60.510 -56.322  1.00  0.00     0.210 C 
ENDBRANCH  22  28
ENDBRANCH   1  21
TORSDOF 5
ENDMDL
