MODEL 1
REMARK VINA RESULT:      -8.2      0.000      0.000
REMARK  8 active torsions:
REMARK  status: ('A' for Active; 'I' for Inactive)
REMARK    1  A    between atoms: N_2  and  C_4 
REMARK    2  A    between atoms: N_2  and  C_10 
REMARK    3  A    between atoms: C_10  and  C_11 
REMARK    4  A    between atoms: C_12  and  N_13 
REMARK    5  A    between atoms: N_13  and  C_14 
REMARK    6  A    between atoms: C_14  and  C_15 
REMARK       I    between atoms: C_15  and  N_16 
REMARK    7  A    between atoms: N_16  and  N_17 
REMARK       I    between atoms: N_17  and  C_18 
REMARK    8  A    between atoms: C_18  and  C_19 
ROOT
HETATM    1  N   UNL     1     -41.093  54.570 -53.940  1.00  0.00    -0.284 NA
HETATM    2  H   UNL     1     -40.547  55.349 -53.544  1.00  0.00     0.128 HD
ENDROOT
BRANCH   1   3
HETATM    3  C   UNL     1     -40.616  53.372 -53.363  1.00  0.00     0.016 A 
HETATM    4  C   UNL     1     -40.552  53.284 -51.952  1.00  0.00    -0.011 A 
HETATM    5  C   UNL     1     -39.997  52.141 -51.346  1.00  0.00     0.011 A 
HETATM    6  C   UNL     1     -39.510  51.092 -52.120  1.00  0.00     0.001 A 
HETATM    7  C   UNL     1     -39.557  51.181 -53.505  1.00  0.00     0.002 A 
HETATM    8  C   UNL     1     -40.092  52.315 -54.121  1.00  0.00     0.024 A 
BRANCH   4   9
HETATM    9  C   UNL     1     -41.040  54.403 -51.058  1.00  0.00     0.275 C 
BRANCH   9  10
HETATM   10  N   UNL     1     -42.401  54.982 -51.421  1.00  0.00    -0.067 N 
HETATM   11  C   UNL     1     -43.498  53.996 -51.092  1.00  0.00     0.270 C 
HETATM   12  H   UNL     1     -42.352  55.024 -52.457  1.00  0.00     0.280 HD
BRANCH  10  13
HETATM   13  C   UNL     1     -42.666  56.373 -50.836  1.00  0.00     0.188 C 
HETATM   14  C   UNL     1     -41.497  57.348 -51.057  1.00  0.00     0.033 C 
HETATM   15  C   UNL     1     -41.293  57.713 -52.525  1.00  0.00     0.002 C 
HETATM   16  C   UNL     1     -42.571  58.270 -53.148  1.00  0.00     0.000 C 
HETATM   17  C   UNL     1     -43.772  57.355 -52.921  1.00  0.00     0.002 C 
HETATM   18  C   UNL     1     -43.936  57.003 -51.443  1.00  0.00     0.033 C 
ENDBRANCH  10  13
ENDBRANCH   9  10
ENDBRANCH   4   9
ENDBRANCH   1   3
BRANCH   1  19
HETATM   19  C   UNL     1     -40.978  54.705 -55.418  1.00  0.00     0.197 C 
BRANCH  19  20
HETATM   20  C   UNL     1     -42.369  54.961 -56.002  1.00  0.00     0.249 C 
HETATM   21  N   UNL     1     -42.375  55.606 -57.218  1.00  0.00    -0.266 N 
HETATM   22  H   UNL     1     -41.576  56.129 -57.585  1.00  0.00     0.190 HD
HETATM   23  O   UNL     1     -43.399  54.582 -55.441  1.00  0.00    -0.270 OA
BRANCH  21  24
HETATM   24  N   UNL     1     -43.614  55.953 -57.777  1.00  0.00    -0.263 N 
HETATM   25  C   UNL     1     -43.679  56.030 -59.157  1.00  0.00     0.270 C 
HETATM   26  O   UNL     1     -42.723  55.723 -59.865  1.00  0.00    -0.266 OA
HETATM   27  H   UNL     1     -44.264  56.456 -57.174  1.00  0.00     0.190 HD
BRANCH  25  28
HETATM   28  C   UNL     1     -44.951  56.537 -59.737  1.00  0.00     0.033 A 
HETATM   29  C   UNL     1     -45.192  57.915 -59.709  1.00  0.00     0.017 A 
HETATM   30  C   UNL     1     -46.374  58.431 -60.246  1.00  0.00     0.001 A 
HETATM   31  C   UNL     1     -47.312  57.574 -60.819  1.00  0.00     0.000 A 
HETATM   32  C   UNL     1     -47.070  56.202 -60.864  1.00  0.00     0.001 A 
HETATM   33  C   UNL     1     -45.892  55.680 -60.328  1.00  0.00     0.017 A 
ENDBRANCH  25  28
ENDBRANCH  21  24
ENDBRANCH  19  20
ENDBRANCH   1  19
TORSDOF 8
ENDMDL
MODEL 2
REMARK VINA RESULT:      -7.8      2.748      7.411
REMARK  8 active torsions:
REMARK  status: ('A' for Active; 'I' for Inactive)
REMARK    1  A    between atoms: N_2  and  C_4 
REMARK    2  A    between atoms: N_2  and  C_10 
REMARK    3  A    between atoms: C_10  and  C_11 
REMARK    4  A    between atoms: C_12  and  N_13 
REMARK    5  A    between atoms: N_13  and  C_14 
REMARK    6  A    between atoms: C_14  and  C_15 
REMARK       I    between atoms: C_15  and  N_16 
REMARK    7  A    between atoms: N_16  and  N_17 
REMARK       I    between atoms: N_17  and  C_18 
REMARK    8  A    between atoms: C_18  and  C_19 
ROOT
HETATM    1  N   UNL     1     -43.966  56.953 -56.319  1.00  0.00    -0.284 NA
HETATM    2  H   UNL     1     -44.371  56.879 -57.263  1.00  0.00     0.128 HD
ENDROOT
BRANCH   1   3
HETATM    3  C   UNL     1     -44.211  58.261 -55.846  1.00  0.00     0.016 A 
HETATM    4  C   UNL     1     -44.473  58.440 -54.466  1.00  0.00    -0.011 A 
HETATM    5  C   UNL     1     -44.811  59.716 -53.977  1.00  0.00     0.011 A 
HETATM    6  C   UNL     1     -44.891  60.808 -54.836  1.00  0.00     0.001 A 
HETATM    7  C   UNL     1     -44.649  60.635 -56.192  1.00  0.00     0.002 A 
HETATM    8  C   UNL     1     -44.326  59.371 -56.695  1.00  0.00     0.024 A 
BRANCH   4   9
HETATM    9  C   UNL     1     -44.429  57.287 -53.488  1.00  0.00     0.275 C 
BRANCH   9  10
HETATM   10  N   UNL     1     -43.653  57.548 -52.204  1.00  0.00    -0.067 N 
HETATM   11  C   UNL     1     -44.447  57.084 -51.004  1.00  0.00     0.270 C 
HETATM   12  H   UNL     1     -43.645  58.585 -52.160  1.00  0.00     0.280 HD
BRANCH  10  13
HETATM   13  C   UNL     1     -42.224  56.997 -52.212  1.00  0.00     0.188 C 
HETATM   14  C   UNL     1     -41.327  57.673 -53.262  1.00  0.00     0.033 C 
HETATM   15  C   UNL     1     -41.043  59.140 -52.950  1.00  0.00     0.002 C 
HETATM   16  C   UNL     1     -40.445  59.310 -51.555  1.00  0.00     0.000 C 
HETATM   17  C   UNL     1     -41.279  58.621 -50.479  1.00  0.00     0.002 C 
HETATM   18  C   UNL     1     -41.554  57.160 -50.833  1.00  0.00     0.033 C 
ENDBRANCH  10  13
ENDBRANCH   9  10
ENDBRANCH   4   9
ENDBRANCH   1   3
BRANCH   1  19
HETATM   19  C   UNL     1     -42.544  56.534 -56.453  1.00  0.00     0.197 C 
BRANCH  19  20
HETATM   20  C   UNL     1     -42.376  55.143 -55.839  1.00  0.00     0.249 C 
HETATM   21  N   UNL     1     -41.074  54.769 -55.602  1.00  0.00    -0.266 N 
HETATM   22  H   UNL     1     -40.266  55.221 -56.038  1.00  0.00     0.190 HD
HETATM   23  O   UNL     1     -43.340  54.432 -55.545  1.00  0.00    -0.270 OA
BRANCH  21  24
HETATM   24  N   UNL     1     -40.834  53.474 -55.119  1.00  0.00    -0.263 N 
HETATM   25  C   UNL     1     -40.510  53.354 -53.780  1.00  0.00     0.270 C 
HETATM   26  O   UNL     1     -40.518  54.324 -53.026  1.00  0.00    -0.266 OA
HETATM   27  H   UNL     1     -40.566  52.771 -55.808  1.00  0.00     0.190 HD
BRANCH  25  28
HETATM   28  C   UNL     1     -40.116  51.999 -53.308  1.00  0.00     0.033 A 
HETATM   29  C   UNL     1     -40.116  50.947 -54.231  1.00  0.00     0.017 A 
HETATM   30  C   UNL     1     -39.750  49.661 -53.828  1.00  0.00     0.001 A 
HETATM   31  C   UNL     1     -39.375  49.424 -52.506  1.00  0.00     0.000 A 
HETATM   32  C   UNL     1     -39.357  50.472 -51.586  1.00  0.00     0.001 A 
HETATM   33  C   UNL     1     -39.723  51.759 -51.983  1.00  0.00     0.017 A 
ENDBRANCH  25  28
ENDBRANCH  21  24
ENDBRANCH  19  20
ENDBRANCH   1  19
TORSDOF 8
ENDMDL
MODEL 3
REMARK VINA RESULT:      -7.8      2.421      8.651
REMARK  8 active torsions:
REMARK  status: ('A' for Active; 'I' for Inactive)
REMARK    1  A    between atoms: N_2  and  C_4 
REMARK    2  A    between atoms: N_2  and  C_10 
REMARK    3  A    between atoms: C_10  and  C_11 
REMARK    4  A    between atoms: C_12  and  N_13 
REMARK    5  A    between atoms: N_13  and  C_14 
REMARK    6  A    between atoms: C_14  and  C_15 
REMARK       I    between atoms: C_15  and  N_16 
REMARK    7  A    between atoms: N_16  and  N_17 
REMARK       I    between atoms: N_17  and  C_18 
REMARK    8  A    between atoms: C_18  and  C_19 
ROOT
HETATM    1  N   UNL     1     -43.940  57.117 -56.365  1.00  0.00    -0.284 NA
HETATM    2  H   UNL     1     -44.062  57.211 -57.384  1.00  0.00     0.128 HD
ENDROOT
BRANCH   1   3
HETATM    3  C   UNL     1     -44.520  58.252 -55.756  1.00  0.00     0.016 A 
HETATM    4  C   UNL     1     -44.965  59.308 -56.586  1.00  0.00    -0.011 A 
HETATM    5  C   UNL     1     -45.463  60.491 -56.007  1.00  0.00     0.011 A 
HETATM    6  C   UNL     1     -45.524  60.635 -54.625  1.00  0.00     0.001 A 
HETATM    7  C   UNL     1     -45.074  59.607 -53.806  1.00  0.00     0.002 A 
HETATM    8  C   UNL     1     -44.564  58.432 -54.366  1.00  0.00     0.024 A 
BRANCH   4   9
HETATM    9  C   UNL     1     -44.899  59.221 -58.095  1.00  0.00     0.275 C 
BRANCH   9  10
HETATM   10  N   UNL     1     -45.422  57.925 -58.698  1.00  0.00    -0.067 N 
HETATM   11  C   UNL     1     -46.927  57.852 -58.567  1.00  0.00     0.270 C 
HETATM   12  H   UNL     1     -45.042  57.211 -58.047  1.00  0.00     0.280 HD
BRANCH  10  13
HETATM   13  C   UNL     1     -44.944  57.660 -60.129  1.00  0.00     0.188 C 
HETATM   14  C   UNL     1     -43.585  58.313 -60.435  1.00  0.00     0.033 C 
HETATM   15  C   UNL     1     -42.433  57.689 -59.652  1.00  0.00     0.002 C 
HETATM   16  C   UNL     1     -42.357  56.180 -59.872  1.00  0.00     0.000 C 
HETATM   17  C   UNL     1     -43.695  55.489 -59.619  1.00  0.00     0.002 C 
HETATM   18  C   UNL     1     -44.824  56.150 -60.409  1.00  0.00     0.033 C 
ENDBRANCH  10  13
ENDBRANCH   9  10
ENDBRANCH   4   9
ENDBRANCH   1   3
BRANCH   1  19
HETATM   19  C   UNL     1     -42.484  56.899 -56.149  1.00  0.00     0.197 C 
BRANCH  19  20
HETATM   20  C   UNL     1     -42.255  55.441 -55.746  1.00  0.00     0.249 C 
HETATM   21  N   UNL     1     -40.979  55.153 -55.317  1.00  0.00    -0.266 N 
HETATM   22  H   UNL     1     -40.170  55.751 -55.505  1.00  0.00     0.190 HD
HETATM   23  O   UNL     1     -43.157  54.601 -55.769  1.00  0.00    -0.270 OA
BRANCH  21  24
HETATM   24  N   UNL     1     -40.668  53.820 -55.012  1.00  0.00    -0.263 N 
HETATM   25  C   UNL     1     -40.707  53.457 -53.678  1.00  0.00     0.270 C 
HETATM   26  O   UNL     1     -41.081  54.240 -52.808  1.00  0.00    -0.266 OA
HETATM   27  H   UNL     1     -40.109  53.312 -55.696  1.00  0.00     0.190 HD
BRANCH  25  28
HETATM   28  C   UNL     1     -40.237  52.086 -53.345  1.00  0.00     0.033 A 
HETATM   29  C   UNL     1     -39.856  51.814 -52.026  1.00  0.00     0.017 A 
HETATM   30  C   UNL     1     -39.411  50.538 -51.674  1.00  0.00     0.001 A 
HETATM   31  C   UNL     1     -39.354  49.529 -52.633  1.00  0.00     0.000 A 
HETATM   32  C   UNL     1     -39.747  49.789 -53.945  1.00  0.00     0.001 A 
HETATM   33  C   UNL     1     -40.191  51.063 -54.305  1.00  0.00     0.017 A 
ENDBRANCH  25  28
ENDBRANCH  21  24
ENDBRANCH  19  20
ENDBRANCH   1  19
TORSDOF 8
ENDMDL
MODEL 4
REMARK VINA RESULT:      -7.8      2.459      2.926
REMARK  8 active torsions:
REMARK  status: ('A' for Active; 'I' for Inactive)
REMARK    1  A    between atoms: N_2  and  C_4 
REMARK    2  A    between atoms: N_2  and  C_10 
REMARK    3  A    between atoms: C_10  and  C_11 
REMARK    4  A    between atoms: C_12  and  N_13 
REMARK    5  A    between atoms: N_13  and  C_14 
REMARK    6  A    between atoms: C_14  and  C_15 
REMARK       I    between atoms: C_15  and  N_16 
REMARK    7  A    between atoms: N_16  and  N_17 
REMARK       I    between atoms: N_17  and  C_18 
REMARK    8  A    between atoms: C_18  and  C_19 
ROOT
HETATM    1  N   UNL     1     -41.693  55.036 -54.307  1.00  0.00    -0.284 NA
HETATM    2  H   UNL     1     -41.017  55.479 -54.946  1.00  0.00     0.128 HD
ENDROOT
BRANCH   1   3
HETATM    3  C   UNL     1     -41.077  53.890 -53.755  1.00  0.00     0.016 A 
HETATM    4  C   UNL     1     -40.806  53.875 -52.367  1.00  0.00    -0.011 A 
HETATM    5  C   UNL     1     -40.112  52.789 -51.800  1.00  0.00     0.011 A 
HETATM    6  C   UNL     1     -39.687  51.726 -52.593  1.00  0.00     0.001 A 
HETATM    7  C   UNL     1     -39.938  51.744 -53.959  1.00  0.00     0.002 A 
HETATM    8  C   UNL     1     -40.614  52.822 -54.537  1.00  0.00     0.024 A 
BRANCH   4   9
HETATM    9  C   UNL     1     -41.218  55.013 -51.459  1.00  0.00     0.275 C 
BRANCH   9  10
HETATM   10  N   UNL     1     -42.686  55.411 -51.536  1.00  0.00    -0.067 N 
HETATM   11  C   UNL     1     -43.555  54.342 -50.915  1.00  0.00     0.270 C 
HETATM   12  H   UNL     1     -42.869  55.375 -52.556  1.00  0.00     0.280 HD
BRANCH  10  13
HETATM   13  C   UNL     1     -42.986  56.808 -50.982  1.00  0.00     0.188 C 
HETATM   14  C   UNL     1     -41.980  57.869 -51.459  1.00  0.00     0.033 C 
HETATM   15  C   UNL     1     -42.075  58.152 -52.956  1.00  0.00     0.002 C 
HETATM   16  C   UNL     1     -43.493  58.546 -53.364  1.00  0.00     0.000 C 
HETATM   17  C   UNL     1     -44.535  57.542 -52.878  1.00  0.00     0.002 C 
HETATM   18  C   UNL     1     -44.400  57.275 -51.379  1.00  0.00     0.033 C 
ENDBRANCH  10  13
ENDBRANCH   9  10
ENDBRANCH   4   9
ENDBRANCH   1   3
BRANCH   1  19
HETATM   19  C   UNL     1     -42.929  54.824 -55.107  1.00  0.00     0.197 C 
BRANCH  19  20
HETATM   20  C   UNL     1     -42.774  55.526 -56.458  1.00  0.00     0.249 C 
HETATM   21  N   UNL     1     -42.101  56.725 -56.412  1.00  0.00    -0.266 N 
HETATM   22  H   UNL     1     -41.957  57.262 -55.552  1.00  0.00     0.190 HD
HETATM   23  O   UNL     1     -43.188  55.031 -57.509  1.00  0.00    -0.270 OA
BRANCH  21  24
HETATM   24  N   UNL     1     -41.992  57.470 -57.596  1.00  0.00    -0.263 N 
HETATM   25  C   UNL     1     -41.864  58.840 -57.465  1.00  0.00     0.270 C 
HETATM   26  O   UNL     1     -41.760  59.375 -56.364  1.00  0.00    -0.266 OA
HETATM   27  H   UNL     1     -42.358  57.037 -58.443  1.00  0.00     0.190 HD
BRANCH  25  28
HETATM   28  C   UNL     1     -41.895  59.636 -58.721  1.00  0.00     0.033 A 
HETATM   29  C   UNL     1     -41.660  61.014 -58.643  1.00  0.00     0.017 A 
HETATM   30  C   UNL     1     -41.679  61.796 -59.800  1.00  0.00     0.001 A 
HETATM   31  C   UNL     1     -41.923  61.204 -61.038  1.00  0.00     0.000 A 
HETATM   32  C   UNL     1     -42.142  59.830 -61.125  1.00  0.00     0.001 A 
HETATM   33  C   UNL     1     -42.126  59.043 -59.971  1.00  0.00     0.017 A 
ENDBRANCH  25  28
ENDBRANCH  21  24
ENDBRANCH  19  20
ENDBRANCH   1  19
TORSDOF 8
ENDMDL
MODEL 5
REMARK VINA RESULT:      -7.7      2.651      8.853
REMARK  8 active torsions:
REMARK  status: ('A' for Active; 'I' for Inactive)
REMARK    1  A    between atoms: N_2  and  C_4 
REMARK    2  A    between atoms: N_2  and  C_10 
REMARK    3  A    between atoms: C_10  and  C_11 
REMARK    4  A    between atoms: C_12  and  N_13 
REMARK    5  A    between atoms: N_13  and  C_14 
REMARK    6  A    between atoms: C_14  and  C_15 
REMARK       I    between atoms: C_15  and  N_16 
REMARK    7  A    between atoms: N_16  and  N_17 
REMARK       I    between atoms: N_17  and  C_18 
REMARK    8  A    between atoms: C_18  and  C_19 
ROOT
HETATM    1  N   UNL     1     -42.273  56.898 -58.008  1.00  0.00    -0.284 NA
HETATM    2  H   UNL     1     -42.016  57.861 -58.268  1.00  0.00     0.128 HD
ENDROOT
BRANCH   1   3
HETATM    3  C   UNL     1     -43.394  56.527 -58.781  1.00  0.00     0.016 A 
HETATM    4  C   UNL     1     -44.475  57.435 -58.881  1.00  0.00    -0.011 A 
HETATM    5  C   UNL     1     -45.645  57.060 -59.568  1.00  0.00     0.011 A 
HETATM    6  C   UNL     1     -45.753  55.802 -60.152  1.00  0.00     0.001 A 
HETATM    7  C   UNL     1     -44.701  54.902 -60.044  1.00  0.00     0.002 A 
HETATM    8  C   UNL     1     -43.539  55.254 -59.354  1.00  0.00     0.024 A 
BRANCH   4   9
HETATM    9  C   UNL     1     -44.427  58.807 -58.243  1.00  0.00     0.275 C 
BRANCH   9  10
HETATM   10  N   UNL     1     -44.585  59.979 -59.202  1.00  0.00    -0.067 N 
HETATM   11  C   UNL     1     -45.883  60.707 -58.936  1.00  0.00     0.270 C 
HETATM   12  H   UNL     1     -44.705  59.501 -60.115  1.00  0.00     0.280 HD
BRANCH  10  13
HETATM   13  C   UNL     1     -43.380  60.924 -59.242  1.00  0.00     0.188 C 
HETATM   14  C   UNL     1     -42.054  60.190 -59.506  1.00  0.00     0.033 C 
HETATM   15  C   UNL     1     -41.969  59.594 -60.909  1.00  0.00     0.002 C 
HETATM   16  C   UNL     1     -42.212  60.652 -61.983  1.00  0.00     0.000 C 
HETATM   17  C   UNL     1     -43.499  61.437 -61.743  1.00  0.00     0.002 C 
HETATM   18  C   UNL     1     -43.552  62.006 -60.326  1.00  0.00     0.033 C 
ENDBRANCH  10  13
ENDBRANCH   9  10
ENDBRANCH   4   9
ENDBRANCH   1   3
BRANCH   1  19
HETATM   19  C   UNL     1     -42.441  56.909 -56.529  1.00  0.00     0.197 C 
BRANCH  19  20
HETATM   20  C   UNL     1     -42.279  55.482 -56.000  1.00  0.00     0.249 C 
HETATM   21  N   UNL     1     -40.995  55.137 -55.649  1.00  0.00    -0.266 N 
HETATM   22  H   UNL     1     -40.166  55.649 -55.961  1.00  0.00     0.190 HD
HETATM   23  O   UNL     1     -43.237  54.717 -55.866  1.00  0.00    -0.270 OA
BRANCH  21  24
HETATM   24  N   UNL     1     -40.752  53.818 -55.237  1.00  0.00    -0.263 N 
HETATM   25  C   UNL     1     -40.632  53.599 -53.876  1.00  0.00     0.270 C 
HETATM   26  O   UNL     1     -40.817  54.499 -53.060  1.00  0.00    -0.266 OA
HETATM   27  H   UNL     1     -40.337  53.192 -55.926  1.00  0.00     0.190 HD
BRANCH  25  28
HETATM   28  C   UNL     1     -40.232  52.230 -53.454  1.00  0.00     0.033 A 
HETATM   29  C   UNL     1     -39.850  52.029 -52.123  1.00  0.00     0.017 A 
HETATM   30  C   UNL     1     -39.469  50.759 -51.686  1.00  0.00     0.001 A 
HETATM   31  C   UNL     1     -39.479  49.684 -52.574  1.00  0.00     0.000 A 
HETATM   32  C   UNL     1     -39.874  49.874 -53.897  1.00  0.00     0.001 A 
HETATM   33  C   UNL     1     -40.255  51.143 -54.340  1.00  0.00     0.017 A 
ENDBRANCH  25  28
ENDBRANCH  21  24
ENDBRANCH  19  20
ENDBRANCH   1  19
TORSDOF 8
ENDMDL
MODEL 6
REMARK VINA RESULT:      -7.7      2.423      3.181
REMARK  8 active torsions:
REMARK  status: ('A' for Active; 'I' for Inactive)
REMARK    1  A    between atoms: N_2  and  C_4 
REMARK    2  A    between atoms: N_2  and  C_10 
REMARK    3  A    between atoms: C_10  and  C_11 
REMARK    4  A    between atoms: C_12  and  N_13 
REMARK    5  A    between atoms: N_13  and  C_14 
REMARK    6  A    between atoms: C_14  and  C_15 
REMARK       I    between atoms: C_15  and  N_16 
REMARK    7  A    between atoms: N_16  and  N_17 
REMARK       I    between atoms: N_17  and  C_18 
REMARK    8  A    between atoms: C_18  and  C_19 
ROOT
HETATM    1  N   UNL     1     -43.401  54.684 -53.313  1.00  0.00    -0.284 NA
HETATM    2  H   UNL     1     -43.489  55.700 -53.172  1.00  0.00     0.128 HD
ENDROOT
BRANCH   1   3
HETATM    3  C   UNL     1     -42.311  54.233 -52.536  1.00  0.00     0.016 A 
HETATM    4  C   UNL     1     -42.116  54.805 -51.256  1.00  0.00    -0.011 A 
HETATM    5  C   UNL     1     -40.989  54.446 -50.493  1.00  0.00     0.011 A 
HETATM    6  C   UNL     1     -40.061  53.531 -50.983  1.00  0.00     0.001 A 
HETATM    7  C   UNL     1     -40.241  52.979 -52.245  1.00  0.00     0.002 A 
HETATM    8  C   UNL     1     -41.348  53.336 -53.019  1.00  0.00     0.024 A 
BRANCH   4   9
HETATM    9  C   UNL     1     -43.074  55.824 -50.681  1.00  0.00     0.275 C 
BRANCH   9  10
HETATM   10  N   UNL     1     -43.311  57.057 -51.543  1.00  0.00    -0.067 N 
HETATM   11  C   UNL     1     -44.749  57.510 -51.433  1.00  0.00     0.270 C 
HETATM   12  H   UNL     1     -43.201  56.679 -52.503  1.00  0.00     0.280 HD
BRANCH  10  13
HETATM   13  C   UNL     1     -42.316  58.196 -51.295  1.00  0.00     0.188 C 
HETATM   14  C   UNL     1     -40.906  57.884 -51.824  1.00  0.00     0.033 C 
HETATM   15  C   UNL     1     -40.843  57.805 -53.347  1.00  0.00     0.002 C 
HETATM   16  C   UNL     1     -41.383  59.077 -53.997  1.00  0.00     0.000 C 
HETATM   17  C   UNL     1     -42.768  59.452 -53.474  1.00  0.00     0.002 C 
HETATM   18  C   UNL     1     -42.793  59.508 -51.948  1.00  0.00     0.033 C 
ENDBRANCH  10  13
ENDBRANCH   9  10
ENDBRANCH   4   9
ENDBRANCH   1   3
BRANCH   1  19
HETATM   19  C   UNL     1     -43.313  54.485 -54.786  1.00  0.00     0.197 C 
BRANCH  19  20
HETATM   20  C   UNL     1     -43.257  55.853 -55.469  1.00  0.00     0.249 C 
HETATM   21  N   UNL     1     -42.263  55.987 -56.411  1.00  0.00    -0.266 N 
HETATM   22  H   UNL     1     -41.452  55.367 -56.472  1.00  0.00     0.190 HD
HETATM   23  O   UNL     1     -44.066  56.748 -55.218  1.00  0.00    -0.270 OA
BRANCH  21  24
HETATM   24  N   UNL     1     -42.093  57.240 -57.020  1.00  0.00    -0.263 N 
HETATM   25  C   UNL     1     -42.496  57.356 -58.338  1.00  0.00     0.270 C 
HETATM   26  O   UNL     1     -43.058  56.433 -58.923  1.00  0.00    -0.266 OA
HETATM   27  H   UNL     1     -41.392  57.857 -56.610  1.00  0.00     0.190 HD
BRANCH  25  28
HETATM   28  C   UNL     1     -42.182  58.639 -59.021  1.00  0.00     0.033 A 
HETATM   29  C   UNL     1     -42.184  58.667 -60.421  1.00  0.00     0.017 A 
HETATM   30  C   UNL     1     -41.896  59.852 -61.099  1.00  0.00     0.001 A 
HETATM   31  C   UNL     1     -41.614  61.015 -60.384  1.00  0.00     0.000 A 
HETATM   32  C   UNL     1     -41.626  60.998 -58.990  1.00  0.00     0.001 A 
HETATM   33  C   UNL     1     -41.912  59.815 -58.305  1.00  0.00     0.017 A 
ENDBRANCH  25  28
ENDBRANCH  21  24
ENDBRANCH  19  20
ENDBRANCH   1  19
TORSDOF 8
ENDMDL
MODEL 7
REMARK VINA RESULT:      -7.7      1.505      2.235
REMARK  8 active torsions:
REMARK  status: ('A' for Active; 'I' for Inactive)
REMARK    1  A    between atoms: N_2  and  C_4 
REMARK    2  A    between atoms: N_2  and  C_10 
REMARK    3  A    between atoms: C_10  and  C_11 
REMARK    4  A    between atoms: C_12  and  N_13 
REMARK    5  A    between atoms: N_13  and  C_14 
REMARK    6  A    between atoms: C_14  and  C_15 
REMARK       I    between atoms: C_15  and  N_16 
REMARK    7  A    between atoms: N_16  and  N_17 
REMARK       I    between atoms: N_17  and  C_18 
REMARK    8  A    between atoms: C_18  and  C_19 
ROOT
HETATM    1  N   UNL     1     -41.375  55.524 -53.174  1.00  0.00    -0.284 NA
HETATM    2  H   UNL     1     -40.991  56.479 -53.124  1.00  0.00     0.128 HD
ENDROOT
BRANCH   1   3
HETATM    3  C   UNL     1     -41.036  54.860 -51.974  1.00  0.00     0.016 A 
HETATM    4  C   UNL     1     -41.104  55.586 -50.761  1.00  0.00    -0.011 A 
HETATM    5  C   UNL     1     -40.686  54.982 -49.559  1.00  0.00     0.011 A 
HETATM    6  C   UNL     1     -40.205  53.677 -49.550  1.00  0.00     0.001 A 
HETATM    7  C   UNL     1     -40.122  52.966 -50.741  1.00  0.00     0.002 A 
HETATM    8  C   UNL     1     -40.520  53.556 -51.943  1.00  0.00     0.024 A 
BRANCH   4   9
HETATM    9  C   UNL     1     -41.592  57.017 -50.711  1.00  0.00     0.275 C 
BRANCH   9  10
HETATM   10  N   UNL     1     -42.814  57.320 -51.568  1.00  0.00    -0.067 N 
HETATM   11  C   UNL     1     -44.063  56.769 -50.919  1.00  0.00     0.270 C 
HETATM   12  H   UNL     1     -42.643  56.735 -52.408  1.00  0.00     0.280 HD
BRANCH  10  13
HETATM   13  C   UNL     1     -42.956  58.795 -51.958  1.00  0.00     0.188 C 
HETATM   14  C   UNL     1     -41.607  59.465 -52.267  1.00  0.00     0.033 C 
HETATM   15  C   UNL     1     -40.945  58.921 -53.531  1.00  0.00     0.002 C 
HETATM   16  C   UNL     1     -41.875  59.021 -54.738  1.00  0.00     0.000 C 
HETATM   17  C   UNL     1     -43.245  58.404 -54.467  1.00  0.00     0.002 C 
HETATM   18  C   UNL     1     -43.868  58.964 -53.189  1.00  0.00     0.033 C 
ENDBRANCH  10  13
ENDBRANCH   9  10
ENDBRANCH   4   9
ENDBRANCH   1   3
BRANCH   1  19
HETATM   19  C   UNL     1     -40.856  54.944 -54.442  1.00  0.00     0.197 C 
BRANCH  19  20
HETATM   20  C   UNL     1     -42.023  54.742 -55.410  1.00  0.00     0.249 C 
HETATM   21  N   UNL     1     -42.014  55.573 -56.507  1.00  0.00    -0.266 N 
HETATM   22  H   UNL     1     -41.467  56.436 -56.560  1.00  0.00     0.190 HD
HETATM   23  O   UNL     1     -42.882  53.874 -55.235  1.00  0.00    -0.270 OA
BRANCH  21  24
HETATM   24  N   UNL     1     -43.097  55.507 -57.397  1.00  0.00    -0.263 N 
HETATM   25  C   UNL     1     -43.391  56.653 -58.112  1.00  0.00     0.270 C 
HETATM   26  O   UNL     1     -42.685  57.656 -58.041  1.00  0.00    -0.266 OA
HETATM   27  H   UNL     1     -43.795  54.786 -57.215  1.00  0.00     0.190 HD
BRANCH  25  28
HETATM   28  C   UNL     1     -44.625  56.622 -58.943  1.00  0.00     0.033 A 
HETATM   29  C   UNL     1     -44.742  55.631 -59.924  1.00  0.00     0.017 A 
HETATM   30  C   UNL     1     -45.885  55.567 -60.724  1.00  0.00     0.001 A 
HETATM   31  C   UNL     1     -46.918  56.486 -60.539  1.00  0.00     0.000 A 
HETATM   32  C   UNL     1     -46.814  57.465 -59.553  1.00  0.00     0.001 A 
HETATM   33  C   UNL     1     -45.672  57.535 -58.752  1.00  0.00     0.017 A 
ENDBRANCH  25  28
ENDBRANCH  21  24
ENDBRANCH  19  20
ENDBRANCH   1  19
TORSDOF 8
ENDMDL
MODEL 8
REMARK VINA RESULT:      -7.5      3.392      8.480
REMARK  8 active torsions:
REMARK  status: ('A' for Active; 'I' for Inactive)
REMARK    1  A    between atoms: N_2  and  C_4 
REMARK    2  A    between atoms: N_2  and  C_10 
REMARK    3  A    between atoms: C_10  and  C_11 
REMARK    4  A    between atoms: C_12  and  N_13 
REMARK    5  A    between atoms: N_13  and  C_14 
REMARK    6  A    between atoms: C_14  and  C_15 
REMARK       I    between atoms: C_15  and  N_16 
REMARK    7  A    between atoms: N_16  and  N_17 
REMARK       I    between atoms: N_17  and  C_18 
REMARK    8  A    between atoms: C_18  and  C_19 
ROOT
HETATM    1  N   UNL     1     -42.484  57.348 -55.966  1.00  0.00    -0.284 NA
HETATM    2  H   UNL     1     -42.423  58.364 -55.811  1.00  0.00     0.128 HD
ENDROOT
BRANCH   1   3
HETATM    3  C   UNL     1     -42.583  57.130 -57.358  1.00  0.00     0.016 A 
HETATM    4  C   UNL     1     -42.268  58.198 -58.231  1.00  0.00    -0.011 A 
HETATM    5  C   UNL     1     -42.444  58.044 -59.619  1.00  0.00     0.011 A 
HETATM    6  C   UNL     1     -42.926  56.849 -60.146  1.00  0.00     0.001 A 
HETATM    7  C   UNL     1     -43.250  55.803 -59.292  1.00  0.00     0.002 A 
HETATM    8  C   UNL     1     -43.094  55.946 -57.911  1.00  0.00     0.024 A 
BRANCH   4   9
HETATM    9  C   UNL     1     -41.768  59.530 -57.716  1.00  0.00     0.275 C 
BRANCH   9  10
HETATM   10  N   UNL     1     -42.646  60.729 -58.046  1.00  0.00    -0.067 N 
HETATM   11  C   UNL     1     -43.944  60.661 -57.274  1.00  0.00     0.270 C 
HETATM   12  H   UNL     1     -42.891  60.555 -59.039  1.00  0.00     0.280 HD
BRANCH  10  13
HETATM   13  C   UNL     1     -41.943  62.082 -57.894  1.00  0.00     0.188 C 
HETATM   14  C   UNL     1     -40.603  62.148 -58.646  1.00  0.00     0.033 C 
HETATM   15  C   UNL     1     -40.766  62.104 -60.163  1.00  0.00     0.002 C 
HETATM   16  C   UNL     1     -41.705  63.202 -60.657  1.00  0.00     0.000 C 
HETATM   17  C   UNL     1     -43.037  63.204 -59.912  1.00  0.00     0.002 C 
HETATM   18  C   UNL     1     -42.832  63.235 -58.398  1.00  0.00     0.033 C 
ENDBRANCH  10  13
ENDBRANCH   9  10
ENDBRANCH   4   9
ENDBRANCH   1   3
BRANCH   1  19
HETATM   19  C   UNL     1     -43.615  56.875 -55.122  1.00  0.00     0.197 C 
BRANCH  19  20
HETATM   20  C   UNL     1     -43.247  55.521 -54.511  1.00  0.00     0.249 C 
HETATM   21  N   UNL     1     -42.047  55.497 -53.839  1.00  0.00    -0.266 N 
HETATM   22  H   UNL     1     -41.318  56.205 -53.956  1.00  0.00     0.190 HD
HETATM   23  O   UNL     1     -43.991  54.541 -54.587  1.00  0.00    -0.270 OA
BRANCH  21  24
HETATM   24  N   UNL     1     -41.601  54.270 -53.325  1.00  0.00    -0.263 N 
HETATM   25  C   UNL     1     -40.585  53.634 -54.015  1.00  0.00     0.270 C 
HETATM   26  O   UNL     1     -40.037  54.157 -54.982  1.00  0.00    -0.266 OA
HETATM   27  H   UNL     1     -42.249  53.764 -52.722  1.00  0.00     0.190 HD
BRANCH  25  28
HETATM   28  C   UNL     1     -40.217  52.269 -53.550  1.00  0.00     0.033 A 
HETATM   29  C   UNL     1     -39.847  52.100 -52.211  1.00  0.00     0.017 A 
HETATM   30  C   UNL     1     -39.495  50.835 -51.735  1.00  0.00     0.001 A 
HETATM   31  C   UNL     1     -39.522  49.735 -52.592  1.00  0.00     0.000 A 
HETATM   32  C   UNL     1     -39.905  49.895 -53.922  1.00  0.00     0.001 A 
HETATM   33  C   UNL     1     -40.256  51.158 -54.404  1.00  0.00     0.017 A 
ENDBRANCH  25  28
ENDBRANCH  21  24
ENDBRANCH  19  20
ENDBRANCH   1  19
TORSDOF 8
ENDMDL
MODEL 9
REMARK VINA RESULT:      -7.4      2.777      8.598
REMARK  8 active torsions:
REMARK  status: ('A' for Active; 'I' for Inactive)
REMARK    1  A    between atoms: N_2  and  C_4 
REMARK    2  A    between atoms: N_2  and  C_10 
REMARK    3  A    between atoms: C_10  and  C_11 
REMARK    4  A    between atoms: C_12  and  N_13 
REMARK    5  A    between atoms: N_13  and  C_14 
REMARK    6  A    between atoms: C_14  and  C_15 
REMARK       I    between atoms: C_15  and  N_16 
REMARK    7  A    between atoms: N_16  and  N_17 
REMARK       I    between atoms: N_17  and  C_18 
REMARK    8  A    between atoms: C_18  and  C_19 
ROOT
HETATM    1  N   UNL     1     -42.795  57.529 -57.909  1.00  0.00    -0.284 NA
HETATM    2  H   UNL     1     -42.608  58.467 -58.290  1.00  0.00     0.128 HD
ENDROOT
BRANCH   1   3
HETATM    3  C   UNL     1     -43.654  56.861 -58.808  1.00  0.00     0.016 A 
HETATM    4  C   UNL     1     -44.660  57.611 -59.462  1.00  0.00    -0.011 A 
HETATM    5  C   UNL     1     -45.591  56.961 -60.294  1.00  0.00     0.011 A 
HETATM    6  C   UNL     1     -45.534  55.583 -60.482  1.00  0.00     0.001 A 
HETATM    7  C   UNL     1     -44.558  54.840 -59.831  1.00  0.00     0.002 A 
HETATM    8  C   UNL     1     -43.635  55.470 -58.991  1.00  0.00     0.024 A 
BRANCH   4   9
HETATM    9  C   UNL     1     -44.790  59.107 -59.274  1.00  0.00     0.275 C 
BRANCH   9  10
HETATM   10  N   UNL     1     -43.665  59.941 -59.874  1.00  0.00    -0.067 N 
HETATM   11  C   UNL     1     -43.715  59.885 -61.384  1.00  0.00     0.270 C 
HETATM   12  H   UNL     1     -42.822  59.405 -59.594  1.00  0.00     0.280 HD
BRANCH  10  13
HETATM   13  C   UNL     1     -43.595  61.375 -59.342  1.00  0.00     0.188 C 
HETATM   14  C   UNL     1     -43.164  61.446 -57.867  1.00  0.00     0.033 C 
HETATM   15  C   UNL     1     -41.717  61.011 -57.647  1.00  0.00     0.002 C 
HETATM   16  C   UNL     1     -40.752  61.810 -58.519  1.00  0.00     0.000 C 
HETATM   17  C   UNL     1     -41.160  61.804 -59.990  1.00  0.00     0.002 C 
HETATM   18  C   UNL     1     -42.616  62.232 -60.168  1.00  0.00     0.033 C 
ENDBRANCH  10  13
ENDBRANCH   9  10
ENDBRANCH   4   9
ENDBRANCH   1   3
BRANCH   1  19
HETATM   19  C   UNL     1     -43.296  57.746 -56.524  1.00  0.00     0.197 C 
BRANCH  19  20
HETATM   20  C   UNL     1     -42.432  56.941 -55.551  1.00  0.00     0.249 C 
HETATM   21  N   UNL     1     -41.669  55.956 -56.134  1.00  0.00    -0.266 N 
HETATM   22  H   UNL     1     -41.847  55.580 -57.069  1.00  0.00     0.190 HD
HETATM   23  O   UNL     1     -42.397  57.187 -54.343  1.00  0.00    -0.270 OA
BRANCH  21  24
HETATM   24  N   UNL     1     -40.916  55.119 -55.298  1.00  0.00    -0.263 N 
HETATM   25  C   UNL     1     -41.529  53.963 -54.851  1.00  0.00     0.270 C 
HETATM   26  O   UNL     1     -42.649  53.637 -55.237  1.00  0.00    -0.266 OA
HETATM   27  H   UNL     1     -40.141  55.551 -54.796  1.00  0.00     0.190 HD
BRANCH  25  28
HETATM   28  C   UNL     1     -40.780  53.155 -53.851  1.00  0.00     0.033 A 
HETATM   29  C   UNL     1     -40.262  51.917 -54.249  1.00  0.00     0.017 A 
HETATM   30  C   UNL     1     -39.552  51.129 -53.341  1.00  0.00     0.001 A 
HETATM   31  C   UNL     1     -39.349  51.579 -52.037  1.00  0.00     0.000 A 
HETATM   32  C   UNL     1     -39.848  52.818 -51.639  1.00  0.00     0.001 A 
HETATM   33  C   UNL     1     -40.561  53.609 -52.542  1.00  0.00     0.017 A 
ENDBRANCH  25  28
ENDBRANCH  21  24
ENDBRANCH  19  20
ENDBRANCH   1  19
TORSDOF 8
ENDMDL
MODEL 10
REMARK VINA RESULT:      -7.3      3.042      3.970
REMARK  8 active torsions:
REMARK  status: ('A' for Active; 'I' for Inactive)
REMARK    1  A    between atoms: N_2  and  C_4 
REMARK    2  A    between atoms: N_2  and  C_10 
REMARK    3  A    between atoms: C_10  and  C_11 
REMARK    4  A    between atoms: C_12  and  N_13 
REMARK    5  A    between atoms: N_13  and  C_14 
REMARK    6  A    between atoms: C_14  and  C_15 
REMARK       I    between atoms: C_15  and  N_16 
REMARK    7  A    between atoms: N_16  and  N_17 
REMARK       I    between atoms: N_17  and  C_18 
REMARK    8  A    between atoms: C_18  and  C_19 
ROOT
HETATM    1  N   UNL     1     -41.896  55.687 -55.954  1.00  0.00    -0.284 NA
HETATM    2  H   UNL     1     -41.063  55.987 -56.481  1.00  0.00     0.128 HD
ENDROOT
BRANCH   1   3
HETATM    3  C   UNL     1     -41.500  54.658 -55.072  1.00  0.00     0.016 A 
HETATM    4  C   UNL     1     -42.236  54.477 -53.876  1.00  0.00    -0.011 A 
HETATM    5  C   UNL     1     -41.814  53.521 -52.932  1.00  0.00     0.011 A 
HETATM    6  C   UNL     1     -40.679  52.750 -53.160  1.00  0.00     0.001 A 
HETATM    7  C   UNL     1     -39.946  52.934 -54.325  1.00  0.00     0.002 A 
HETATM    8  C   UNL     1     -40.344  53.888 -55.266  1.00  0.00     0.024 A 
BRANCH   4   9
HETATM    9  C   UNL     1     -43.462  55.304 -53.559  1.00  0.00     0.275 C 
BRANCH   9  10
HETATM   10  N   UNL     1     -43.192  56.757 -53.191  1.00  0.00    -0.067 N 
HETATM   11  C   UNL     1     -43.882  57.685 -54.166  1.00  0.00     0.270 C 
HETATM   12  H   UNL     1     -42.175  56.846 -53.380  1.00  0.00     0.280 HD
BRANCH  10  13
HETATM   13  C   UNL     1     -43.503  57.103 -51.732  1.00  0.00     0.188 C 
HETATM   14  C   UNL     1     -42.727  56.229 -50.732  1.00  0.00     0.033 C 
HETATM   15  C   UNL     1     -41.224  56.491 -50.751  1.00  0.00     0.002 C 
HETATM   16  C   UNL     1     -40.908  57.967 -50.520  1.00  0.00     0.000 C 
HETATM   17  C   UNL     1     -41.686  58.880 -51.464  1.00  0.00     0.002 C 
HETATM   18  C   UNL     1     -43.183  58.580 -51.426  1.00  0.00     0.033 C 
ENDBRANCH  10  13
ENDBRANCH   9  10
ENDBRANCH   4   9
ENDBRANCH   1   3
BRANCH   1  19
HETATM   19  C   UNL     1     -42.922  55.348 -56.977  1.00  0.00     0.197 C 
BRANCH  19  20
HETATM   20  C   UNL     1     -42.726  56.251 -58.197  1.00  0.00     0.249 C 
HETATM   21  N   UNL     1     -42.063  57.430 -57.942  1.00  0.00    -0.266 N 
HETATM   22  H   UNL     1     -41.953  57.827 -57.006  1.00  0.00     0.190 HD
HETATM   23  O   UNL     1     -43.100  55.924 -59.325  1.00  0.00    -0.270 OA
BRANCH  21  24
HETATM   24  N   UNL     1     -41.920  58.349 -58.993  1.00  0.00    -0.263 N 
HETATM   25  C   UNL     1     -41.659  59.662 -58.645  1.00  0.00     0.270 C 
HETATM   26  O   UNL     1     -41.472  59.994 -57.477  1.00  0.00    -0.266 OA
HETATM   27  H   UNL     1     -42.350  58.098 -59.882  1.00  0.00     0.190 HD
BRANCH  25  28
HETATM   28  C   UNL     1     -41.652  60.656 -59.752  1.00  0.00     0.033 A 
HETATM   29  C   UNL     1     -41.141  61.933 -59.496  1.00  0.00     0.017 A 
HETATM   30  C   UNL     1     -41.116  62.894 -60.509  1.00  0.00     0.001 A 
HETATM   31  C   UNL     1     -41.590  62.579 -61.781  1.00  0.00     0.000 A 
HETATM   32  C   UNL     1     -42.084  61.304 -62.047  1.00  0.00     0.001 A 
HETATM   33  C   UNL     1     -42.114  60.339 -61.038  1.00  0.00     0.017 A 
ENDBRANCH  25  28
ENDBRANCH  21  24
ENDBRANCH  19  20
ENDBRANCH   1  19
TORSDOF 8
ENDMDL
