MODEL 1
REMARK VINA RESULT:      -7.7      0.000      0.000
REMARK  6 active torsions:
REMARK  status: ('A' for Active; 'I' for Inactive)
REMARK    1  A    between atoms: C_3  and  N_4 
REMARK       I    between atoms: N_4  and  C_5 
REMARK    2  A    between atoms: C_5  and  C_6 
REMARK    3  A    between atoms: C_14  and  N_15 
REMARK       I    between atoms: N_15  and  C_16 
REMARK       I    between atoms: C_16  and  N_17 
REMARK    4  A    between atoms: N_17  and  C_18 
REMARK    5  A    between atoms: C_18  and  C_19 
REMARK    6  A    between atoms: C_19  and  N_20 
ROOT
HETATM    1  N   UNL     1     -43.062  58.912 -54.675  1.00  0.00    -0.309 N 
HETATM    2  C   UNL     1     -43.338  59.672 -55.767  1.00  0.00     0.321 C 
HETATM    3  N   UNL     1     -42.718  59.340 -56.939  1.00  0.00    -0.337 N 
HETATM    4  O   UNL     1     -44.093  60.636 -55.684  1.00  0.00    -0.247 OA
HETATM    5  H   UNL     1     -43.357  59.367 -53.816  1.00  0.00     0.170 HD
HETATM    6  H   UNL     1     -41.809  58.928 -56.750  1.00  0.00     0.164 HD
ENDROOT
BRANCH   1   7
HETATM    7  C   UNL     1     -42.443  57.657 -54.530  1.00  0.00     0.036 A 
HETATM    8  C   UNL     1     -41.215  57.460 -53.908  1.00  0.00     0.032 A 
HETATM    9  C   UNL     1     -40.673  56.174 -53.793  1.00  0.00     0.032 A 
HETATM   10  C   UNL     1     -41.342  55.056 -54.301  1.00  0.00     0.041 A 
HETATM   11  C   UNL     1     -42.566  55.249 -54.972  1.00  0.00    -0.033 A 
HETATM   12  C   UNL     1     -43.344  54.106 -55.570  1.00  0.00     0.050 C 
HETATM   13  C   UNL     1     -43.094  56.551 -55.088  1.00  0.00     0.038 A 
BRANCH  10  14
HETATM   14  N   UNL     1     -40.847  53.745 -54.146  1.00  0.00    -0.321 N 
HETATM   15  C   UNL     1     -40.421  53.109 -52.990  1.00  0.00     0.279 C 
HETATM   16  O   UNL     1     -40.324  53.634 -51.886  1.00  0.00    -0.265 OA
HETATM   17  H   UNL     1     -40.796  53.160 -54.973  1.00  0.00     0.169 HD
BRANCH  15  18
HETATM   18  C   UNL     1     -40.083  51.716 -53.217  1.00  0.00     0.142 A 
HETATM   19  O   UNL     1     -39.787  50.913 -52.142  1.00  0.00    -0.317 OA
HETATM   20  C   UNL     1     -39.480  49.684 -52.633  1.00  0.00     0.143 A 
HETATM   21  C   UNL     1     -39.584  49.672 -54.004  1.00  0.00     0.027 A 
HETATM   22  C   UNL     1     -39.973  50.980 -54.381  1.00  0.00     0.045 A 
ENDBRANCH  15  18
ENDBRANCH  10  14
ENDBRANCH   1   7
BRANCH   3  23
HETATM   23  C   UNL     1     -42.744  60.259 -58.077  1.00  0.00     0.108 C 
HETATM   24  C   UNL     1     -41.443  61.060 -58.122  1.00  0.00     0.034 C 
BRANCH  23  25
HETATM   25  C   UNL     1     -43.139  59.646 -59.454  1.00  0.00     0.259 C 
BRANCH  25  26
HETATM   26  N   UNL     1     -43.550  58.182 -59.510  1.00  0.00    -0.069 N 
HETATM   27  H   UNL     1     -43.654  57.948 -58.514  1.00  0.00     0.280 HD
HETATM   28  C   UNL     1     -44.885  57.891 -60.135  1.00  0.00     0.239 C 
HETATM   29  C   UNL     1     -45.316  56.474 -59.746  1.00  0.00     0.007 C 
HETATM   30  C   UNL     1     -44.257  55.449 -60.174  1.00  0.00     0.007 C 
HETATM   31  C   UNL     1     -46.672  56.140 -60.366  1.00  0.00     0.011 C 
HETATM   32  C   UNL     1     -42.875  55.813 -59.635  1.00  0.00     0.028 C 
HETATM   33  C   UNL     1     -42.477  57.239 -60.001  1.00  0.00     0.235 C 
ENDBRANCH  25  26
ENDBRANCH  23  25
ENDBRANCH   3  23
TORSDOF 6
ENDMDL
MODEL 2
REMARK VINA RESULT:      -7.7      1.110      1.604
REMARK  6 active torsions:
REMARK  status: ('A' for Active; 'I' for Inactive)
REMARK    1  A    between atoms: C_3  and  N_4 
REMARK       I    between atoms: N_4  and  C_5 
REMARK    2  A    between atoms: C_5  and  C_6 
REMARK    3  A    between atoms: C_14  and  N_15 
REMARK       I    between atoms: N_15  and  C_16 
REMARK       I    between atoms: C_16  and  N_17 
REMARK    4  A    between atoms: N_17  and  C_18 
REMARK    5  A    between atoms: C_18  and  C_19 
REMARK    6  A    between atoms: C_19  and  N_20 
ROOT
HETATM    1  N   UNL     1     -43.944  58.415 -54.540  1.00  0.00    -0.309 N 
HETATM    2  C   UNL     1     -44.017  59.204 -55.644  1.00  0.00     0.321 C 
HETATM    3  N   UNL     1     -43.260  58.846 -56.725  1.00  0.00    -0.337 N 
HETATM    4  O   UNL     1     -44.717  60.212 -55.648  1.00  0.00    -0.247 OA
HETATM    5  H   UNL     1     -44.328  58.878 -53.721  1.00  0.00     0.170 HD
HETATM    6  H   UNL     1     -42.414  58.376 -56.418  1.00  0.00     0.164 HD
ENDROOT
BRANCH   1   7
HETATM    7  C   UNL     1     -43.429  57.122 -54.335  1.00  0.00     0.036 A 
HETATM    8  C   UNL     1     -43.681  56.040 -55.172  1.00  0.00     0.032 A 
HETATM    9  C   UNL     1     -43.118  54.787 -54.903  1.00  0.00     0.032 A 
HETATM   10  C   UNL     1     -42.296  54.583 -53.791  1.00  0.00     0.041 A 
HETATM   11  C   UNL     1     -42.070  55.661 -52.913  1.00  0.00    -0.033 A 
HETATM   12  C   UNL     1     -41.216  55.527 -51.678  1.00  0.00     0.050 C 
HETATM   13  C   UNL     1     -42.651  56.915 -53.191  1.00  0.00     0.038 A 
BRANCH  10  14
HETATM   14  N   UNL     1     -41.669  53.347 -53.532  1.00  0.00    -0.321 N 
HETATM   15  C   UNL     1     -40.526  52.815 -54.108  1.00  0.00     0.279 C 
HETATM   16  O   UNL     1     -39.897  53.320 -55.033  1.00  0.00    -0.265 OA
HETATM   17  H   UNL     1     -42.081  52.749 -52.823  1.00  0.00     0.169 HD
BRANCH  15  18
HETATM   18  C   UNL     1     -40.129  51.559 -53.497  1.00  0.00     0.142 A 
HETATM   19  O   UNL     1     -39.867  51.521 -52.149  1.00  0.00    -0.317 OA
HETATM   20  C   UNL     1     -39.493  50.250 -51.851  1.00  0.00     0.143 A 
HETATM   21  C   UNL     1     -39.520  49.462 -52.976  1.00  0.00     0.027 A 
HETATM   22  C   UNL     1     -39.931  50.304 -54.038  1.00  0.00     0.045 A 
ENDBRANCH  15  18
ENDBRANCH  10  14
ENDBRANCH   1   7
BRANCH   3  23
HETATM   23  C   UNL     1     -43.070  59.778 -57.836  1.00  0.00     0.108 C 
HETATM   24  C   UNL     1     -41.722  60.484 -57.693  1.00  0.00     0.034 C 
BRANCH  23  25
HETATM   25  C   UNL     1     -43.320  59.210 -59.266  1.00  0.00     0.259 C 
BRANCH  25  26
HETATM   26  N   UNL     1     -43.923  57.821 -59.405  1.00  0.00    -0.069 N 
HETATM   27  H   UNL     1     -44.138  57.580 -58.428  1.00  0.00     0.280 HD
HETATM   28  C   UNL     1     -45.231  57.734 -60.139  1.00  0.00     0.239 C 
HETATM   29  C   UNL     1     -45.884  56.383 -59.834  1.00  0.00     0.007 C 
HETATM   30  C   UNL     1     -44.945  55.230 -60.216  1.00  0.00     0.007 C 
HETATM   31  C   UNL     1     -47.218  56.257 -60.567  1.00  0.00     0.011 C 
HETATM   32  C   UNL     1     -43.574  55.383 -59.560  1.00  0.00     0.028 C 
HETATM   33  C   UNL     1     -42.954  56.748 -59.845  1.00  0.00     0.235 C 
ENDBRANCH  25  26
ENDBRANCH  23  25
ENDBRANCH   3  23
TORSDOF 6
ENDMDL
MODEL 3
REMARK VINA RESULT:      -7.4      2.475      4.329
REMARK  6 active torsions:
REMARK  status: ('A' for Active; 'I' for Inactive)
REMARK    1  A    between atoms: C_3  and  N_4 
REMARK       I    between atoms: N_4  and  C_5 
REMARK    2  A    between atoms: C_5  and  C_6 
REMARK    3  A    between atoms: C_14  and  N_15 
REMARK       I    between atoms: N_15  and  C_16 
REMARK       I    between atoms: C_16  and  N_17 
REMARK    4  A    between atoms: N_17  and  C_18 
REMARK    5  A    between atoms: C_18  and  C_19 
REMARK    6  A    between atoms: C_19  and  N_20 
ROOT
HETATM    1  N   UNL     1     -42.919  55.787 -57.888  1.00  0.00    -0.309 N 
HETATM    2  C   UNL     1     -43.682  56.735 -58.494  1.00  0.00     0.321 C 
HETATM    3  N   UNL     1     -44.625  57.366 -57.732  1.00  0.00    -0.337 N 
HETATM    4  O   UNL     1     -43.541  56.983 -59.687  1.00  0.00    -0.247 OA
HETATM    5  H   UNL     1     -42.434  55.206 -58.565  1.00  0.00     0.170 HD
HETATM    6  H   UNL     1     -44.966  56.741 -57.008  1.00  0.00     0.164 HD
ENDROOT
BRANCH   1   7
HETATM    7  C   UNL     1     -42.707  55.468 -56.535  1.00  0.00     0.036 A 
HETATM    8  C   UNL     1     -43.157  54.300 -55.929  1.00  0.00     0.032 A 
HETATM    9  C   UNL     1     -42.892  54.053 -54.576  1.00  0.00     0.032 A 
HETATM   10  C   UNL     1     -42.178  54.967 -53.797  1.00  0.00     0.041 A 
HETATM   11  C   UNL     1     -41.756  56.174 -54.389  1.00  0.00    -0.033 A 
HETATM   12  C   UNL     1     -41.001  57.226 -53.620  1.00  0.00     0.050 C 
HETATM   13  C   UNL     1     -42.038  56.413 -55.749  1.00  0.00     0.038 A 
BRANCH  10  14
HETATM   14  N   UNL     1     -41.847  54.714 -52.449  1.00  0.00    -0.321 N 
HETATM   15  C   UNL     1     -40.841  53.910 -51.939  1.00  0.00     0.279 C 
HETATM   16  O   UNL     1     -40.100  53.193 -52.603  1.00  0.00    -0.265 OA
HETATM   17  H   UNL     1     -42.394  55.182 -51.734  1.00  0.00     0.169 HD
BRANCH  15  18
HETATM   18  C   UNL     1     -40.745  53.992 -50.492  1.00  0.00     0.142 A 
HETATM   19  O   UNL     1     -40.519  52.847 -49.768  1.00  0.00    -0.317 OA
HETATM   20  C   UNL     1     -40.506  53.200 -48.457  1.00  0.00     0.143 A 
HETATM   21  C   UNL     1     -40.707  54.553 -48.318  1.00  0.00     0.027 A 
HETATM   22  C   UNL     1     -40.860  55.064 -49.630  1.00  0.00     0.045 A 
ENDBRANCH  15  18
ENDBRANCH  10  14
ENDBRANCH   1   7
BRANCH   3  23
HETATM   23  C   UNL     1     -45.658  58.187 -58.363  1.00  0.00     0.108 C 
HETATM   24  C   UNL     1     -46.997  57.960 -57.661  1.00  0.00     0.034 C 
BRANCH  23  25
HETATM   25  C   UNL     1     -45.317  59.694 -58.566  1.00  0.00     0.259 C 
BRANCH  25  26
HETATM   26  N   UNL     1     -43.862  60.093 -58.763  1.00  0.00    -0.069 N 
HETATM   27  H   UNL     1     -43.385  59.182 -58.757  1.00  0.00     0.280 HD
HETATM   28  C   UNL     1     -43.518  60.720 -60.086  1.00  0.00     0.239 C 
HETATM   29  C   UNL     1     -41.999  60.675 -60.276  1.00  0.00     0.007 C 
HETATM   30  C   UNL     1     -41.288  61.382 -59.114  1.00  0.00     0.007 C 
HETATM   31  C   UNL     1     -41.610  61.306 -61.611  1.00  0.00     0.011 C 
HETATM   32  C   UNL     1     -41.729  60.822 -57.763  1.00  0.00     0.028 C 
HETATM   33  C   UNL     1     -43.246  60.841 -57.604  1.00  0.00     0.235 C 
ENDBRANCH  25  26
ENDBRANCH  23  25
ENDBRANCH   3  23
TORSDOF 6
ENDMDL
MODEL 4
REMARK VINA RESULT:      -7.4      2.379      3.508
REMARK  6 active torsions:
REMARK  status: ('A' for Active; 'I' for Inactive)
REMARK    1  A    between atoms: C_3  and  N_4 
REMARK       I    between atoms: N_4  and  C_5 
REMARK    2  A    between atoms: C_5  and  C_6 
REMARK    3  A    between atoms: C_14  and  N_15 
REMARK       I    between atoms: N_15  and  C_16 
REMARK       I    between atoms: C_16  and  N_17 
REMARK    4  A    between atoms: N_17  and  C_18 
REMARK    5  A    between atoms: C_18  and  C_19 
REMARK    6  A    between atoms: C_19  and  N_20 
ROOT
HETATM    1  N   UNL     1     -43.304  58.742 -50.991  1.00  0.00    -0.309 N 
HETATM    2  C   UNL     1     -43.906  59.798 -51.601  1.00  0.00     0.321 C 
HETATM    3  N   UNL     1     -43.758  59.912 -52.955  1.00  0.00    -0.337 N 
HETATM    4  O   UNL     1     -44.530  60.626 -50.945  1.00  0.00    -0.247 OA
HETATM    5  H   UNL     1     -43.251  58.869 -49.985  1.00  0.00     0.170 HD
HETATM    6  H   UNL     1     -42.864  59.524 -53.243  1.00  0.00     0.164 HD
ENDROOT
BRANCH   1   7
HETATM    7  C   UNL     1     -42.743  57.555 -51.496  1.00  0.00     0.036 A 
HETATM    8  C   UNL     1     -41.593  57.506 -52.277  1.00  0.00     0.032 A 
HETATM    9  C   UNL     1     -41.091  56.280 -52.729  1.00  0.00     0.032 A 
HETATM   10  C   UNL     1     -41.728  55.075 -52.417  1.00  0.00     0.041 A 
HETATM   11  C   UNL     1     -42.917  55.116 -51.663  1.00  0.00    -0.033 A 
HETATM   12  C   UNL     1     -43.682  53.870 -51.299  1.00  0.00     0.050 C 
HETATM   13  C   UNL     1     -43.415  56.359 -51.223  1.00  0.00     0.038 A 
BRANCH  10  14
HETATM   14  N   UNL     1     -41.210  53.824 -52.810  1.00  0.00    -0.321 N 
HETATM   15  C   UNL     1     -40.239  53.053 -52.191  1.00  0.00     0.279 C 
HETATM   16  O   UNL     1     -39.587  53.389 -51.207  1.00  0.00    -0.265 OA
HETATM   17  H   UNL     1     -41.591  53.398 -53.649  1.00  0.00     0.169 HD
BRANCH  15  18
HETATM   18  C   UNL     1     -40.053  51.768 -52.840  1.00  0.00     0.142 A 
HETATM   19  O   UNL     1     -39.694  50.679 -52.083  1.00  0.00    -0.317 OA
HETATM   20  C   UNL     1     -39.558  49.629 -52.934  1.00  0.00     0.143 A 
HETATM   21  C   UNL     1     -39.835  50.013 -54.224  1.00  0.00     0.027 A 
HETATM   22  C   UNL     1     -40.155  51.392 -54.165  1.00  0.00     0.045 A 
ENDBRANCH  15  18
ENDBRANCH  10  14
ENDBRANCH   1   7
BRANCH   3  23
HETATM   23  C   UNL     1     -44.134  61.149 -53.639  1.00  0.00     0.108 C 
HETATM   24  C   UNL     1     -43.109  62.240 -53.332  1.00  0.00     0.034 C 
BRANCH  23  25
HETATM   25  C   UNL     1     -44.469  61.027 -55.156  1.00  0.00     0.259 C 
BRANCH  25  26
HETATM   26  N   UNL     1     -43.457  60.360 -56.075  1.00  0.00    -0.069 N 
HETATM   27  H   UNL     1     -42.641  60.254 -55.458  1.00  0.00     0.280 HD
HETATM   28  C   UNL     1     -43.795  58.970 -56.538  1.00  0.00     0.239 C 
HETATM   29  C   UNL     1     -42.529  58.309 -57.090  1.00  0.00     0.007 C 
HETATM   30  C   UNL     1     -41.927  59.151 -58.223  1.00  0.00     0.007 C 
HETATM   31  C   UNL     1     -42.834  56.892 -57.573  1.00  0.00     0.011 C 
HETATM   32  C   UNL     1     -41.694  60.596 -57.785  1.00  0.00     0.028 C 
HETATM   33  C   UNL     1     -42.957  61.228 -57.206  1.00  0.00     0.235 C 
ENDBRANCH  25  26
ENDBRANCH  23  25
ENDBRANCH   3  23
TORSDOF 6
ENDMDL
MODEL 5
REMARK VINA RESULT:      -7.1      2.825      8.352
REMARK  6 active torsions:
REMARK  status: ('A' for Active; 'I' for Inactive)
REMARK    1  A    between atoms: C_3  and  N_4 
REMARK       I    between atoms: N_4  and  C_5 
REMARK    2  A    between atoms: C_5  and  C_6 
REMARK    3  A    between atoms: C_14  and  N_15 
REMARK       I    between atoms: N_15  and  C_16 
REMARK       I    between atoms: C_16  and  N_17 
REMARK    4  A    between atoms: N_17  and  C_18 
REMARK    5  A    between atoms: C_18  and  C_19 
REMARK    6  A    between atoms: C_19  and  N_20 
ROOT
HETATM    1  N   UNL     1     -40.356  52.324 -52.633  1.00  0.00    -0.309 N 
HETATM    2  C   UNL     1     -40.412  52.482 -51.285  1.00  0.00     0.321 C 
HETATM    3  N   UNL     1     -40.715  53.727 -50.808  1.00  0.00    -0.337 N 
HETATM    4  O   UNL     1     -40.169  51.542 -50.534  1.00  0.00    -0.247 OA
HETATM    5  H   UNL     1     -39.889  51.460 -52.891  1.00  0.00     0.170 HD
HETATM    6  H   UNL     1     -40.377  54.439 -51.449  1.00  0.00     0.164 HD
ENDROOT
BRANCH   1   7
HETATM    7  C   UNL     1     -40.797  53.131 -53.698  1.00  0.00     0.036 A 
HETATM    8  C   UNL     1     -39.999  53.511 -54.772  1.00  0.00     0.032 A 
HETATM    9  C   UNL     1     -40.520  54.307 -55.799  1.00  0.00     0.032 A 
HETATM   10  C   UNL     1     -41.847  54.745 -55.776  1.00  0.00     0.041 A 
HETATM   11  C   UNL     1     -42.652  54.402 -54.672  1.00  0.00    -0.033 A 
HETATM   12  C   UNL     1     -44.086  54.849 -54.552  1.00  0.00     0.050 C 
HETATM   13  C   UNL     1     -42.111  53.608 -53.640  1.00  0.00     0.038 A 
BRANCH  10  14
HETATM   14  N   UNL     1     -42.413  55.496 -56.827  1.00  0.00    -0.321 N 
HETATM   15  C   UNL     1     -42.555  56.871 -56.933  1.00  0.00     0.279 C 
HETATM   16  O   UNL     1     -42.277  57.682 -56.056  1.00  0.00    -0.265 OA
HETATM   17  H   UNL     1     -42.758  54.990 -57.636  1.00  0.00     0.169 HD
BRANCH  15  18
HETATM   18  C   UNL     1     -43.088  57.276 -58.221  1.00  0.00     0.142 A 
HETATM   19  O   UNL     1     -44.449  57.335 -58.397  1.00  0.00    -0.317 OA
HETATM   20  C   UNL     1     -44.669  57.706 -59.684  1.00  0.00     0.143 A 
HETATM   21  C   UNL     1     -43.479  57.902 -60.342  1.00  0.00     0.027 A 
HETATM   22  C   UNL     1     -42.458  57.626 -59.400  1.00  0.00     0.045 A 
ENDBRANCH  15  18
ENDBRANCH  10  14
ENDBRANCH   1   7
BRANCH   3  23
HETATM   23  C   UNL     1     -40.527  54.044 -49.393  1.00  0.00     0.108 C 
HETATM   24  C   UNL     1     -39.034  54.150 -49.082  1.00  0.00     0.034 C 
BRANCH  23  25
HETATM   25  C   UNL     1     -41.359  55.237 -48.834  1.00  0.00     0.259 C 
BRANCH  25  26
HETATM   26  N   UNL     1     -41.953  56.236 -49.815  1.00  0.00    -0.069 N 
HETATM   27  H   UNL     1     -42.401  56.917 -49.186  1.00  0.00     0.280 HD
HETATM   28  C   UNL     1     -40.972  57.028 -50.633  1.00  0.00     0.239 C 
HETATM   29  C   UNL     1     -41.691  58.237 -51.238  1.00  0.00     0.007 C 
HETATM   30  C   UNL     1     -42.893  57.786 -52.079  1.00  0.00     0.007 C 
HETATM   31  C   UNL     1     -40.724  59.067 -52.080  1.00  0.00     0.011 C 
HETATM   32  C   UNL     1     -43.830  56.883 -51.279  1.00  0.00     0.028 C 
HETATM   33  C   UNL     1     -43.091  55.704 -50.653  1.00  0.00     0.235 C 
ENDBRANCH  25  26
ENDBRANCH  23  25
ENDBRANCH   3  23
TORSDOF 6
ENDMDL
MODEL 6
REMARK VINA RESULT:      -7.1      3.338      9.602
REMARK  6 active torsions:
REMARK  status: ('A' for Active; 'I' for Inactive)
REMARK    1  A    between atoms: C_3  and  N_4 
REMARK       I    between atoms: N_4  and  C_5 
REMARK    2  A    between atoms: C_5  and  C_6 
REMARK    3  A    between atoms: C_14  and  N_15 
REMARK       I    between atoms: N_15  and  C_16 
REMARK       I    between atoms: C_16  and  N_17 
REMARK    4  A    between atoms: N_17  and  C_18 
REMARK    5  A    between atoms: C_18  and  C_19 
REMARK    6  A    between atoms: C_19  and  N_20 
ROOT
HETATM    1  N   UNL     1     -42.034  56.350 -57.087  1.00  0.00    -0.309 N 
HETATM    2  C   UNL     1     -42.099  56.066 -55.760  1.00  0.00     0.321 C 
HETATM    3  N   UNL     1     -43.282  56.312 -55.120  1.00  0.00    -0.337 N 
HETATM    4  O   UNL     1     -41.117  55.634 -55.164  1.00  0.00    -0.247 OA
HETATM    5  H   UNL     1     -41.075  56.378 -57.419  1.00  0.00     0.170 HD
HETATM    6  H   UNL     1     -43.760  57.095 -55.556  1.00  0.00     0.164 HD
ENDROOT
BRANCH   1   7
HETATM    7  C   UNL     1     -43.029  56.624 -58.044  1.00  0.00     0.036 A 
HETATM    8  C   UNL     1     -43.489  55.701 -58.977  1.00  0.00     0.032 A 
HETATM    9  C   UNL     1     -44.493  56.050 -59.888  1.00  0.00     0.032 A 
HETATM   10  C   UNL     1     -45.057  57.329 -59.892  1.00  0.00     0.041 A 
HETATM   11  C   UNL     1     -44.568  58.285 -58.980  1.00  0.00    -0.033 A 
HETATM   12  C   UNL     1     -45.102  59.694 -58.928  1.00  0.00     0.050 C 
HETATM   13  C   UNL     1     -43.551  57.922 -58.075  1.00  0.00     0.038 A 
BRANCH  10  14
HETATM   14  N   UNL     1     -46.110  57.687 -60.759  1.00  0.00    -0.321 N 
HETATM   15  C   UNL     1     -47.337  57.068 -60.937  1.00  0.00     0.279 C 
HETATM   16  O   UNL     1     -47.685  56.018 -60.406  1.00  0.00    -0.265 OA
HETATM   17  H   UNL     1     -45.987  58.514 -61.335  1.00  0.00     0.169 HD
BRANCH  15  18
HETATM   18  C   UNL     1     -48.202  57.800 -61.844  1.00  0.00     0.142 A 
HETATM   19  O   UNL     1     -49.262  57.153 -62.430  1.00  0.00    -0.317 OA
HETATM   20  C   UNL     1     -49.877  58.049 -63.245  1.00  0.00     0.143 A 
HETATM   21  C   UNL     1     -49.244  59.268 -63.187  1.00  0.00     0.027 A 
HETATM   22  C   UNL     1     -48.165  59.109 -62.283  1.00  0.00     0.045 A 
ENDBRANCH  15  18
ENDBRANCH  10  14
ENDBRANCH   1   7
BRANCH   3  23
HETATM   23  C   UNL     1     -43.350  56.295 -53.658  1.00  0.00     0.108 C 
HETATM   24  C   UNL     1     -44.431  57.265 -53.182  1.00  0.00     0.034 C 
BRANCH  23  25
HETATM   25  C   UNL     1     -43.440  54.893 -52.985  1.00  0.00     0.259 C 
BRANCH  25  26
HETATM   26  N   UNL     1     -42.355  54.484 -52.001  1.00  0.00    -0.069 N 
HETATM   27  H   UNL     1     -42.896  54.006 -51.268  1.00  0.00     0.280 HD
HETATM   28  C   UNL     1     -41.358  53.472 -52.492  1.00  0.00     0.239 C 
HETATM   29  C   UNL     1     -40.618  52.879 -51.289  1.00  0.00     0.007 C 
HETATM   30  C   UNL     1     -39.941  53.987 -50.471  1.00  0.00     0.007 C 
HETATM   31  C   UNL     1     -39.593  51.845 -51.750  1.00  0.00     0.011 C 
HETATM   32  C   UNL     1     -40.934  55.077 -50.073  1.00  0.00     0.028 C 
HETATM   33  C   UNL     1     -41.688  55.631 -51.278  1.00  0.00     0.235 C 
ENDBRANCH  25  26
ENDBRANCH  23  25
ENDBRANCH   3  23
TORSDOF 6
ENDMDL
MODEL 7
REMARK VINA RESULT:      -7.0      1.550      2.148
REMARK  6 active torsions:
REMARK  status: ('A' for Active; 'I' for Inactive)
REMARK    1  A    between atoms: C_3  and  N_4 
REMARK       I    between atoms: N_4  and  C_5 
REMARK    2  A    between atoms: C_5  and  C_6 
REMARK    3  A    between atoms: C_14  and  N_15 
REMARK       I    between atoms: N_15  and  C_16 
REMARK       I    between atoms: C_16  and  N_17 
REMARK    4  A    between atoms: N_17  and  C_18 
REMARK    5  A    between atoms: C_18  and  C_19 
REMARK    6  A    between atoms: C_19  and  N_20 
ROOT
HETATM    1  N   UNL     1     -43.445  58.680 -52.679  1.00  0.00    -0.309 N 
HETATM    2  C   UNL     1     -44.008  59.393 -53.690  1.00  0.00     0.321 C 
HETATM    3  N   UNL     1     -43.810  58.943 -54.965  1.00  0.00    -0.337 N 
HETATM    4  O   UNL     1     -44.642  60.417 -53.455  1.00  0.00    -0.247 OA
HETATM    5  H   UNL     1     -43.427  59.207 -51.811  1.00  0.00     0.170 HD
HETATM    6  H   UNL     1     -42.913  58.472 -55.034  1.00  0.00     0.164 HD
ENDROOT
BRANCH   1   7
HETATM    7  C   UNL     1     -42.885  57.390 -52.631  1.00  0.00     0.036 A 
HETATM    8  C   UNL     1     -43.221  56.428 -51.685  1.00  0.00     0.032 A 
HETATM    9  C   UNL     1     -42.625  55.161 -51.716  1.00  0.00     0.032 A 
HETATM   10  C   UNL     1     -41.677  54.828 -52.687  1.00  0.00     0.041 A 
HETATM   11  C   UNL     1     -41.296  55.810 -53.623  1.00  0.00    -0.033 A 
HETATM   12  C   UNL     1     -40.266  55.547 -54.691  1.00  0.00     0.050 C 
HETATM   13  C   UNL     1     -41.898  57.084 -53.574  1.00  0.00     0.038 A 
BRANCH  10  14
HETATM   14  N   UNL     1     -41.106  53.542 -52.776  1.00  0.00    -0.321 N 
HETATM   15  C   UNL     1     -40.176  52.945 -51.939  1.00  0.00     0.279 C 
HETATM   16  O   UNL     1     -39.614  53.494 -50.997  1.00  0.00    -0.265 OA
HETATM   17  H   UNL     1     -41.409  52.943 -53.537  1.00  0.00     0.169 HD
BRANCH  15  18
HETATM   18  C   UNL     1     -39.915  51.563 -52.297  1.00  0.00     0.142 A 
HETATM   19  O   UNL     1     -39.966  51.189 -53.617  1.00  0.00    -0.317 OA
HETATM   20  C   UNL     1     -39.717  49.855 -53.665  1.00  0.00     0.143 A 
HETATM   21  C   UNL     1     -39.492  49.360 -52.403  1.00  0.00     0.027 A 
HETATM   22  C   UNL     1     -39.619  50.460 -51.520  1.00  0.00     0.045 A 
ENDBRANCH  15  18
ENDBRANCH  10  14
ENDBRANCH   1   7
BRANCH   3  23
HETATM   23  C   UNL     1     -44.142  59.792 -56.109  1.00  0.00     0.108 C 
HETATM   24  C   UNL     1     -42.945  60.675 -56.461  1.00  0.00     0.034 C 
BRANCH  23  25
HETATM   25  C   UNL     1     -44.764  59.075 -57.346  1.00  0.00     0.259 C 
BRANCH  25  26
HETATM   26  N   UNL     1     -43.907  58.091 -58.127  1.00  0.00    -0.069 N 
HETATM   27  H   UNL     1     -43.265  57.741 -57.402  1.00  0.00     0.280 HD
HETATM   28  C   UNL     1     -44.610  56.877 -58.665  1.00  0.00     0.239 C 
HETATM   29  C   UNL     1     -43.565  55.825 -59.045  1.00  0.00     0.007 C 
HETATM   30  C   UNL     1     -42.567  56.396 -60.062  1.00  0.00     0.007 C 
HETATM   31  C   UNL     1     -44.245  54.574 -59.599  1.00  0.00     0.011 C 
HETATM   32  C   UNL     1     -41.939  57.696 -59.562  1.00  0.00     0.028 C 
HETATM   33  C   UNL     1     -42.995  58.720 -59.154  1.00  0.00     0.235 C 
ENDBRANCH  25  26
ENDBRANCH  23  25
ENDBRANCH   3  23
TORSDOF 6
ENDMDL
MODEL 8
REMARK VINA RESULT:      -6.9      1.620      2.663
REMARK  6 active torsions:
REMARK  status: ('A' for Active; 'I' for Inactive)
REMARK    1  A    between atoms: C_3  and  N_4 
REMARK       I    between atoms: N_4  and  C_5 
REMARK    2  A    between atoms: C_5  and  C_6 
REMARK    3  A    between atoms: C_14  and  N_15 
REMARK       I    between atoms: N_15  and  C_16 
REMARK       I    between atoms: C_16  and  N_17 
REMARK    4  A    between atoms: N_17  and  C_18 
REMARK    5  A    between atoms: C_18  and  C_19 
REMARK    6  A    between atoms: C_19  and  N_20 
ROOT
HETATM    1  N   UNL     1     -45.062  59.617 -55.306  1.00  0.00    -0.309 N 
HETATM    2  C   UNL     1     -45.191  60.119 -56.563  1.00  0.00     0.321 C 
HETATM    3  N   UNL     1     -44.365  59.617 -57.529  1.00  0.00    -0.337 N 
HETATM    4  O   UNL     1     -46.000  61.010 -56.801  1.00  0.00    -0.247 OA
HETATM    5  H   UNL     1     -45.521  60.206 -54.618  1.00  0.00     0.170 HD
HETATM    6  H   UNL     1     -43.480  59.332 -57.120  1.00  0.00     0.164 HD
ENDROOT
BRANCH   1   7
HETATM    7  C   UNL     1     -44.409  58.475 -54.808  1.00  0.00     0.036 A 
HETATM    8  C   UNL     1     -45.010  57.228 -54.675  1.00  0.00     0.032 A 
HETATM    9  C   UNL     1     -44.284  56.137 -54.182  1.00  0.00     0.032 A 
HETATM   10  C   UNL     1     -42.945  56.267 -53.804  1.00  0.00     0.041 A 
HETATM   11  C   UNL     1     -42.338  57.536 -53.893  1.00  0.00    -0.033 A 
HETATM   12  C   UNL     1     -40.907  57.773 -53.487  1.00  0.00     0.050 C 
HETATM   13  C   UNL     1     -43.085  58.627 -54.383  1.00  0.00     0.038 A 
BRANCH  10  14
HETATM   14  N   UNL     1     -42.176  55.171 -53.361  1.00  0.00    -0.321 N 
HETATM   15  C   UNL     1     -41.668  54.113 -54.097  1.00  0.00     0.279 C 
HETATM   16  O   UNL     1     -41.885  53.907 -55.286  1.00  0.00    -0.265 OA
HETATM   17  H   UNL     1     -41.935  55.132 -52.376  1.00  0.00     0.169 HD
BRANCH  15  18
HETATM   18  C   UNL     1     -40.829  53.235 -53.300  1.00  0.00     0.142 A 
HETATM   19  O   UNL     1     -40.620  53.527 -51.974  1.00  0.00    -0.317 OA
HETATM   20  C   UNL     1     -39.784  52.576 -51.483  1.00  0.00     0.143 A 
HETATM   21  C   UNL     1     -39.458  51.667 -52.461  1.00  0.00     0.027 A 
HETATM   22  C   UNL     1     -40.132  52.090 -53.633  1.00  0.00     0.045 A 
ENDBRANCH  15  18
ENDBRANCH  10  14
ENDBRANCH   1   7
BRANCH   3  23
HETATM   23  C   UNL     1     -44.248  60.287 -58.825  1.00  0.00     0.108 C 
HETATM   24  C   UNL     1     -43.305  61.484 -58.704  1.00  0.00     0.034 C 
BRANCH  23  25
HETATM   25  C   UNL     1     -43.934  59.376 -60.049  1.00  0.00     0.259 C 
BRANCH  25  26
HETATM   26  N   UNL     1     -44.887  58.237 -60.376  1.00  0.00    -0.069 N 
HETATM   27  H   UNL     1     -44.813  58.180 -61.401  1.00  0.00     0.280 HD
HETATM   28  C   UNL     1     -44.498  56.877 -59.866  1.00  0.00     0.239 C 
HETATM   29  C   UNL     1     -45.313  55.816 -60.612  1.00  0.00     0.007 C 
HETATM   30  C   UNL     1     -46.817  56.072 -60.445  1.00  0.00     0.007 C 
HETATM   31  C   UNL     1     -44.945  54.418 -60.118  1.00  0.00     0.011 C 
HETATM   32  C   UNL     1     -47.192  57.495 -60.853  1.00  0.00     0.028 C 
HETATM   33  C   UNL     1     -46.347  58.539 -60.128  1.00  0.00     0.235 C 
ENDBRANCH  25  26
ENDBRANCH  23  25
ENDBRANCH   3  23
TORSDOF 6
ENDMDL
MODEL 9
REMARK VINA RESULT:      -6.8      1.698      2.514
REMARK  6 active torsions:
REMARK  status: ('A' for Active; 'I' for Inactive)
REMARK    1  A    between atoms: C_3  and  N_4 
REMARK       I    between atoms: N_4  and  C_5 
REMARK    2  A    between atoms: C_5  and  C_6 
REMARK    3  A    between atoms: C_14  and  N_15 
REMARK       I    between atoms: N_15  and  C_16 
REMARK       I    between atoms: C_16  and  N_17 
REMARK    4  A    between atoms: N_17  and  C_18 
REMARK    5  A    between atoms: C_18  and  C_19 
REMARK    6  A    between atoms: C_19  and  N_20 
ROOT
HETATM    1  N   UNL     1     -44.733  58.580 -53.548  1.00  0.00    -0.309 N 
HETATM    2  C   UNL     1     -44.807  59.563 -54.484  1.00  0.00     0.321 C 
HETATM    3  N   UNL     1     -43.938  59.495 -55.538  1.00  0.00    -0.337 N 
HETATM    4  O   UNL     1     -45.605  60.486 -54.360  1.00  0.00    -0.247 OA
HETATM    5  H   UNL     1     -45.223  58.836 -52.696  1.00  0.00     0.170 HD
HETATM    6  H   UNL     1     -43.072  59.050 -55.249  1.00  0.00     0.164 HD
ENDROOT
BRANCH   1   7
HETATM    7  C   UNL     1     -44.102  57.323 -53.546  1.00  0.00     0.036 A 
HETATM    8  C   UNL     1     -44.407  56.296 -54.433  1.00  0.00     0.032 A 
HETATM    9  C   UNL     1     -43.721  55.077 -54.372  1.00  0.00     0.032 A 
HETATM   10  C   UNL     1     -42.720  54.853 -53.422  1.00  0.00     0.041 A 
HETATM   11  C   UNL     1     -42.434  55.870 -52.491  1.00  0.00    -0.033 A 
HETATM   12  C   UNL     1     -41.387  55.708 -51.419  1.00  0.00     0.050 C 
HETATM   13  C   UNL     1     -43.139  57.089 -52.559  1.00  0.00     0.038 A 
BRANCH  10  14
HETATM   14  N   UNL     1     -41.974  53.656 -53.379  1.00  0.00    -0.321 N 
HETATM   15  C   UNL     1     -40.799  53.341 -54.042  1.00  0.00     0.279 C 
HETATM   16  O   UNL     1     -40.241  54.052 -54.872  1.00  0.00    -0.265 OA
HETATM   17  H   UNL     1     -42.313  52.912 -52.779  1.00  0.00     0.169 HD
BRANCH  15  18
HETATM   18  C   UNL     1     -40.273  52.045 -53.654  1.00  0.00     0.142 A 
HETATM   19  O   UNL     1     -40.301  51.011 -54.558  1.00  0.00    -0.317 OA
HETATM   20  C   UNL     1     -39.784  49.921 -53.933  1.00  0.00     0.143 A 
HETATM   21  C   UNL     1     -39.411  50.232 -52.648  1.00  0.00     0.027 A 
HETATM   22  C   UNL     1     -39.725  51.601 -52.467  1.00  0.00     0.045 A 
ENDBRANCH  15  18
ENDBRANCH  10  14
ENDBRANCH   1   7
BRANCH   3  23
HETATM   23  C   UNL     1     -43.766  60.642 -56.429  1.00  0.00     0.108 C 
HETATM   24  C   UNL     1     -42.276  60.913 -56.638  1.00  0.00     0.034 C 
BRANCH  23  25
HETATM   25  C   UNL     1     -44.580  60.616 -57.758  1.00  0.00     0.259 C 
BRANCH  25  26
HETATM   26  N   UNL     1     -44.733  59.294 -58.494  1.00  0.00    -0.069 N 
HETATM   27  H   UNL     1     -45.026  59.601 -59.431  1.00  0.00     0.280 HD
HETATM   28  C   UNL     1     -43.474  58.500 -58.705  1.00  0.00     0.239 C 
HETATM   29  C   UNL     1     -43.727  57.446 -59.786  1.00  0.00     0.007 C 
HETATM   30  C   UNL     1     -44.905  56.542 -59.396  1.00  0.00     0.007 C 
HETATM   31  C   UNL     1     -42.467  56.616 -60.027  1.00  0.00     0.011 C 
HETATM   32  C   UNL     1     -46.153  57.359 -59.067  1.00  0.00     0.028 C 
HETATM   33  C   UNL     1     -45.875  58.428 -58.014  1.00  0.00     0.235 C 
ENDBRANCH  25  26
ENDBRANCH  23  25
ENDBRANCH   3  23
TORSDOF 6
ENDMDL
MODEL 10
REMARK VINA RESULT:      -6.8      2.915      9.690
REMARK  6 active torsions:
REMARK  status: ('A' for Active; 'I' for Inactive)
REMARK    1  A    between atoms: C_3  and  N_4 
REMARK       I    between atoms: N_4  and  C_5 
REMARK    2  A    between atoms: C_5  and  C_6 
REMARK    3  A    between atoms: C_14  and  N_15 
REMARK       I    between atoms: N_15  and  C_16 
REMARK       I    between atoms: C_16  and  N_17 
REMARK    4  A    between atoms: N_17  and  C_18 
REMARK    5  A    between atoms: C_18  and  C_19 
REMARK    6  A    between atoms: C_19  and  N_20 
ROOT
HETATM    1  N   UNL     1     -43.600  55.658 -57.112  1.00  0.00    -0.309 N 
HETATM    2  C   UNL     1     -43.087  54.963 -56.062  1.00  0.00     0.321 C 
HETATM    3  N   UNL     1     -41.967  55.466 -55.461  1.00  0.00    -0.337 N 
HETATM    4  O   UNL     1     -43.601  53.910 -55.698  1.00  0.00    -0.247 OA
HETATM    5  H   UNL     1     -44.259  55.100 -57.646  1.00  0.00     0.170 HD
HETATM    6  H   UNL     1     -41.402  55.970 -56.138  1.00  0.00     0.164 HD
ENDROOT
BRANCH   1   7
HETATM    7  C   UNL     1     -43.369  56.963 -57.584  1.00  0.00     0.036 A 
HETATM    8  C   UNL     1     -43.763  58.116 -56.913  1.00  0.00     0.032 A 
HETATM    9  C   UNL     1     -43.483  59.380 -57.446  1.00  0.00     0.032 A 
HETATM   10  C   UNL     1     -42.808  59.523 -58.661  1.00  0.00     0.041 A 
HETATM   11  C   UNL     1     -42.443  58.362 -59.371  1.00  0.00    -0.033 A 
HETATM   12  C   UNL     1     -41.733  58.420 -60.698  1.00  0.00     0.050 C 
HETATM   13  C   UNL     1     -42.740  57.096 -58.826  1.00  0.00     0.038 A 
BRANCH  10  14
HETATM   14  N   UNL     1     -42.461  60.784 -59.189  1.00  0.00    -0.321 N 
HETATM   15  C   UNL     1     -41.392  61.600 -58.856  1.00  0.00     0.279 C 
HETATM   16  O   UNL     1     -40.590  61.386 -57.953  1.00  0.00    -0.265 OA
HETATM   17  H   UNL     1     -43.049  61.165 -59.924  1.00  0.00     0.169 HD
BRANCH  15  18
HETATM   18  C   UNL     1     -41.308  62.777 -59.702  1.00  0.00     0.142 A 
HETATM   19  O   UNL     1     -42.428  63.550 -59.891  1.00  0.00    -0.317 OA
HETATM   20  C   UNL     1     -42.083  64.554 -60.738  1.00  0.00     0.143 A 
HETATM   21  C   UNL     1     -40.758  64.454 -61.091  1.00  0.00     0.027 A 
HETATM   22  C   UNL     1     -40.258  63.310 -60.423  1.00  0.00     0.045 A 
ENDBRANCH  15  18
ENDBRANCH  10  14
ENDBRANCH   1   7
BRANCH   3  23
HETATM   23  C   UNL     1     -41.203  54.649 -54.518  1.00  0.00     0.108 C 
HETATM   24  C   UNL     1     -39.872  54.242 -55.150  1.00  0.00     0.034 C 
BRANCH  23  25
HETATM   25  C   UNL     1     -41.052  55.216 -53.074  1.00  0.00     0.259 C 
BRANCH  25  26
HETATM   26  N   UNL     1     -40.604  54.278 -51.965  1.00  0.00    -0.069 N 
HETATM   27  H   UNL     1     -39.580  54.366 -52.006  1.00  0.00     0.280 HD
HETATM   28  C   UNL     1     -40.987  54.672 -50.565  1.00  0.00     0.239 C 
HETATM   29  C   UNL     1     -40.132  53.877 -49.574  1.00  0.00     0.007 C 
HETATM   30  C   UNL     1     -40.300  52.369 -49.802  1.00  0.00     0.007 C 
HETATM   31  C   UNL     1     -40.495  54.250 -48.138  1.00  0.00     0.011 C 
HETATM   32  C   UNL     1     -40.025  51.987 -51.255  1.00  0.00     0.028 C 
HETATM   33  C   UNL     1     -40.859  52.812 -52.230  1.00  0.00     0.235 C 
ENDBRANCH  25  26
ENDBRANCH  23  25
ENDBRANCH   3  23
TORSDOF 6
ENDMDL
