MODEL 1
REMARK VINA RESULT:      -9.2      0.000      0.000
REMARK  6 active torsions:
REMARK  status: ('A' for Active; 'I' for Inactive)
REMARK    1  A    between atoms: C_5  and  C_6 
REMARK    2  A    between atoms: C_11  and  C_12 
REMARK       I    between atoms: C_12  and  N_13 
REMARK    3  A    between atoms: N_13  and  C_14 
REMARK    4  A    between atoms: C_16  and  C_17 
REMARK    5  A    between atoms: C_17  and  O_18 
REMARK    6  A    between atoms: C_25  and  C_26 
ROOT
HETATM    1  C   UNL     1     -41.950  54.909 -53.528  1.00  0.00     0.118 C 
HETATM    2  N   UNL     1     -43.131  55.155 -52.702  1.00  0.00    -0.366 N 
HETATM    3  C   UNL     1     -43.505  56.390 -52.314  1.00  0.00     0.123 A 
HETATM    4  N   UNL     1     -42.880  57.503 -52.796  1.00  0.00    -0.240 N 
HETATM    5  N   UNL     1     -43.254  58.648 -52.197  1.00  0.00    -0.165 NA
HETATM    6  C   UNL     1     -44.272  58.255 -51.393  1.00  0.00     0.148 A 
HETATM    7  C   UNL     1     -44.464  56.846 -51.452  1.00  0.00     0.089 A 
HETATM    8  C   UNL     1     -41.821  57.450 -53.784  1.00  0.00     0.221 C 
HETATM    9  C   UNL     1     -41.030  56.148 -53.596  1.00  0.00     0.066 C 
HETATM   10  H   UNL     1     -43.607  54.322 -52.356  1.00  0.00     0.161 HD
ENDROOT
BRANCH   6  11
HETATM   11  C   UNL     1     -45.027  59.210 -50.562  1.00  0.00     0.276 C 
HETATM   12  N   UNL     1     -44.201  60.165 -50.002  1.00  0.00    -0.322 N 
HETATM   13  H   UNL     1     -43.217  60.026 -50.216  1.00  0.00     0.169 HD
HETATM   14  O   UNL     1     -46.237  59.099 -50.400  1.00  0.00    -0.266 OA
BRANCH  12  15
HETATM   15  C   UNL     1     -44.553  61.248 -49.181  1.00  0.00     0.035 A 
HETATM   16  C   UNL     1     -45.394  61.134 -48.070  1.00  0.00     0.039 A 
HETATM   17  C   UNL     1     -45.737  62.260 -47.298  1.00  0.00    -0.028 A 
HETATM   18  C   UNL     1     -45.195  63.504 -47.646  1.00  0.00     0.010 A 
HETATM   19  C   UNL     1     -44.356  63.627 -48.751  1.00  0.00     0.003 A 
HETATM   20  C   UNL     1     -44.044  62.505 -49.521  1.00  0.00     0.029 A 
BRANCH  17  21
HETATM   21  C   UNL     1     -46.666  62.091 -46.115  1.00  0.00     0.147 C 
HETATM   22  C   UNL     1     -47.306  63.411 -45.706  1.00  0.00     0.044 C 
BRANCH  21  23
HETATM   23  O   UNL     1     -47.696  61.150 -46.416  1.00  0.00    -0.391 OA
HETATM   24  H   UNL     1     -48.540  61.580 -46.198  1.00  0.00     0.210 HD
ENDBRANCH  21  23
ENDBRANCH  17  21
ENDBRANCH  12  15
ENDBRANCH   6  11
BRANCH   8  25
HETATM   25  C   UNL     1     -42.404  57.587 -55.171  1.00  0.00     0.409 C 
HETATM   26  F   UNL     1     -43.740  57.389 -55.192  1.00  0.00    -0.169 F 
HETATM   27  F   UNL     1     -42.195  58.849 -55.633  1.00  0.00    -0.169 F 
HETATM   28  F   UNL     1     -41.850  56.753 -56.076  1.00  0.00    -0.169 F 
ENDBRANCH   8  25
BRANCH   1  29
HETATM   29  C   UNL     1     -41.203  53.710 -52.968  1.00  0.00    -0.035 A 
HETATM   30  C   UNL     1     -41.039  53.553 -51.586  1.00  0.00     0.010 A 
HETATM   31  C   UNL     1     -40.352  52.449 -51.072  1.00  0.00     0.007 A 
HETATM   32  C   UNL     1     -39.806  51.486 -51.929  1.00  0.00    -0.062 A 
HETATM   33  C   UNL     1     -39.094  50.285 -51.384  1.00  0.00     0.048 C 
HETATM   34  C   UNL     1     -39.977  51.632 -53.309  1.00  0.00     0.007 A 
HETATM   35  C   UNL     1     -40.661  52.735 -53.822  1.00  0.00     0.010 A 
ENDBRANCH   1  29
TORSDOF 6
ENDMDL
MODEL 2
REMARK VINA RESULT:      -9.1      4.660      7.941
REMARK  6 active torsions:
REMARK  status: ('A' for Active; 'I' for Inactive)
REMARK    1  A    between atoms: C_5  and  C_6 
REMARK    2  A    between atoms: C_11  and  C_12 
REMARK       I    between atoms: C_12  and  N_13 
REMARK    3  A    between atoms: N_13  and  C_14 
REMARK    4  A    between atoms: C_16  and  C_17 
REMARK    5  A    between atoms: C_17  and  O_18 
REMARK    6  A    between atoms: C_25  and  C_26 
ROOT
HETATM    1  C   UNL     1     -41.009  54.960 -52.812  1.00  0.00     0.118 C 
HETATM    2  N   UNL     1     -41.290  55.502 -54.141  1.00  0.00    -0.366 N 
HETATM    3  C   UNL     1     -42.365  56.270 -54.403  1.00  0.00     0.123 A 
HETATM    4  N   UNL     1     -43.181  56.711 -53.401  1.00  0.00    -0.240 N 
HETATM    5  N   UNL     1     -44.296  57.328 -53.831  1.00  0.00    -0.165 NA
HETATM    6  C   UNL     1     -44.106  57.408 -55.171  1.00  0.00     0.148 A 
HETATM    7  C   UNL     1     -42.898  56.765 -55.562  1.00  0.00     0.089 A 
HETATM    8  C   UNL     1     -42.932  56.438 -52.000  1.00  0.00     0.221 C 
HETATM    9  C   UNL     1     -42.232  55.077 -51.875  1.00  0.00     0.066 C 
HETATM   10  H   UNL     1     -40.669  55.184 -54.885  1.00  0.00     0.161 HD
ENDROOT
BRANCH   6  11
HETATM   11  C   UNL     1     -45.079  58.063 -56.063  1.00  0.00     0.276 C 
HETATM   12  N   UNL     1     -44.928  57.654 -57.374  1.00  0.00    -0.322 N 
HETATM   13  H   UNL     1     -44.151  57.012 -57.511  1.00  0.00     0.169 HD
HETATM   14  O   UNL     1     -45.882  58.887 -55.639  1.00  0.00    -0.266 OA
BRANCH  12  15
HETATM   15  C   UNL     1     -45.681  58.031 -58.497  1.00  0.00     0.035 A 
HETATM   16  C   UNL     1     -46.303  57.119 -59.353  1.00  0.00     0.039 A 
HETATM   17  C   UNL     1     -47.022  57.552 -60.482  1.00  0.00    -0.028 A 
HETATM   18  C   UNL     1     -47.131  58.928 -60.721  1.00  0.00     0.010 A 
HETATM   19  C   UNL     1     -46.515  59.846 -59.872  1.00  0.00     0.003 A 
HETATM   20  C   UNL     1     -45.785  59.398 -58.770  1.00  0.00     0.029 A 
BRANCH  17  21
HETATM   21  C   UNL     1     -47.663  56.526 -61.390  1.00  0.00     0.147 C 
HETATM   22  C   UNL     1     -48.679  57.161 -62.331  1.00  0.00     0.044 C 
BRANCH  21  23
HETATM   23  O   UNL     1     -46.671  55.853 -62.166  1.00  0.00    -0.391 OA
HETATM   24  H   UNL     1     -46.490  56.414 -62.938  1.00  0.00     0.210 HD
ENDBRANCH  21  23
ENDBRANCH  17  21
ENDBRANCH  12  15
ENDBRANCH   6  11
BRANCH   8  25
HETATM   25  C   UNL     1     -42.134  57.566 -51.389  1.00  0.00     0.409 C 
HETATM   26  F   UNL     1     -42.918  58.572 -50.947  1.00  0.00    -0.169 F 
HETATM   27  F   UNL     1     -41.449  57.108 -50.307  1.00  0.00    -0.169 F 
HETATM   28  F   UNL     1     -41.217  58.095 -52.226  1.00  0.00    -0.169 F 
ENDBRANCH   8  25
BRANCH   1  29
HETATM   29  C   UNL     1     -40.575  53.511 -52.957  1.00  0.00    -0.035 A 
HETATM   30  C   UNL     1     -40.006  52.824 -51.877  1.00  0.00     0.010 A 
HETATM   31  C   UNL     1     -39.607  51.491 -52.013  1.00  0.00     0.007 A 
HETATM   32  C   UNL     1     -39.761  50.821 -53.232  1.00  0.00    -0.062 A 
HETATM   33  C   UNL     1     -39.364  49.382 -53.376  1.00  0.00     0.048 C 
HETATM   34  C   UNL     1     -40.340  51.498 -54.309  1.00  0.00     0.007 A 
HETATM   35  C   UNL     1     -40.735  52.829 -54.175  1.00  0.00     0.010 A 
ENDBRANCH   1  29
TORSDOF 6
ENDMDL
MODEL 3
REMARK VINA RESULT:      -8.9      6.239      9.939
REMARK  6 active torsions:
REMARK  status: ('A' for Active; 'I' for Inactive)
REMARK    1  A    between atoms: C_5  and  C_6 
REMARK    2  A    between atoms: C_11  and  C_12 
REMARK       I    between atoms: C_12  and  N_13 
REMARK    3  A    between atoms: N_13  and  C_14 
REMARK    4  A    between atoms: C_16  and  C_17 
REMARK    5  A    between atoms: C_17  and  O_18 
REMARK    6  A    between atoms: C_25  and  C_26 
ROOT
HETATM    1  C   UNL     1     -43.206  59.481 -58.979  1.00  0.00     0.118 C 
HETATM    2  N   UNL     1     -42.509  58.250 -58.607  1.00  0.00    -0.366 N 
HETATM    3  C   UNL     1     -42.871  57.500 -57.547  1.00  0.00     0.123 A 
HETATM    4  N   UNL     1     -44.008  57.771 -56.843  1.00  0.00    -0.240 N 
HETATM    5  N   UNL     1     -44.149  57.040 -55.722  1.00  0.00    -0.165 NA
HETATM    6  C   UNL     1     -43.119  56.162 -55.798  1.00  0.00     0.148 A 
HETATM    7  C   UNL     1     -42.305  56.415 -56.937  1.00  0.00     0.089 A 
HETATM    8  C   UNL     1     -44.926  58.833 -57.202  1.00  0.00     0.221 C 
HETATM    9  C   UNL     1     -44.135  59.978 -57.849  1.00  0.00     0.066 C 
HETATM   10  H   UNL     1     -41.669  58.041 -59.145  1.00  0.00     0.161 HD
ENDROOT
BRANCH   6  11
HETATM   11  C   UNL     1     -42.904  55.119 -54.779  1.00  0.00     0.276 C 
HETATM   12  N   UNL     1     -41.561  54.841 -54.607  1.00  0.00    -0.322 N 
HETATM   13  H   UNL     1     -40.956  55.363 -55.235  1.00  0.00     0.169 HD
HETATM   14  O   UNL     1     -43.845  54.577 -54.210  1.00  0.00    -0.266 OA
BRANCH  12  15
HETATM   15  C   UNL     1     -40.967  53.935 -53.715  1.00  0.00     0.035 A 
HETATM   16  C   UNL     1     -40.555  52.650 -54.077  1.00  0.00     0.039 A 
HETATM   17  C   UNL     1     -39.990  51.772 -53.134  1.00  0.00    -0.028 A 
HETATM   18  C   UNL     1     -39.819  52.221 -51.817  1.00  0.00     0.010 A 
HETATM   19  C   UNL     1     -40.225  53.501 -51.447  1.00  0.00     0.003 A 
HETATM   20  C   UNL     1     -40.806  54.351 -52.389  1.00  0.00     0.029 A 
BRANCH  17  21
HETATM   21  C   UNL     1     -39.576  50.384 -53.569  1.00  0.00     0.147 C 
HETATM   22  C   UNL     1     -39.592  49.399 -52.407  1.00  0.00     0.044 C 
BRANCH  21  23
HETATM   23  O   UNL     1     -40.441  49.901 -54.597  1.00  0.00    -0.391 OA
HETATM   24  H   UNL     1     -40.718  49.008 -54.334  1.00  0.00     0.210 HD
ENDBRANCH  21  23
ENDBRANCH  17  21
ENDBRANCH  12  15
ENDBRANCH   6  11
BRANCH   8  25
HETATM   25  C   UNL     1     -46.014  58.291 -58.100  1.00  0.00     0.409 C 
HETATM   26  F   UNL     1     -45.631  57.175 -58.757  1.00  0.00    -0.169 F 
HETATM   27  F   UNL     1     -47.095  57.944 -57.351  1.00  0.00    -0.169 F 
HETATM   28  F   UNL     1     -46.452  59.179 -59.016  1.00  0.00    -0.169 F 
ENDBRANCH   8  25
BRANCH   1  29
HETATM   29  C   UNL     1     -42.173  60.538 -59.334  1.00  0.00    -0.035 A 
HETATM   30  C   UNL     1     -41.391  61.137 -58.338  1.00  0.00     0.010 A 
HETATM   31  C   UNL     1     -40.442  62.109 -58.666  1.00  0.00     0.007 A 
HETATM   32  C   UNL     1     -40.262  62.509 -59.996  1.00  0.00    -0.062 A 
HETATM   33  C   UNL     1     -39.224  63.529 -60.359  1.00  0.00     0.048 C 
HETATM   34  C   UNL     1     -41.030  61.906 -60.995  1.00  0.00     0.007 A 
HETATM   35  C   UNL     1     -41.980  60.938 -60.667  1.00  0.00     0.010 A 
ENDBRANCH   1  29
TORSDOF 6
ENDMDL
MODEL 4
REMARK VINA RESULT:      -8.8      4.992      8.041
REMARK  6 active torsions:
REMARK  status: ('A' for Active; 'I' for Inactive)
REMARK    1  A    between atoms: C_5  and  C_6 
REMARK    2  A    between atoms: C_11  and  C_12 
REMARK       I    between atoms: C_12  and  N_13 
REMARK    3  A    between atoms: N_13  and  C_14 
REMARK    4  A    between atoms: C_16  and  C_17 
REMARK    5  A    between atoms: C_17  and  O_18 
REMARK    6  A    between atoms: C_25  and  C_26 
ROOT
HETATM    1  C   UNL     1     -41.309  54.881 -53.222  1.00  0.00     0.118 C 
HETATM    2  N   UNL     1     -41.124  55.405 -54.575  1.00  0.00    -0.366 N 
HETATM    3  C   UNL     1     -42.074  56.109 -55.220  1.00  0.00     0.123 A 
HETATM    4  N   UNL     1     -43.217  56.501 -54.587  1.00  0.00    -0.240 N 
HETATM    5  N   UNL     1     -44.136  57.051 -55.401  1.00  0.00    -0.165 NA
HETATM    6  C   UNL     1     -43.482  57.142 -56.585  1.00  0.00     0.148 A 
HETATM    7  C   UNL     1     -42.182  56.571 -56.504  1.00  0.00     0.089 A 
HETATM    8  C   UNL     1     -43.473  56.243 -53.185  1.00  0.00     0.221 C 
HETATM    9  C   UNL     1     -42.791  54.926 -52.788  1.00  0.00     0.066 C 
HETATM   10  H   UNL     1     -40.261  55.124 -55.040  1.00  0.00     0.161 HD
ENDROOT
BRANCH   6  11
HETATM   11  C   UNL     1     -44.105  57.739 -57.780  1.00  0.00     0.276 C 
HETATM   12  N   UNL     1     -45.242  57.053 -58.162  1.00  0.00    -0.322 N 
HETATM   13  H   UNL     1     -45.432  56.234 -57.589  1.00  0.00     0.169 HD
HETATM   14  O   UNL     1     -43.610  58.709 -58.343  1.00  0.00    -0.266 OA
BRANCH  12  15
HETATM   15  C   UNL     1     -46.114  57.334 -59.225  1.00  0.00     0.035 A 
HETATM   16  C   UNL     1     -46.638  58.604 -59.480  1.00  0.00     0.039 A 
HETATM   17  C   UNL     1     -47.532  58.824 -60.544  1.00  0.00    -0.028 A 
HETATM   18  C   UNL     1     -47.870  57.744 -61.371  1.00  0.00     0.010 A 
HETATM   19  C   UNL     1     -47.351  56.475 -61.126  1.00  0.00     0.003 A 
HETATM   20  C   UNL     1     -46.484  56.269 -60.051  1.00  0.00     0.029 A 
BRANCH  17  21
HETATM   21  C   UNL     1     -48.088  60.213 -60.769  1.00  0.00     0.147 C 
HETATM   22  C   UNL     1     -49.570  60.178 -61.122  1.00  0.00     0.044 C 
BRANCH  21  23
HETATM   23  O   UNL     1     -47.908  61.020 -59.606  1.00  0.00    -0.391 OA
HETATM   24  H   UNL     1     -47.450  61.828 -59.893  1.00  0.00     0.210 HD
ENDBRANCH  21  23
ENDBRANCH  17  21
ENDBRANCH  12  15
ENDBRANCH   6  11
BRANCH   8  25
HETATM   25  C   UNL     1     -43.010  57.416 -52.353  1.00  0.00     0.409 C 
HETATM   26  F   UNL     1     -41.975  58.074 -52.919  1.00  0.00    -0.169 F 
HETATM   27  F   UNL     1     -44.020  58.319 -52.232  1.00  0.00    -0.169 F 
HETATM   28  F   UNL     1     -42.647  57.080 -51.098  1.00  0.00    -0.169 F 
ENDBRANCH   8  25
BRANCH   1  29
HETATM   29  C   UNL     1     -40.774  53.459 -53.171  1.00  0.00    -0.035 A 
HETATM   30  C   UNL     1     -40.240  52.939 -51.986  1.00  0.00     0.010 A 
HETATM   31  C   UNL     1     -39.748  51.631 -51.941  1.00  0.00     0.007 A 
HETATM   32  C   UNL     1     -39.770  50.821 -53.083  1.00  0.00    -0.062 A 
HETATM   33  C   UNL     1     -39.272  49.408 -53.034  1.00  0.00     0.048 C 
HETATM   34  C   UNL     1     -40.313  51.331 -54.265  1.00  0.00     0.007 A 
HETATM   35  C   UNL     1     -40.802  52.637 -54.311  1.00  0.00     0.010 A 
ENDBRANCH   1  29
TORSDOF 6
ENDMDL
MODEL 5
REMARK VINA RESULT:      -8.5      5.599      8.870
REMARK  6 active torsions:
REMARK  status: ('A' for Active; 'I' for Inactive)
REMARK    1  A    between atoms: C_5  and  C_6 
REMARK    2  A    between atoms: C_11  and  C_12 
REMARK       I    between atoms: C_12  and  N_13 
REMARK    3  A    between atoms: N_13  and  C_14 
REMARK    4  A    between atoms: C_16  and  C_17 
REMARK    5  A    between atoms: C_17  and  O_18 
REMARK    6  A    between atoms: C_25  and  C_26 
ROOT
HETATM    1  C   UNL     1     -43.208  59.577 -58.908  1.00  0.00     0.118 C 
HETATM    2  N   UNL     1     -42.535  58.344 -58.500  1.00  0.00    -0.366 N 
HETATM    3  C   UNL     1     -42.932  57.614 -57.439  1.00  0.00     0.123 A 
HETATM    4  N   UNL     1     -44.082  57.908 -56.768  1.00  0.00    -0.240 N 
HETATM    5  N   UNL     1     -44.260  57.196 -55.641  1.00  0.00    -0.165 NA
HETATM    6  C   UNL     1     -43.239  56.305 -55.677  1.00  0.00     0.148 A 
HETATM    7  C   UNL     1     -42.394  56.531 -56.799  1.00  0.00     0.089 A 
HETATM    8  C   UNL     1     -44.979  58.975 -57.165  1.00  0.00     0.221 C 
HETATM    9  C   UNL     1     -44.159  60.101 -57.809  1.00  0.00     0.066 C 
HETATM   10  H   UNL     1     -41.684  58.117 -59.014  1.00  0.00     0.161 HD
ENDROOT
BRANCH   6  11
HETATM   11  C   UNL     1     -43.062  55.274 -54.639  1.00  0.00     0.276 C 
HETATM   12  N   UNL     1     -41.870  55.434 -53.957  1.00  0.00    -0.322 N 
HETATM   13  H   UNL     1     -41.301  56.198 -54.312  1.00  0.00     0.169 HD
HETATM   14  O   UNL     1     -43.892  54.388 -54.468  1.00  0.00    -0.266 OA
BRANCH  12  15
HETATM   15  C   UNL     1     -41.368  54.672 -52.891  1.00  0.00     0.035 A 
HETATM   16  C   UNL     1     -41.584  54.987 -51.547  1.00  0.00     0.039 A 
HETATM   17  C   UNL     1     -41.031  54.203 -50.517  1.00  0.00    -0.028 A 
HETATM   18  C   UNL     1     -40.277  53.074 -50.863  1.00  0.00     0.010 A 
HETATM   19  C   UNL     1     -40.056  52.753 -52.201  1.00  0.00     0.003 A 
HETATM   20  C   UNL     1     -40.592  53.554 -53.210  1.00  0.00     0.029 A 
BRANCH  17  21
HETATM   21  C   UNL     1     -41.278  54.593 -49.076  1.00  0.00     0.147 C 
HETATM   22  C   UNL     1     -40.222  54.012 -48.144  1.00  0.00     0.044 C 
BRANCH  21  23
HETATM   23  O   UNL     1     -41.287  56.014 -48.935  1.00  0.00    -0.391 OA
HETATM   24  H   UNL     1     -42.048  56.235 -48.372  1.00  0.00     0.210 HD
ENDBRANCH  21  23
ENDBRANCH  17  21
ENDBRANCH  12  15
ENDBRANCH   6  11
BRANCH   8  25
HETATM   25  C   UNL     1     -46.051  58.432 -58.082  1.00  0.00     0.409 C 
HETATM   26  F   UNL     1     -47.164  58.062 -57.412  1.00  0.00    -0.169 F 
HETATM   27  F   UNL     1     -46.434  59.398 -58.960  1.00  0.00    -0.169 F 
HETATM   28  F   UNL     1     -45.647  57.380 -58.823  1.00  0.00    -0.169 F 
ENDBRANCH   8  25
BRANCH   1  29
HETATM   29  C   UNL     1     -42.154  60.617 -59.252  1.00  0.00    -0.035 A 
HETATM   30  C   UNL     1     -41.984  61.050 -60.573  1.00  0.00     0.010 A 
HETATM   31  C   UNL     1     -41.014  62.008 -60.888  1.00  0.00     0.007 A 
HETATM   32  C   UNL     1     -40.189  62.542 -59.891  1.00  0.00    -0.062 A 
HETATM   33  C   UNL     1     -39.168  63.590 -60.217  1.00  0.00     0.048 C 
HETATM   34  C   UNL     1     -40.363  62.121 -58.570  1.00  0.00     0.007 A 
HETATM   35  C   UNL     1     -41.328  61.165 -58.256  1.00  0.00     0.010 A 
ENDBRANCH   1  29
TORSDOF 6
ENDMDL
MODEL 6
REMARK VINA RESULT:      -8.4      4.529      7.887
REMARK  6 active torsions:
REMARK  status: ('A' for Active; 'I' for Inactive)
REMARK    1  A    between atoms: C_5  and  C_6 
REMARK    2  A    between atoms: C_11  and  C_12 
REMARK       I    between atoms: C_12  and  N_13 
REMARK    3  A    between atoms: N_13  and  C_14 
REMARK    4  A    between atoms: C_16  and  C_17 
REMARK    5  A    between atoms: C_17  and  O_18 
REMARK    6  A    between atoms: C_25  and  C_26 
ROOT
HETATM    1  C   UNL     1     -41.083  54.929 -52.850  1.00  0.00     0.118 C 
HETATM    2  N   UNL     1     -41.282  55.486 -54.187  1.00  0.00    -0.366 N 
HETATM    3  C   UNL     1     -42.345  56.249 -54.508  1.00  0.00     0.123 A 
HETATM    4  N   UNL     1     -43.228  56.669 -53.556  1.00  0.00    -0.240 N 
HETATM    5  N   UNL     1     -44.318  57.283 -54.050  1.00  0.00    -0.165 NA
HETATM    6  C   UNL     1     -44.042  57.383 -55.373  1.00  0.00     0.148 A 
HETATM    7  C   UNL     1     -42.806  56.755 -55.693  1.00  0.00     0.089 A 
HETATM    8  C   UNL     1     -43.068  56.379 -52.146  1.00  0.00     0.221 C 
HETATM    9  C   UNL     1     -42.365  55.023 -51.993  1.00  0.00     0.066 C 
HETATM   10  H   UNL     1     -40.611  55.183 -54.894  1.00  0.00     0.161 HD
ENDROOT
BRANCH   6  11
HETATM   11  C   UNL     1     -44.961  58.042 -56.317  1.00  0.00     0.276 C 
HETATM   12  N   UNL     1     -44.798  57.569 -57.605  1.00  0.00    -0.322 N 
HETATM   13  H   UNL     1     -44.049  56.887 -57.694  1.00  0.00     0.169 HD
HETATM   14  O   UNL     1     -45.735  58.920 -55.950  1.00  0.00    -0.266 OA
BRANCH  12  15
HETATM   15  C   UNL     1     -45.505  57.930 -58.762  1.00  0.00     0.035 A 
HETATM   16  C   UNL     1     -45.174  59.031 -59.558  1.00  0.00     0.039 A 
HETATM   17  C   UNL     1     -45.937  59.364 -60.693  1.00  0.00    -0.028 A 
HETATM   18  C   UNL     1     -47.026  58.552 -61.033  1.00  0.00     0.010 A 
HETATM   19  C   UNL     1     -47.363  57.453 -60.246  1.00  0.00     0.003 A 
HETATM   20  C   UNL     1     -46.611  57.149 -59.110  1.00  0.00     0.029 A 
BRANCH  17  21
HETATM   21  C   UNL     1     -45.551  60.575 -61.514  1.00  0.00     0.147 C 
HETATM   22  C   UNL     1     -45.273  61.788 -60.635  1.00  0.00     0.044 C 
BRANCH  21  23
HETATM   23  O   UNL     1     -44.393  60.300 -62.302  1.00  0.00    -0.391 OA
HETATM   24  H   UNL     1     -43.903  59.596 -61.845  1.00  0.00     0.210 HD
ENDBRANCH  21  23
ENDBRANCH  17  21
ENDBRANCH  12  15
ENDBRANCH   6  11
BRANCH   8  25
HETATM   25  C   UNL     1     -42.320  57.505 -51.470  1.00  0.00     0.409 C 
HETATM   26  F   UNL     1     -41.480  58.145 -52.312  1.00  0.00    -0.169 F 
HETATM   27  F   UNL     1     -43.204  58.439 -51.025  1.00  0.00    -0.169 F 
HETATM   28  F   UNL     1     -41.606  57.112 -50.395  1.00  0.00    -0.169 F 
ENDBRANCH   8  25
BRANCH   1  29
HETATM   29  C   UNL     1     -40.628  53.485 -52.986  1.00  0.00    -0.035 A 
HETATM   30  C   UNL     1     -40.732  52.815 -54.211  1.00  0.00     0.010 A 
HETATM   31  C   UNL     1     -40.312  51.486 -54.334  1.00  0.00     0.007 A 
HETATM   32  C   UNL     1     -39.790  50.799 -53.232  1.00  0.00    -0.062 A 
HETATM   33  C   UNL     1     -39.310  49.384 -53.363  1.00  0.00     0.048 C 
HETATM   34  C   UNL     1     -39.673  51.467 -52.009  1.00  0.00     0.007 A 
HETATM   35  C   UNL     1     -40.093  52.791 -51.886  1.00  0.00     0.010 A 
ENDBRANCH   1  29
TORSDOF 6
ENDMDL
MODEL 7
REMARK VINA RESULT:      -8.3      4.652      7.883
REMARK  6 active torsions:
REMARK  status: ('A' for Active; 'I' for Inactive)
REMARK    1  A    between atoms: C_5  and  C_6 
REMARK    2  A    between atoms: C_11  and  C_12 
REMARK       I    between atoms: C_12  and  N_13 
REMARK    3  A    between atoms: N_13  and  C_14 
REMARK    4  A    between atoms: C_16  and  C_17 
REMARK    5  A    between atoms: C_17  and  O_18 
REMARK    6  A    between atoms: C_25  and  C_26 
ROOT
HETATM    1  C   UNL     1     -41.483  54.804 -52.627  1.00  0.00     0.118 C 
HETATM    2  N   UNL     1     -40.959  55.725 -53.635  1.00  0.00    -0.366 N 
HETATM    3  C   UNL     1     -41.734  56.623 -54.274  1.00  0.00     0.123 A 
HETATM    4  N   UNL     1     -43.033  56.825 -53.909  1.00  0.00    -0.240 N 
HETATM    5  N   UNL     1     -43.720  57.630 -54.739  1.00  0.00    -0.165 NA
HETATM    6  C   UNL     1     -42.767  58.074 -55.594  1.00  0.00     0.148 A 
HETATM    7  C   UNL     1     -41.507  57.472 -55.323  1.00  0.00     0.089 A 
HETATM    8  C   UNL     1     -43.656  56.142 -52.793  1.00  0.00     0.221 C 
HETATM    9  C   UNL     1     -43.027  54.749 -52.647  1.00  0.00     0.066 C 
HETATM   10  H   UNL     1     -39.984  55.583 -53.895  1.00  0.00     0.161 HD
ENDROOT
BRANCH   6  11
HETATM   11  C   UNL     1     -43.066  59.036 -56.670  1.00  0.00     0.276 C 
HETATM   12  N   UNL     1     -42.045  59.099 -57.599  1.00  0.00    -0.322 N 
HETATM   13  H   UNL     1     -41.248  58.513 -57.364  1.00  0.00     0.169 HD
HETATM   14  O   UNL     1     -44.101  59.695 -56.669  1.00  0.00    -0.266 OA
BRANCH  12  15
HETATM   15  C   UNL     1     -41.979  59.871 -58.768  1.00  0.00     0.035 A 
HETATM   16  C   UNL     1     -41.306  61.093 -58.851  1.00  0.00     0.039 A 
HETATM   17  C   UNL     1     -41.296  61.840 -60.043  1.00  0.00    -0.028 A 
HETATM   18  C   UNL     1     -41.953  61.322 -61.167  1.00  0.00     0.010 A 
HETATM   19  C   UNL     1     -42.625  60.104 -61.094  1.00  0.00     0.003 A 
HETATM   20  C   UNL     1     -42.646  59.387 -59.897  1.00  0.00     0.029 A 
BRANCH  17  21
HETATM   21  C   UNL     1     -40.569  63.167 -60.079  1.00  0.00     0.147 C 
HETATM   22  C   UNL     1     -40.065  63.573 -58.700  1.00  0.00     0.044 C 
BRANCH  21  23
HETATM   23  O   UNL     1     -39.462  63.109 -60.978  1.00  0.00    -0.391 OA
HETATM   24  H   UNL     1     -38.824  63.780 -60.682  1.00  0.00     0.210 HD
ENDBRANCH  21  23
ENDBRANCH  17  21
ENDBRANCH  12  15
ENDBRANCH   6  11
BRANCH   8  25
HETATM   25  C   UNL     1     -43.526  56.977 -51.540  1.00  0.00     0.409 C 
HETATM   26  F   UNL     1     -44.605  57.762 -51.329  1.00  0.00    -0.169 F 
HETATM   27  F   UNL     1     -43.425  56.162 -50.456  1.00  0.00    -0.169 F 
HETATM   28  F   UNL     1     -42.433  57.767 -51.528  1.00  0.00    -0.169 F 
ENDBRANCH   8  25
BRANCH   1  29
HETATM   29  C   UNL     1     -40.890  53.426 -52.869  1.00  0.00    -0.035 A 
HETATM   30  C   UNL     1     -41.054  52.784 -54.103  1.00  0.00     0.010 A 
HETATM   31  C   UNL     1     -40.507  51.516 -54.324  1.00  0.00     0.007 A 
HETATM   32  C   UNL     1     -39.794  50.862 -53.313  1.00  0.00    -0.062 A 
HETATM   33  C   UNL     1     -39.179  49.515 -53.553  1.00  0.00     0.048 C 
HETATM   34  C   UNL     1     -39.616  51.503 -52.084  1.00  0.00     0.007 A 
HETATM   35  C   UNL     1     -40.164  52.766 -51.863  1.00  0.00     0.010 A 
ENDBRANCH   1  29
TORSDOF 6
ENDMDL
MODEL 8
REMARK VINA RESULT:      -8.2     18.276     19.710
REMARK  6 active torsions:
REMARK  status: ('A' for Active; 'I' for Inactive)
REMARK    1  A    between atoms: C_5  and  C_6 
REMARK    2  A    between atoms: C_11  and  C_12 
REMARK       I    between atoms: C_12  and  N_13 
REMARK    3  A    between atoms: N_13  and  C_14 
REMARK    4  A    between atoms: C_16  and  C_17 
REMARK    5  A    between atoms: C_17  and  O_18 
REMARK    6  A    between atoms: C_25  and  C_26 
ROOT
HETATM    1  C   UNL     1     -35.173  41.434 -53.740  1.00  0.00     0.118 C 
HETATM    2  N   UNL     1     -36.317  41.445 -52.830  1.00  0.00    -0.366 N 
HETATM    3  C   UNL     1     -36.449  40.568 -51.815  1.00  0.00     0.123 A 
HETATM    4  N   UNL     1     -35.443  39.706 -51.489  1.00  0.00    -0.240 N 
HETATM    5  N   UNL     1     -35.782  38.788 -50.566  1.00  0.00    -0.165 NA
HETATM    6  C   UNL     1     -37.022  39.179 -50.185  1.00  0.00     0.148 A 
HETATM    7  C   UNL     1     -37.466  40.300 -50.941  1.00  0.00     0.089 A 
HETATM    8  C   UNL     1     -34.158  39.701 -52.159  1.00  0.00     0.221 C 
HETATM    9  C   UNL     1     -34.356  40.129 -53.620  1.00  0.00     0.066 C 
HETATM   10  H   UNL     1     -37.061  42.101 -53.066  1.00  0.00     0.161 HD
ENDROOT
BRANCH   6  11
HETATM   11  C   UNL     1     -37.779  38.472 -49.137  1.00  0.00     0.276 C 
HETATM   12  N   UNL     1     -39.082  38.925 -49.053  1.00  0.00    -0.322 N 
HETATM   13  H   UNL     1     -39.286  39.692 -49.688  1.00  0.00     0.169 HD
HETATM   14  O   UNL     1     -37.252  37.615 -48.435  1.00  0.00    -0.266 OA
BRANCH  12  15
HETATM   15  C   UNL     1     -40.105  38.479 -48.203  1.00  0.00     0.035 A 
HETATM   16  C   UNL     1     -40.665  39.262 -47.189  1.00  0.00     0.039 A 
HETATM   17  C   UNL     1     -41.671  38.753 -46.347  1.00  0.00    -0.028 A 
HETATM   18  C   UNL     1     -42.128  37.446 -46.559  1.00  0.00     0.010 A 
HETATM   19  C   UNL     1     -41.576  36.658 -47.567  1.00  0.00     0.003 A 
HETATM   20  C   UNL     1     -40.563  37.170 -48.379  1.00  0.00     0.029 A 
BRANCH  17  21
HETATM   21  C   UNL     1     -42.234  39.633 -45.252  1.00  0.00     0.147 C 
HETATM   22  C   UNL     1     -41.255  39.791 -44.095  1.00  0.00     0.044 C 
BRANCH  21  23
HETATM   23  O   UNL     1     -42.559  40.925 -45.763  1.00  0.00    -0.391 OA
HETATM   24  H   UNL     1     -41.894  41.134 -46.440  1.00  0.00     0.210 HD
ENDBRANCH  21  23
ENDBRANCH  17  21
ENDBRANCH  12  15
ENDBRANCH   6  11
BRANCH   8  25
HETATM   25  C   UNL     1     -33.186  40.587 -51.415  1.00  0.00     0.409 C 
HETATM   26  F   UNL     1     -33.804  41.588 -50.751  1.00  0.00    -0.169 F 
HETATM   27  F   UNL     1     -32.524  39.856 -50.478  1.00  0.00    -0.169 F 
HETATM   28  F   UNL     1     -32.242  41.139 -52.206  1.00  0.00    -0.169 F 
ENDBRANCH   8  25
BRANCH   1  29
HETATM   29  C   UNL     1     -35.679  41.626 -55.161  1.00  0.00    -0.035 A 
HETATM   30  C   UNL     1     -34.780  41.751 -56.228  1.00  0.00     0.010 A 
HETATM   31  C   UNL     1     -35.247  41.927 -57.535  1.00  0.00     0.007 A 
HETATM   32  C   UNL     1     -36.620  41.993 -57.798  1.00  0.00    -0.062 A 
HETATM   33  C   UNL     1     -37.129  42.152 -59.200  1.00  0.00     0.048 C 
HETATM   34  C   UNL     1     -37.521  41.858 -56.738  1.00  0.00     0.007 A 
HETATM   35  C   UNL     1     -37.056  41.684 -55.435  1.00  0.00     0.010 A 
ENDBRANCH   1  29
TORSDOF 6
ENDMDL
MODEL 9
REMARK VINA RESULT:      -8.2      5.806      8.966
REMARK  6 active torsions:
REMARK  status: ('A' for Active; 'I' for Inactive)
REMARK    1  A    between atoms: C_5  and  C_6 
REMARK    2  A    between atoms: C_11  and  C_12 
REMARK       I    between atoms: C_12  and  N_13 
REMARK    3  A    between atoms: N_13  and  C_14 
REMARK    4  A    between atoms: C_16  and  C_17 
REMARK    5  A    between atoms: C_17  and  O_18 
REMARK    6  A    between atoms: C_25  and  C_26 
ROOT
HETATM    1  C   UNL     1     -41.838  56.088 -54.341  1.00  0.00     0.118 C 
HETATM    2  N   UNL     1     -41.662  56.275 -55.781  1.00  0.00    -0.366 N 
HETATM    3  C   UNL     1     -42.634  56.762 -56.577  1.00  0.00     0.123 A 
HETATM    4  N   UNL     1     -43.798  57.249 -56.056  1.00  0.00    -0.240 N 
HETATM    5  N   UNL     1     -44.730  57.548 -56.978  1.00  0.00    -0.165 NA
HETATM    6  C   UNL     1     -44.071  57.376 -58.149  1.00  0.00     0.148 A 
HETATM    7  C   UNL     1     -42.749  56.895 -57.934  1.00  0.00     0.089 A 
HETATM    8  C   UNL     1     -44.055  57.329 -54.633  1.00  0.00     0.221 C 
HETATM    9  C   UNL     1     -43.324  56.176 -53.929  1.00  0.00     0.066 C 
HETATM   10  H   UNL     1     -40.784  55.925 -56.165  1.00  0.00     0.161 HD
ENDROOT
BRANCH   6  11
HETATM   11  C   UNL     1     -44.706  57.639 -59.453  1.00  0.00     0.276 C 
HETATM   12  N   UNL     1     -46.076  57.463 -59.400  1.00  0.00    -0.322 N 
HETATM   13  H   UNL     1     -46.407  57.141 -58.494  1.00  0.00     0.169 HD
HETATM   14  O   UNL     1     -44.043  57.944 -60.438  1.00  0.00    -0.266 OA
BRANCH  12  15
HETATM   15  C   UNL     1     -47.018  57.646 -60.423  1.00  0.00     0.035 A 
HETATM   16  C   UNL     1     -47.566  58.888 -60.756  1.00  0.00     0.039 A 
HETATM   17  C   UNL     1     -48.530  59.009 -61.774  1.00  0.00    -0.028 A 
HETATM   18  C   UNL     1     -48.915  57.859 -62.476  1.00  0.00     0.010 A 
HETATM   19  C   UNL     1     -48.373  56.617 -62.152  1.00  0.00     0.003 A 
HETATM   20  C   UNL     1     -47.435  56.510 -61.124  1.00  0.00     0.029 A 
BRANCH  17  21
HETATM   21  C   UNL     1     -49.109  60.372 -62.086  1.00  0.00     0.147 C 
HETATM   22  C   UNL     1     -50.027  60.331 -63.302  1.00  0.00     0.044 C 
BRANCH  21  23
HETATM   23  O   UNL     1     -49.843  60.874 -60.970  1.00  0.00    -0.391 OA
HETATM   24  H   UNL     1     -50.231  60.105 -60.520  1.00  0.00     0.210 HD
ENDBRANCH  21  23
ENDBRANCH  17  21
ENDBRANCH  12  15
ENDBRANCH   6  11
BRANCH   8  25
HETATM   25  C   UNL     1     -43.646  58.687 -54.111  1.00  0.00     0.409 C 
HETATM   26  F   UNL     1     -44.676  59.560 -54.083  1.00  0.00    -0.169 F 
HETATM   27  F   UNL     1     -43.207  58.570 -52.829  1.00  0.00    -0.169 F 
HETATM   28  F   UNL     1     -42.642  59.255 -54.809  1.00  0.00    -0.169 F 
ENDBRANCH   8  25
BRANCH   1  29
HETATM   29  C   UNL     1     -41.247  54.744 -53.948  1.00  0.00    -0.035 A 
HETATM   30  C   UNL     1     -40.805  53.844 -54.926  1.00  0.00     0.010 A 
HETATM   31  C   UNL     1     -40.261  52.609 -54.562  1.00  0.00     0.007 A 
HETATM   32  C   UNL     1     -40.157  52.245 -53.214  1.00  0.00    -0.062 A 
HETATM   33  C   UNL     1     -39.546  50.934 -52.815  1.00  0.00     0.048 C 
HETATM   34  C   UNL     1     -40.585  53.144 -52.234  1.00  0.00     0.007 A 
HETATM   35  C   UNL     1     -41.130  54.376 -52.597  1.00  0.00     0.010 A 
ENDBRANCH   1  29
TORSDOF 6
ENDMDL
MODEL 10
REMARK VINA RESULT:      -8.2      5.574      9.518
REMARK  6 active torsions:
REMARK  status: ('A' for Active; 'I' for Inactive)
REMARK    1  A    between atoms: C_5  and  C_6 
REMARK    2  A    between atoms: C_11  and  C_12 
REMARK       I    between atoms: C_12  and  N_13 
REMARK    3  A    between atoms: N_13  and  C_14 
REMARK    4  A    between atoms: C_16  and  C_17 
REMARK    5  A    between atoms: C_17  and  O_18 
REMARK    6  A    between atoms: C_25  and  C_26 
ROOT
HETATM    1  C   UNL     1     -43.021  60.514 -58.085  1.00  0.00     0.118 C 
HETATM    2  N   UNL     1     -42.906  59.079 -58.343  1.00  0.00    -0.366 N 
HETATM    3  C   UNL     1     -42.899  58.161 -57.358  1.00  0.00     0.123 A 
HETATM    4  N   UNL     1     -43.148  58.509 -56.062  1.00  0.00    -0.240 N 
HETATM    5  N   UNL     1     -42.947  57.517 -55.176  1.00  0.00    -0.165 NA
HETATM    6  C   UNL     1     -42.696  56.446 -55.967  1.00  0.00     0.148 A 
HETATM    7  C   UNL     1     -42.671  56.812 -57.342  1.00  0.00     0.089 A 
HETATM    8  C   UNL     1     -43.485  59.859 -55.657  1.00  0.00     0.221 C 
HETATM    9  C   UNL     1     -42.783  60.851 -56.597  1.00  0.00     0.066 C 
HETATM   10  H   UNL     1     -42.736  58.820 -59.314  1.00  0.00     0.161 HD
ENDROOT
BRANCH   6  11
HETATM   11  C   UNL     1     -42.456  55.102 -55.413  1.00  0.00     0.276 C 
HETATM   12  N   UNL     1     -41.346  55.078 -54.590  1.00  0.00    -0.322 N 
HETATM   13  H   UNL     1     -40.859  55.970 -54.541  1.00  0.00     0.169 HD
HETATM   14  O   UNL     1     -43.172  54.151 -55.707  1.00  0.00    -0.266 OA
BRANCH  12  15
HETATM   15  C   UNL     1     -40.822  53.997 -53.865  1.00  0.00     0.035 A 
HETATM   16  C   UNL     1     -40.778  53.951 -52.469  1.00  0.00     0.039 A 
HETATM   17  C   UNL     1     -40.214  52.853 -51.794  1.00  0.00    -0.028 A 
HETATM   18  C   UNL     1     -39.717  51.782 -52.549  1.00  0.00     0.010 A 
HETATM   19  C   UNL     1     -39.758  51.819 -53.941  1.00  0.00     0.003 A 
HETATM   20  C   UNL     1     -40.299  52.926 -54.596  1.00  0.00     0.029 A 
BRANCH  17  21
HETATM   21  C   UNL     1     -40.172  52.856 -50.281  1.00  0.00     0.147 C 
HETATM   22  C   UNL     1     -41.070  53.937 -49.694  1.00  0.00     0.044 C 
BRANCH  21  23
HETATM   23  O   UNL     1     -40.576  51.588 -49.765  1.00  0.00    -0.391 OA
HETATM   24  H   UNL     1     -40.268  51.549 -48.844  1.00  0.00     0.210 HD
ENDBRANCH  21  23
ENDBRANCH  17  21
ENDBRANCH  12  15
ENDBRANCH   6  11
BRANCH   8  25
HETATM   25  C   UNL     1     -44.986  60.032 -55.640  1.00  0.00     0.409 C 
HETATM   26  F   UNL     1     -45.521  59.768 -54.428  1.00  0.00    -0.169 F 
HETATM   27  F   UNL     1     -45.301  61.324 -55.926  1.00  0.00    -0.169 F 
HETATM   28  F   UNL     1     -45.630  59.271 -56.549  1.00  0.00    -0.169 F 
ENDBRANCH   8  25
BRANCH   1  29
HETATM   29  C   UNL     1     -42.029  61.250 -58.971  1.00  0.00    -0.035 A 
HETATM   30  C   UNL     1     -40.920  61.900 -58.416  1.00  0.00     0.010 A 
HETATM   31  C   UNL     1     -40.009  62.577 -59.233  1.00  0.00     0.007 A 
HETATM   32  C   UNL     1     -40.194  62.625 -60.619  1.00  0.00    -0.062 A 
HETATM   33  C   UNL     1     -39.205  63.324 -61.504  1.00  0.00     0.048 C 
HETATM   34  C   UNL     1     -41.293  61.969 -61.180  1.00  0.00     0.007 A 
HETATM   35  C   UNL     1     -42.203  61.296 -60.365  1.00  0.00     0.010 A 
ENDBRANCH   1  29
TORSDOF 6
ENDMDL
