MODEL 1
REMARK VINA RESULT:      -7.5      0.000      0.000
REMARK  12 active torsions:
REMARK  status: ('A' for Active; 'I' for Inactive)
REMARK    1  A    between atoms: C_2  and  N_3 
REMARK    2  A    between atoms: N_3  and  C_5 
REMARK    3  A    between atoms: N_3  and  C_37 
REMARK    4  A    between atoms: C_5  and  C_6 
REMARK    5  A    between atoms: N_7  and  C_8 
REMARK    6  A    between atoms: C_12  and  N_13 
REMARK    7  A    between atoms: C_16  and  C_17 
REMARK       I    between atoms: C_17  and  N_18 
REMARK    8  A    between atoms: N_18  and  N_19 
REMARK    9  A    between atoms: C_20  and  C_21 
REMARK   10  A    between atoms: C_23  and  C_24 
REMARK   11  A    between atoms: C_28  and  O_29 
REMARK   12  A    between atoms: C_30  and  C_31 
ROOT
HETATM    1  C   UNL     1     -43.398  56.761 -57.075  1.00  0.00     0.293 C 
HETATM    2  N   UNL     1     -42.571  55.660 -57.186  1.00  0.00    -0.242 N 
HETATM    3  O   UNL     1     -43.977  57.124 -56.054  1.00  0.00    -0.264 OA
HETATM    4  H   UNL     1     -42.123  55.428 -58.068  1.00  0.00     0.192 HD
ENDROOT
BRANCH   1   5
HETATM    5  C   UNL     1     -43.573  57.512 -58.311  1.00  0.00     0.170 A 
HETATM    6  C   UNL     1     -43.116  58.798 -58.563  1.00  0.00     0.096 A 
HETATM    7  N   UNL     1     -43.620  59.102 -59.823  1.00  0.00    -0.215 N 
HETATM    8  N   UNL     1     -44.229  57.994 -60.326  1.00  0.00     0.012 NA
HETATM    9  N   UNL     1     -44.230  57.041 -59.408  1.00  0.00    -0.152 NA
BRANCH   6  10
HETATM   10  C   UNL     1     -42.208  59.655 -57.761  1.00  0.00     0.296 C 
BRANCH  10  11
HETATM   11  N   UNL     1     -42.805  60.930 -57.193  1.00  0.00    -0.066 N 
HETATM   12  H   UNL     1     -43.759  61.001 -57.578  1.00  0.00     0.280 HD
BRANCH  11  13
HETATM   13  C   UNL     1     -42.029  62.153 -57.670  1.00  0.00     0.231 C 
HETATM   14  C   UNL     1     -40.782  61.756 -58.436  1.00  0.00     0.034 C 
ENDBRANCH  11  13
BRANCH  11  15
HETATM   15  C   UNL     1     -42.903  60.901 -55.674  1.00  0.00     0.231 C 
HETATM   16  C   UNL     1     -41.978  59.845 -55.089  1.00  0.00     0.034 C 
ENDBRANCH  11  15
ENDBRANCH  10  11
ENDBRANCH   6  10
BRANCH   7  17
HETATM   17  C   UNL     1     -43.598  60.340 -60.507  1.00  0.00     0.225 A 
HETATM   18  N   UNL     1     -44.583  61.222 -60.316  1.00  0.00    -0.081 NA
HETATM   19  O   UNL     1     -44.237  62.286 -61.156  1.00  0.00    -0.103 OA
HETATM   20  N   UNL     1     -43.073  62.014 -61.857  1.00  0.00    -0.083 NA
HETATM   21  C   UNL     1     -42.676  60.807 -61.458  1.00  0.00     0.201 A 
BRANCH  21  22
HETATM   22  N   UNL     1     -41.578  60.179 -61.904  1.00  0.00    -0.379 N 
HETATM   23  H   UNL     1     -40.653  60.533 -61.669  1.00  0.00     0.158 HD
HETATM   24  H   UNL     1     -41.587  59.462 -62.628  1.00  0.00     0.158 HD
ENDBRANCH  21  22
ENDBRANCH   7  17
ENDBRANCH   1   5
BRANCH   2  25
HETATM   25  N   UNL     1     -42.357  54.894 -56.083  1.00  0.00    -0.184 NA
HETATM   26  C   UNL     1     -41.193  54.984 -55.524  1.00  0.00     0.150 C 
BRANCH  26  27
HETATM   27  C   UNL     1     -40.872  54.193 -54.316  1.00  0.00    -0.016 A 
HETATM   28  C   UNL     1     -40.492  52.852 -54.433  1.00  0.00     0.023 A 
HETATM   29  C   UNL     1     -40.185  52.061 -53.310  1.00  0.00    -0.016 A 
HETATM   30  C   UNL     1     -40.303  52.701 -52.048  1.00  0.00     0.079 A 
HETATM   31  C   UNL     1     -40.692  54.066 -51.894  1.00  0.00    -0.016 A 
HETATM   32  C   UNL     1     -40.965  54.794 -53.065  1.00  0.00     0.023 A 
BRANCH  29  33
HETATM   33  C   UNL     1     -39.752  50.585 -53.522  1.00  0.00    -0.021 C 
HETATM   34  C   UNL     1     -39.668  49.758 -52.205  1.00  0.00     0.019 C 
HETATM   35  C   UNL     1     -40.776  49.830 -54.400  1.00  0.00     0.019 C 
HETATM   36  C   UNL     1     -38.333  50.516 -54.131  1.00  0.00     0.019 C 
ENDBRANCH  29  33
BRANCH  30  37
HETATM   37  O   UNL     1     -40.043  52.037 -50.880  1.00  0.00    -0.360 OA
HETATM   38  H   UNL     1     -39.489  51.263 -51.027  1.00  0.00     0.217 HD
ENDBRANCH  30  37
BRANCH  31  39
HETATM   39  C   UNL     1     -40.834  54.736 -50.499  1.00  0.00    -0.021 C 
HETATM   40  C   UNL     1     -39.637  54.377 -49.591  1.00  0.00     0.019 C 
HETATM   41  C   UNL     1     -40.872  56.287 -50.556  1.00  0.00     0.019 C 
HETATM   42  C   UNL     1     -42.159  54.306 -49.828  1.00  0.00     0.019 C 
ENDBRANCH  31  39
ENDBRANCH  26  27
ENDBRANCH   2  25
TORSDOF 12
ENDMDL
MODEL 2
REMARK VINA RESULT:      -7.5      1.700      2.164
REMARK  12 active torsions:
REMARK  status: ('A' for Active; 'I' for Inactive)
REMARK    1  A    between atoms: C_2  and  N_3 
REMARK    2  A    between atoms: N_3  and  C_5 
REMARK    3  A    between atoms: N_3  and  C_37 
REMARK    4  A    between atoms: C_5  and  C_6 
REMARK    5  A    between atoms: N_7  and  C_8 
REMARK    6  A    between atoms: C_12  and  N_13 
REMARK    7  A    between atoms: C_16  and  C_17 
REMARK       I    between atoms: C_17  and  N_18 
REMARK    8  A    between atoms: N_18  and  N_19 
REMARK    9  A    between atoms: C_20  and  C_21 
REMARK   10  A    between atoms: C_23  and  C_24 
REMARK   11  A    between atoms: C_28  and  O_29 
REMARK   12  A    between atoms: C_30  and  C_31 
ROOT
HETATM    1  C   UNL     1     -42.911  56.060 -57.751  1.00  0.00     0.293 C 
HETATM    2  N   UNL     1     -42.110  56.474 -56.704  1.00  0.00    -0.242 N 
HETATM    3  O   UNL     1     -43.562  55.019 -57.787  1.00  0.00    -0.264 OA
HETATM    4  H   UNL     1     -41.605  57.355 -56.749  1.00  0.00     0.192 HD
ENDROOT
BRANCH   1   5
HETATM    5  C   UNL     1     -42.938  56.969 -58.888  1.00  0.00     0.170 A 
HETATM    6  C   UNL     1     -43.749  58.087 -59.028  1.00  0.00     0.096 A 
HETATM    7  N   UNL     1     -43.479  58.550 -60.312  1.00  0.00    -0.215 N 
HETATM    8  N   UNL     1     -42.465  57.810 -60.836  1.00  0.00     0.012 NA
HETATM    9  N   UNL     1     -42.155  56.837 -59.995  1.00  0.00    -0.152 NA
BRANCH   6  10
HETATM   10  C   UNL     1     -44.635  58.746 -58.036  1.00  0.00     0.296 C 
BRANCH  10  11
HETATM   11  N   UNL     1     -45.586  57.843 -57.272  1.00  0.00    -0.066 N 
HETATM   12  H   UNL     1     -45.311  56.874 -57.496  1.00  0.00     0.280 HD
BRANCH  11  13
HETATM   13  C   UNL     1     -47.020  58.032 -57.753  1.00  0.00     0.231 C 
HETATM   14  C   UNL     1     -47.314  59.488 -58.064  1.00  0.00     0.034 C 
ENDBRANCH  11  13
BRANCH  11  15
HETATM   15  C   UNL     1     -45.484  58.033 -55.764  1.00  0.00     0.231 C 
HETATM   16  C   UNL     1     -44.356  58.989 -55.410  1.00  0.00     0.034 C 
ENDBRANCH  11  15
ENDBRANCH  10  11
ENDBRANCH   6  10
BRANCH   7  17
HETATM   17  C   UNL     1     -44.139  59.568 -61.039  1.00  0.00     0.225 A 
HETATM   18  N   UNL     1     -45.474  59.591 -61.087  1.00  0.00    -0.081 NA
HETATM   19  O   UNL     1     -45.754  60.698 -61.896  1.00  0.00    -0.103 OA
HETATM   20  N   UNL     1     -44.587  61.301 -62.343  1.00  0.00    -0.083 NA
HETATM   21  C   UNL     1     -43.585  60.600 -61.815  1.00  0.00     0.201 A 
BRANCH  21  22
HETATM   22  N   UNL     1     -42.285  60.865 -62.007  1.00  0.00    -0.379 N 
HETATM   23  H   UNL     1     -41.861  61.689 -61.585  1.00  0.00     0.158 HD
HETATM   24  H   UNL     1     -41.706  60.402 -62.705  1.00  0.00     0.158 HD
ENDBRANCH  21  22
ENDBRANCH   7  17
ENDBRANCH   1   5
BRANCH   2  25
HETATM   25  N   UNL     1     -42.018  55.683 -55.603  1.00  0.00    -0.184 NA
HETATM   26  C   UNL     1     -40.872  55.124 -55.377  1.00  0.00     0.150 C 
BRANCH  26  27
HETATM   27  C   UNL     1     -40.677  54.252 -54.198  1.00  0.00    -0.016 A 
HETATM   28  C   UNL     1     -40.386  52.895 -54.367  1.00  0.00     0.023 A 
HETATM   29  C   UNL     1     -40.200  52.027 -53.275  1.00  0.00    -0.016 A 
HETATM   30  C   UNL     1     -40.344  52.609 -51.987  1.00  0.00     0.079 A 
HETATM   31  C   UNL     1     -40.645  53.989 -51.780  1.00  0.00    -0.016 A 
HETATM   32  C   UNL     1     -40.798  54.794 -52.922  1.00  0.00     0.023 A 
BRANCH  29  33
HETATM   33  C   UNL     1     -39.859  50.536 -53.544  1.00  0.00    -0.021 C 
HETATM   34  C   UNL     1     -39.701  49.683 -52.250  1.00  0.00     0.019 C 
HETATM   35  C   UNL     1     -40.991  49.846 -54.338  1.00  0.00     0.019 C 
HETATM   36  C   UNL     1     -38.503  50.410 -54.276  1.00  0.00     0.019 C 
ENDBRANCH  29  33
BRANCH  30  37
HETATM   37  O   UNL     1     -40.199  51.869 -50.846  1.00  0.00    -0.360 OA
HETATM   38  H   UNL     1     -40.763  51.089 -50.853  1.00  0.00     0.217 HD
ENDBRANCH  30  37
BRANCH  31  39
HETATM   39  C   UNL     1     -40.819  54.597 -50.360  1.00  0.00    -0.021 C 
HETATM   40  C   UNL     1     -39.594  54.282 -49.473  1.00  0.00     0.019 C 
HETATM   41  C   UNL     1     -40.958  56.143 -50.358  1.00  0.00     0.019 C 
HETATM   42  C   UNL     1     -42.108  54.057 -49.699  1.00  0.00     0.019 C 
ENDBRANCH  31  39
ENDBRANCH  26  27
ENDBRANCH   2  25
TORSDOF 12
ENDMDL
MODEL 3
REMARK VINA RESULT:      -7.4      1.468      4.122
REMARK  12 active torsions:
REMARK  status: ('A' for Active; 'I' for Inactive)
REMARK    1  A    between atoms: C_2  and  N_3 
REMARK    2  A    between atoms: N_3  and  C_5 
REMARK    3  A    between atoms: N_3  and  C_37 
REMARK    4  A    between atoms: C_5  and  C_6 
REMARK    5  A    between atoms: N_7  and  C_8 
REMARK    6  A    between atoms: C_12  and  N_13 
REMARK    7  A    between atoms: C_16  and  C_17 
REMARK       I    between atoms: C_17  and  N_18 
REMARK    8  A    between atoms: N_18  and  N_19 
REMARK    9  A    between atoms: C_20  and  C_21 
REMARK   10  A    between atoms: C_23  and  C_24 
REMARK   11  A    between atoms: C_28  and  O_29 
REMARK   12  A    between atoms: C_30  and  C_31 
ROOT
HETATM    1  C   UNL     1     -42.530  57.743 -56.514  1.00  0.00     0.293 C 
HETATM    2  N   UNL     1     -42.126  56.452 -56.796  1.00  0.00    -0.242 N 
HETATM    3  O   UNL     1     -42.832  58.174 -55.403  1.00  0.00    -0.264 OA
HETATM    4  H   UNL     1     -41.888  56.174 -57.744  1.00  0.00     0.192 HD
ENDROOT
BRANCH   1   5
HETATM    5  C   UNL     1     -42.598  58.622 -57.673  1.00  0.00     0.170 A 
HETATM    6  C   UNL     1     -43.710  58.843 -58.473  1.00  0.00     0.096 A 
HETATM    7  N   UNL     1     -43.243  59.666 -59.493  1.00  0.00    -0.215 N 
HETATM    8  N   UNL     1     -41.955  60.007 -59.221  1.00  0.00     0.012 NA
HETATM    9  N   UNL     1     -41.550  59.357 -58.141  1.00  0.00    -0.152 NA
BRANCH   6  10
HETATM   10  C   UNL     1     -45.119  58.420 -58.276  1.00  0.00     0.296 C 
BRANCH  10  11
HETATM   11  N   UNL     1     -45.497  57.052 -58.815  1.00  0.00    -0.066 N 
HETATM   12  H   UNL     1     -45.444  56.400 -58.016  1.00  0.00     0.280 HD
BRANCH  11  13
HETATM   13  C   UNL     1     -44.489  56.579 -59.856  1.00  0.00     0.231 C 
HETATM   14  C   UNL     1     -43.951  55.200 -59.524  1.00  0.00     0.034 C 
ENDBRANCH  11  13
BRANCH  11  15
HETATM   15  C   UNL     1     -46.915  57.016 -59.368  1.00  0.00     0.231 C 
HETATM   16  C   UNL     1     -46.923  56.555 -60.817  1.00  0.00     0.034 C 
ENDBRANCH  11  15
ENDBRANCH  10  11
ENDBRANCH   6  10
BRANCH   7  17
HETATM   17  C   UNL     1     -43.910  60.074 -60.671  1.00  0.00     0.225 A 
HETATM   18  N   UNL     1     -45.244  60.017 -60.734  1.00  0.00    -0.081 NA
HETATM   19  O   UNL     1     -45.531  60.467 -62.027  1.00  0.00    -0.103 OA
HETATM   20  N   UNL     1     -44.370  60.757 -62.727  1.00  0.00    -0.083 NA
HETATM   21  C   UNL     1     -43.364  60.512 -61.889  1.00  0.00     0.201 A 
BRANCH  21  22
HETATM   22  N   UNL     1     -42.066  60.672 -62.188  1.00  0.00    -0.379 N 
HETATM   23  H   UNL     1     -41.513  61.381 -61.712  1.00  0.00     0.158 HD
HETATM   24  H   UNL     1     -41.614  60.256 -63.001  1.00  0.00     0.158 HD
ENDBRANCH  21  22
ENDBRANCH   7  17
ENDBRANCH   1   5
BRANCH   2  25
HETATM   25  N   UNL     1     -42.042  55.559 -55.775  1.00  0.00    -0.184 NA
HETATM   26  C   UNL     1     -40.875  55.387 -55.242  1.00  0.00     0.150 C 
BRANCH  26  27
HETATM   27  C   UNL     1     -40.690  54.440 -54.120  1.00  0.00    -0.016 A 
HETATM   28  C   UNL     1     -40.755  54.893 -52.799  1.00  0.00     0.023 A 
HETATM   29  C   UNL     1     -40.579  54.030 -51.702  1.00  0.00    -0.016 A 
HETATM   30  C   UNL     1     -40.312  52.671 -52.017  1.00  0.00     0.079 A 
HETATM   31  C   UNL     1     -40.234  52.177 -53.355  1.00  0.00    -0.016 A 
HETATM   32  C   UNL     1     -40.440  53.099 -54.395  1.00  0.00     0.023 A 
BRANCH  29  33
HETATM   33  C   UNL     1     -40.686  54.604 -50.264  1.00  0.00    -0.021 C 
HETATM   34  C   UNL     1     -41.893  54.049 -49.452  1.00  0.00     0.019 C 
HETATM   35  C   UNL     1     -39.441  54.232 -49.427  1.00  0.00     0.019 C 
HETATM   36  C   UNL     1     -40.898  56.135 -50.303  1.00  0.00     0.019 C 
ENDBRANCH  29  33
BRANCH  30  37
HETATM   37  O   UNL     1     -40.110  51.734 -51.041  1.00  0.00    -0.360 OA
HETATM   38  H   UNL     1     -39.920  52.143 -50.190  1.00  0.00     0.217 HD
ENDBRANCH  30  37
BRANCH  31  39
HETATM   39  C   UNL     1     -39.918  50.689 -53.673  1.00  0.00    -0.021 C 
HETATM   40  C   UNL     1     -38.594  50.563 -54.459  1.00  0.00     0.019 C 
HETATM   41  C   UNL     1     -39.746  49.805 -52.408  1.00  0.00     0.019 C 
HETATM   42  C   UNL     1     -41.076  50.053 -54.477  1.00  0.00     0.019 C 
ENDBRANCH  31  39
ENDBRANCH  26  27
ENDBRANCH   2  25
TORSDOF 12
ENDMDL
MODEL 4
REMARK VINA RESULT:      -7.4      0.908      3.350
REMARK  12 active torsions:
REMARK  status: ('A' for Active; 'I' for Inactive)
REMARK    1  A    between atoms: C_2  and  N_3 
REMARK    2  A    between atoms: N_3  and  C_5 
REMARK    3  A    between atoms: N_3  and  C_37 
REMARK    4  A    between atoms: C_5  and  C_6 
REMARK    5  A    between atoms: N_7  and  C_8 
REMARK    6  A    between atoms: C_12  and  N_13 
REMARK    7  A    between atoms: C_16  and  C_17 
REMARK       I    between atoms: C_17  and  N_18 
REMARK    8  A    between atoms: N_18  and  N_19 
REMARK    9  A    between atoms: C_20  and  C_21 
REMARK   10  A    between atoms: C_23  and  C_24 
REMARK   11  A    between atoms: C_28  and  O_29 
REMARK   12  A    between atoms: C_30  and  C_31 
ROOT
HETATM    1  C   UNL     1     -42.881  56.049 -57.789  1.00  0.00     0.293 C 
HETATM    2  N   UNL     1     -42.064  56.432 -56.743  1.00  0.00    -0.242 N 
HETATM    3  O   UNL     1     -43.564  55.028 -57.828  1.00  0.00    -0.264 OA
HETATM    4  H   UNL     1     -41.532  57.297 -56.785  1.00  0.00     0.192 HD
ENDROOT
BRANCH   1   5
HETATM    5  C   UNL     1     -42.883  56.964 -58.921  1.00  0.00     0.170 A 
HETATM    6  C   UNL     1     -43.364  58.266 -58.925  1.00  0.00     0.096 A 
HETATM    7  N   UNL     1     -43.240  58.674 -60.249  1.00  0.00    -0.215 N 
HETATM    8  N   UNL     1     -42.599  57.699 -60.947  1.00  0.00     0.012 NA
HETATM    9  N   UNL     1     -42.407  56.653 -60.160  1.00  0.00    -0.152 NA
BRANCH   6  10
HETATM   10  C   UNL     1     -43.814  59.113 -57.793  1.00  0.00     0.296 C 
BRANCH  10  11
HETATM   11  N   UNL     1     -42.738  59.901 -57.067  1.00  0.00    -0.066 N 
HETATM   12  H   UNL     1     -41.862  59.365 -57.176  1.00  0.00     0.280 HD
BRANCH  11  13
HETATM   13  C   UNL     1     -43.038  59.984 -55.575  1.00  0.00     0.231 C 
HETATM   14  C   UNL     1     -41.863  59.505 -54.744  1.00  0.00     0.034 C 
ENDBRANCH  11  13
BRANCH  11  15
HETATM   15  C   UNL     1     -42.528  61.287 -57.662  1.00  0.00     0.231 C 
HETATM   16  C   UNL     1     -41.154  61.403 -58.302  1.00  0.00     0.034 C 
ENDBRANCH  11  15
ENDBRANCH  10  11
ENDBRANCH   6  10
BRANCH   7  17
HETATM   17  C   UNL     1     -43.724  59.857 -60.856  1.00  0.00     0.225 A 
HETATM   18  N   UNL     1     -45.020  60.170 -60.761  1.00  0.00    -0.081 NA
HETATM   19  O   UNL     1     -45.123  61.363 -61.485  1.00  0.00    -0.103 OA
HETATM   20  N   UNL     1     -43.900  61.729 -62.025  1.00  0.00    -0.083 NA
HETATM   21  C   UNL     1     -43.032  60.796 -61.638  1.00  0.00     0.201 A 
BRANCH  21  22
HETATM   22  N   UNL     1     -41.728  60.788 -61.955  1.00  0.00    -0.379 N 
HETATM   23  H   UNL     1     -41.394  60.231 -62.739  1.00  0.00     0.158 HD
HETATM   24  H   UNL     1     -40.994  61.158 -61.354  1.00  0.00     0.158 HD
ENDBRANCH  21  22
ENDBRANCH   7  17
ENDBRANCH   1   5
BRANCH   2  25
HETATM   25  N   UNL     1     -41.993  55.633 -55.646  1.00  0.00    -0.184 NA
HETATM   26  C   UNL     1     -40.835  55.129 -55.361  1.00  0.00     0.150 C 
BRANCH  26  27
HETATM   27  C   UNL     1     -40.662  54.253 -54.181  1.00  0.00    -0.016 A 
HETATM   28  C   UNL     1     -40.791  54.777 -52.891  1.00  0.00     0.023 A 
HETATM   29  C   UNL     1     -40.628  53.983 -51.741  1.00  0.00    -0.016 A 
HETATM   30  C   UNL     1     -40.307  52.618 -51.968  1.00  0.00     0.079 A 
HETATM   31  C   UNL     1     -40.165  52.053 -53.272  1.00  0.00    -0.016 A 
HETATM   32  C   UNL     1     -40.360  52.908 -54.370  1.00  0.00     0.023 A 
BRANCH  29  33
HETATM   33  C   UNL     1     -40.806  54.633 -50.342  1.00  0.00    -0.021 C 
HETATM   34  C   UNL     1     -39.678  54.270 -49.332  1.00  0.00     0.019 C 
HETATM   35  C   UNL     1     -40.768  56.175 -50.442  1.00  0.00     0.019 C 
HETATM   36  C   UNL     1     -42.114  54.146 -49.677  1.00  0.00     0.019 C 
ENDBRANCH  29  33
BRANCH  30  37
HETATM   37  O   UNL     1     -40.112  51.745 -50.934  1.00  0.00    -0.360 OA
HETATM   38  H   UNL     1     -39.672  50.940 -51.226  1.00  0.00     0.217 HD
ENDBRANCH  30  37
BRANCH  31  39
HETATM   39  C   UNL     1     -39.791  50.561 -53.494  1.00  0.00    -0.021 C 
HETATM   40  C   UNL     1     -38.409  50.435 -54.173  1.00  0.00     0.019 C 
HETATM   41  C   UNL     1     -39.693  49.742 -52.178  1.00  0.00     0.019 C 
HETATM   42  C   UNL     1     -40.870  49.857 -54.348  1.00  0.00     0.019 C 
ENDBRANCH  31  39
ENDBRANCH  26  27
ENDBRANCH   2  25
TORSDOF 12
ENDMDL
MODEL 5
REMARK VINA RESULT:      -7.4      1.471      2.909
REMARK  12 active torsions:
REMARK  status: ('A' for Active; 'I' for Inactive)
REMARK    1  A    between atoms: C_2  and  N_3 
REMARK    2  A    between atoms: N_3  and  C_5 
REMARK    3  A    between atoms: N_3  and  C_37 
REMARK    4  A    between atoms: C_5  and  C_6 
REMARK    5  A    between atoms: N_7  and  C_8 
REMARK    6  A    between atoms: C_12  and  N_13 
REMARK    7  A    between atoms: C_16  and  C_17 
REMARK       I    between atoms: C_17  and  N_18 
REMARK    8  A    between atoms: N_18  and  N_19 
REMARK    9  A    between atoms: C_20  and  C_21 
REMARK   10  A    between atoms: C_23  and  C_24 
REMARK   11  A    between atoms: C_28  and  O_29 
REMARK   12  A    between atoms: C_30  and  C_31 
ROOT
HETATM    1  C   UNL     1     -42.469  57.824 -56.546  1.00  0.00     0.293 C 
HETATM    2  N   UNL     1     -42.174  56.506 -56.835  1.00  0.00    -0.242 N 
HETATM    3  O   UNL     1     -42.670  58.285 -55.424  1.00  0.00    -0.264 OA
HETATM    4  H   UNL     1     -42.016  56.203 -57.792  1.00  0.00     0.192 HD
ENDROOT
BRANCH   1   5
HETATM    5  C   UNL     1     -42.549  58.694 -57.710  1.00  0.00     0.170 A 
HETATM    6  C   UNL     1     -43.665  58.897 -58.510  1.00  0.00     0.096 A 
HETATM    7  N   UNL     1     -43.210  59.719 -59.535  1.00  0.00    -0.215 N 
HETATM    8  N   UNL     1     -41.925  60.078 -59.266  1.00  0.00     0.012 NA
HETATM    9  N   UNL     1     -41.511  59.440 -58.184  1.00  0.00    -0.152 NA
BRANCH   6  10
HETATM   10  C   UNL     1     -45.068  58.457 -58.308  1.00  0.00     0.296 C 
BRANCH  10  11
HETATM   11  N   UNL     1     -45.423  57.070 -58.814  1.00  0.00    -0.066 N 
HETATM   12  H   UNL     1     -45.316  56.431 -58.011  1.00  0.00     0.280 HD
BRANCH  11  13
HETATM   13  C   UNL     1     -44.443  56.616 -59.890  1.00  0.00     0.231 C 
HETATM   14  C   UNL     1     -43.947  55.206 -59.631  1.00  0.00     0.034 C 
ENDBRANCH  11  13
BRANCH  11  15
HETATM   15  C   UNL     1     -46.860  56.980 -59.308  1.00  0.00     0.231 C 
HETATM   16  C   UNL     1     -46.908  56.808 -60.818  1.00  0.00     0.034 C 
ENDBRANCH  11  15
ENDBRANCH  10  11
ENDBRANCH   6  10
BRANCH   7  17
HETATM   17  C   UNL     1     -43.883  60.112 -60.715  1.00  0.00     0.225 A 
HETATM   18  N   UNL     1     -45.216  60.039 -60.775  1.00  0.00    -0.081 NA
HETATM   19  O   UNL     1     -45.510  60.476 -62.071  1.00  0.00    -0.103 OA
HETATM   20  N   UNL     1     -44.353  60.775 -62.775  1.00  0.00    -0.083 NA
HETATM   21  C   UNL     1     -43.343  60.547 -61.937  1.00  0.00     0.201 A 
BRANCH  21  22
HETATM   22  N   UNL     1     -42.048  60.719 -62.239  1.00  0.00    -0.379 N 
HETATM   23  H   UNL     1     -41.503  61.438 -61.768  1.00  0.00     0.158 HD
HETATM   24  H   UNL     1     -41.593  60.304 -63.050  1.00  0.00     0.158 HD
ENDBRANCH  21  22
ENDBRANCH   7  17
ENDBRANCH   1   5
BRANCH   2  25
HETATM   25  N   UNL     1     -42.087  55.618 -55.809  1.00  0.00    -0.184 NA
HETATM   26  C   UNL     1     -40.913  55.427 -55.297  1.00  0.00     0.150 C 
BRANCH  26  27
HETATM   27  C   UNL     1     -40.725  54.484 -54.172  1.00  0.00    -0.016 A 
HETATM   28  C   UNL     1     -40.477  53.131 -54.422  1.00  0.00     0.023 A 
HETATM   29  C   UNL     1     -40.299  52.198 -53.383  1.00  0.00    -0.016 A 
HETATM   30  C   UNL     1     -40.403  52.711 -52.063  1.00  0.00     0.079 A 
HETATM   31  C   UNL     1     -40.659  54.086 -51.774  1.00  0.00    -0.016 A 
HETATM   32  C   UNL     1     -40.808  54.958 -52.866  1.00  0.00     0.023 A 
BRANCH  29  33
HETATM   33  C   UNL     1     -40.008  50.716 -53.741  1.00  0.00    -0.021 C 
HETATM   34  C   UNL     1     -38.816  50.528 -54.725  1.00  0.00     0.019 C 
HETATM   35  C   UNL     1     -39.613  49.912 -52.482  1.00  0.00     0.019 C 
HETATM   36  C   UNL     1     -41.223  50.079 -54.455  1.00  0.00     0.019 C 
ENDBRANCH  29  33
BRANCH  30  37
HETATM   37  O   UNL     1     -40.261  51.905 -50.967  1.00  0.00    -0.360 OA
HETATM   38  H   UNL     1     -40.345  50.974 -51.197  1.00  0.00     0.217 HD
ENDBRANCH  30  37
BRANCH  31  39
HETATM   39  C   UNL     1     -40.791  54.618 -50.319  1.00  0.00    -0.021 C 
HETATM   40  C   UNL     1     -39.545  54.248 -49.483  1.00  0.00     0.019 C 
HETATM   41  C   UNL     1     -40.918  56.162 -50.231  1.00  0.00     0.019 C 
HETATM   42  C   UNL     1     -42.065  54.052 -49.653  1.00  0.00     0.019 C 
ENDBRANCH  31  39
ENDBRANCH  26  27
ENDBRANCH   2  25
TORSDOF 12
ENDMDL
MODEL 6
REMARK VINA RESULT:      -7.3      1.500      3.664
REMARK  12 active torsions:
REMARK  status: ('A' for Active; 'I' for Inactive)
REMARK    1  A    between atoms: C_2  and  N_3 
REMARK    2  A    between atoms: N_3  and  C_5 
REMARK    3  A    between atoms: N_3  and  C_37 
REMARK    4  A    between atoms: C_5  and  C_6 
REMARK    5  A    between atoms: N_7  and  C_8 
REMARK    6  A    between atoms: C_12  and  N_13 
REMARK    7  A    between atoms: C_16  and  C_17 
REMARK       I    between atoms: C_17  and  N_18 
REMARK    8  A    between atoms: N_18  and  N_19 
REMARK    9  A    between atoms: C_20  and  C_21 
REMARK   10  A    between atoms: C_23  and  C_24 
REMARK   11  A    between atoms: C_28  and  O_29 
REMARK   12  A    between atoms: C_30  and  C_31 
ROOT
HETATM    1  C   UNL     1     -42.870  56.069 -57.660  1.00  0.00     0.293 C 
HETATM    2  N   UNL     1     -42.047  56.488 -56.633  1.00  0.00    -0.242 N 
HETATM    3  O   UNL     1     -43.538  55.037 -57.670  1.00  0.00    -0.264 OA
HETATM    4  H   UNL     1     -41.530  57.360 -56.699  1.00  0.00     0.192 HD
ENDROOT
BRANCH   1   5
HETATM    5  C   UNL     1     -42.900  56.960 -58.811  1.00  0.00     0.170 A 
HETATM    6  C   UNL     1     -43.341  58.276 -58.822  1.00  0.00     0.096 A 
HETATM    7  N   UNL     1     -43.270  58.653 -60.159  1.00  0.00    -0.215 N 
HETATM    8  N   UNL     1     -42.693  57.643 -60.865  1.00  0.00     0.012 NA
HETATM    9  N   UNL     1     -42.495  56.608 -60.064  1.00  0.00    -0.152 NA
BRANCH   6  10
HETATM   10  C   UNL     1     -43.709  59.161 -57.689  1.00  0.00     0.296 C 
BRANCH  10  11
HETATM   11  N   UNL     1     -44.974  58.802 -56.931  1.00  0.00    -0.066 N 
HETATM   12  H   UNL     1     -44.992  57.773 -56.866  1.00  0.00     0.280 HD
BRANCH  11  13
HETATM   13  C   UNL     1     -46.214  59.232 -57.707  1.00  0.00     0.231 C 
HETATM   14  C   UNL     1     -47.276  58.149 -57.703  1.00  0.00     0.034 C 
ENDBRANCH  11  13
BRANCH  11  15
HETATM   15  C   UNL     1     -44.988  59.371 -55.518  1.00  0.00     0.231 C 
HETATM   16  C   UNL     1     -44.267  58.444 -54.551  1.00  0.00     0.034 C 
ENDBRANCH  11  15
ENDBRANCH  10  11
ENDBRANCH   6  10
BRANCH   7  17
HETATM   17  C   UNL     1     -43.747  59.837 -60.768  1.00  0.00     0.225 A 
HETATM   18  N   UNL     1     -42.938  60.894 -60.890  1.00  0.00    -0.081 NA
HETATM   19  O   UNL     1     -43.747  61.857 -61.502  1.00  0.00    -0.103 OA
HETATM   20  N   UNL     1     -45.031  61.376 -61.710  1.00  0.00    -0.083 NA
HETATM   21  C   UNL     1     -45.033  60.125 -61.253  1.00  0.00     0.201 A 
BRANCH  21  22
HETATM   22  N   UNL     1     -46.097  59.308 -61.274  1.00  0.00    -0.379 N 
HETATM   23  H   UNL     1     -46.263  58.701 -62.074  1.00  0.00     0.158 HD
HETATM   24  H   UNL     1     -46.876  59.371 -60.621  1.00  0.00     0.158 HD
ENDBRANCH  21  22
ENDBRANCH   7  17
ENDBRANCH   1   5
BRANCH   2  25
HETATM   25  N   UNL     1     -41.951  55.713 -55.520  1.00  0.00    -0.184 NA
HETATM   26  C   UNL     1     -40.854  55.043 -55.365  1.00  0.00     0.150 C 
BRANCH  26  27
HETATM   27  C   UNL     1     -40.658  54.179 -54.181  1.00  0.00    -0.016 A 
HETATM   28  C   UNL     1     -40.769  54.714 -52.894  1.00  0.00     0.023 A 
HETATM   29  C   UNL     1     -40.585  53.931 -51.739  1.00  0.00    -0.016 A 
HETATM   30  C   UNL     1     -40.259  52.565 -51.959  1.00  0.00     0.079 A 
HETATM   31  C   UNL     1     -40.134  51.989 -53.259  1.00  0.00    -0.016 A 
HETATM   32  C   UNL     1     -40.351  52.834 -54.362  1.00  0.00     0.023 A 
BRANCH  29  33
HETATM   33  C   UNL     1     -40.744  54.593 -50.344  1.00  0.00    -0.021 C 
HETATM   34  C   UNL     1     -40.858  56.145 -50.393  1.00  0.00     0.019 C 
HETATM   35  C   UNL     1     -42.045  54.121 -49.655  1.00  0.00     0.019 C 
HETATM   36  C   UNL     1     -39.507  54.308 -49.461  1.00  0.00     0.019 C 
ENDBRANCH  29  33
BRANCH  30  37
HETATM   37  O   UNL     1     -40.044  51.703 -50.919  1.00  0.00    -0.360 OA
HETATM   38  H   UNL     1     -40.219  52.120 -50.069  1.00  0.00     0.217 HD
ENDBRANCH  30  37
BRANCH  31  39
HETATM   39  C   UNL     1     -39.755  50.497 -53.473  1.00  0.00    -0.021 C 
HETATM   40  C   UNL     1     -38.339  50.371 -54.080  1.00  0.00     0.019 C 
HETATM   41  C   UNL     1     -39.730  49.668 -52.161  1.00  0.00     0.019 C 
HETATM   42  C   UNL     1     -40.790  49.805 -54.389  1.00  0.00     0.019 C 
ENDBRANCH  31  39
ENDBRANCH  26  27
ENDBRANCH   2  25
TORSDOF 12
ENDMDL
MODEL 7
REMARK VINA RESULT:      -7.3      2.107      3.053
REMARK  12 active torsions:
REMARK  status: ('A' for Active; 'I' for Inactive)
REMARK    1  A    between atoms: C_2  and  N_3 
REMARK    2  A    between atoms: N_3  and  C_5 
REMARK    3  A    between atoms: N_3  and  C_37 
REMARK    4  A    between atoms: C_5  and  C_6 
REMARK    5  A    between atoms: N_7  and  C_8 
REMARK    6  A    between atoms: C_12  and  N_13 
REMARK    7  A    between atoms: C_16  and  C_17 
REMARK       I    between atoms: C_17  and  N_18 
REMARK    8  A    between atoms: N_18  and  N_19 
REMARK    9  A    between atoms: C_20  and  C_21 
REMARK   10  A    between atoms: C_23  and  C_24 
REMARK   11  A    between atoms: C_28  and  O_29 
REMARK   12  A    between atoms: C_30  and  C_31 
ROOT
HETATM    1  C   UNL     1     -42.645  57.193 -57.368  1.00  0.00     0.293 C 
HETATM    2  N   UNL     1     -42.583  55.822 -57.214  1.00  0.00    -0.242 N 
HETATM    3  O   UNL     1     -42.086  58.022 -56.653  1.00  0.00    -0.264 OA
HETATM    4  H   UNL     1     -43.072  55.201 -57.853  1.00  0.00     0.192 HD
ENDROOT
BRANCH   1   5
HETATM    5  C   UNL     1     -43.470  57.639 -58.482  1.00  0.00     0.170 A 
HETATM    6  C   UNL     1     -44.804  58.016 -58.417  1.00  0.00     0.096 A 
HETATM    7  N   UNL     1     -45.160  58.251 -59.742  1.00  0.00    -0.215 N 
HETATM    8  N   UNL     1     -44.048  58.141 -60.517  1.00  0.00     0.012 NA
HETATM    9  N   UNL     1     -43.032  57.743 -59.768  1.00  0.00    -0.152 NA
BRANCH   6  10
HETATM   10  C   UNL     1     -45.669  58.241 -57.233  1.00  0.00     0.296 C 
BRANCH  10  11
HETATM   11  N   UNL     1     -44.966  58.617 -55.941  1.00  0.00    -0.066 N 
HETATM   12  H   UNL     1     -43.954  58.554 -56.133  1.00  0.00     0.280 HD
BRANCH  11  13
HETATM   13  C   UNL     1     -45.284  57.617 -54.837  1.00  0.00     0.231 C 
HETATM   14  C   UNL     1     -44.147  57.510 -53.838  1.00  0.00     0.034 C 
ENDBRANCH  11  13
BRANCH  11  15
HETATM   15  C   UNL     1     -45.281  60.040 -55.500  1.00  0.00     0.231 C 
HETATM   16  C   UNL     1     -44.019  60.886 -55.443  1.00  0.00     0.034 C 
ENDBRANCH  11  15
ENDBRANCH  10  11
ENDBRANCH   6  10
BRANCH   7  17
HETATM   17  C   UNL     1     -46.444  58.508 -60.277  1.00  0.00     0.225 A 
HETATM   18  N   UNL     1     -47.051  59.671 -60.020  1.00  0.00    -0.081 NA
HETATM   19  O   UNL     1     -48.278  59.554 -60.681  1.00  0.00    -0.103 OA
HETATM   20  N   UNL     1     -48.400  58.317 -61.297  1.00  0.00    -0.083 NA
HETATM   21  C   UNL     1     -47.265  57.667 -61.045  1.00  0.00     0.201 A 
BRANCH  21  22
HETATM   22  N   UNL     1     -46.987  56.426 -61.472  1.00  0.00    -0.379 N 
HETATM   23  H   UNL     1     -47.184  56.158 -62.434  1.00  0.00     0.158 HD
HETATM   24  H   UNL     1     -46.755  55.650 -60.855  1.00  0.00     0.158 HD
ENDBRANCH  21  22
ENDBRANCH   7  17
ENDBRANCH   1   5
BRANCH   2  25
HETATM   25  N   UNL     1     -41.842  55.315 -56.194  1.00  0.00    -0.184 NA
HETATM   26  C   UNL     1     -42.460  54.571 -55.332  1.00  0.00     0.150 C 
BRANCH  26  27
HETATM   27  C   UNL     1     -41.732  53.971 -54.193  1.00  0.00    -0.016 A 
HETATM   28  C   UNL     1     -41.126  52.719 -54.327  1.00  0.00     0.023 A 
HETATM   29  C   UNL     1     -40.429  52.107 -53.268  1.00  0.00    -0.016 A 
HETATM   30  C   UNL     1     -40.394  52.831 -52.047  1.00  0.00     0.079 A 
HETATM   31  C   UNL     1     -41.006  54.110 -51.876  1.00  0.00    -0.016 A 
HETATM   32  C   UNL     1     -41.668  54.661 -52.987  1.00  0.00     0.023 A 
BRANCH  29  33
HETATM   33  C   UNL     1     -39.765  50.723 -53.500  1.00  0.00    -0.021 C 
HETATM   34  C   UNL     1     -40.479  49.856 -54.579  1.00  0.00     0.019 C 
HETATM   35  C   UNL     1     -38.317  50.885 -54.015  1.00  0.00     0.019 C 
HETATM   36  C   UNL     1     -39.810  49.874 -52.208  1.00  0.00     0.019 C 
ENDBRANCH  29  33
BRANCH  30  37
HETATM   37  O   UNL     1     -39.759  52.340 -50.940  1.00  0.00    -0.360 OA
HETATM   38  H   UNL     1     -40.318  51.728 -50.450  1.00  0.00     0.217 HD
ENDBRANCH  30  37
BRANCH  31  39
HETATM   39  C   UNL     1     -40.972  54.872 -50.522  1.00  0.00    -0.021 C 
HETATM   40  C   UNL     1     -42.136  54.424 -49.609  1.00  0.00     0.019 C 
HETATM   41  C   UNL     1     -39.675  54.630 -49.704  1.00  0.00     0.019 C 
HETATM   42  C   UNL     1     -41.041  56.398 -50.761  1.00  0.00     0.019 C 
ENDBRANCH  31  39
ENDBRANCH  26  27
ENDBRANCH   2  25
TORSDOF 12
ENDMDL
MODEL 8
REMARK VINA RESULT:      -7.3      1.634      2.183
REMARK  12 active torsions:
REMARK  status: ('A' for Active; 'I' for Inactive)
REMARK    1  A    between atoms: C_2  and  N_3 
REMARK    2  A    between atoms: N_3  and  C_5 
REMARK    3  A    between atoms: N_3  and  C_37 
REMARK    4  A    between atoms: C_5  and  C_6 
REMARK    5  A    between atoms: N_7  and  C_8 
REMARK    6  A    between atoms: C_12  and  N_13 
REMARK    7  A    between atoms: C_16  and  C_17 
REMARK       I    between atoms: C_17  and  N_18 
REMARK    8  A    between atoms: N_18  and  N_19 
REMARK    9  A    between atoms: C_20  and  C_21 
REMARK   10  A    between atoms: C_23  and  C_24 
REMARK   11  A    between atoms: C_28  and  O_29 
REMARK   12  A    between atoms: C_30  and  C_31 
ROOT
HETATM    1  C   UNL     1     -43.229  56.947 -57.431  1.00  0.00     0.293 C 
HETATM    2  N   UNL     1     -43.720  56.084 -56.470  1.00  0.00    -0.242 N 
HETATM    3  O   UNL     1     -42.086  57.396 -57.474  1.00  0.00    -0.264 OA
HETATM    4  H   UNL     1     -44.680  55.752 -56.506  1.00  0.00     0.192 HD
ENDROOT
BRANCH   1   5
HETATM    5  C   UNL     1     -44.197  57.335 -58.446  1.00  0.00     0.170 A 
HETATM    6  C   UNL     1     -44.599  58.629 -58.748  1.00  0.00     0.096 A 
HETATM    7  N   UNL     1     -45.600  58.466 -59.699  1.00  0.00    -0.215 N 
HETATM    8  N   UNL     1     -45.681  57.147 -60.024  1.00  0.00     0.012 NA
HETATM    9  N   UNL     1     -44.858  56.456 -59.251  1.00  0.00    -0.152 NA
BRANCH   6  10
HETATM   10  C   UNL     1     -44.049  59.925 -58.280  1.00  0.00     0.296 C 
BRANCH  10  11
HETATM   11  N   UNL     1     -42.601  60.214 -58.633  1.00  0.00    -0.066 N 
HETATM   12  H   UNL     1     -42.077  59.345 -58.446  1.00  0.00     0.280 HD
BRANCH  11  13
HETATM   13  C   UNL     1     -42.026  61.297 -57.727  1.00  0.00     0.231 C 
HETATM   14  C   UNL     1     -40.791  61.934 -58.337  1.00  0.00     0.034 C 
ENDBRANCH  11  13
BRANCH  11  15
HETATM   15  C   UNL     1     -42.421  60.575 -60.101  1.00  0.00     0.231 C 
HETATM   16  C   UNL     1     -41.909  59.384 -60.896  1.00  0.00     0.034 C 
ENDBRANCH  11  15
ENDBRANCH  10  11
ENDBRANCH   6  10
BRANCH   7  17
HETATM   17  C   UNL     1     -46.469  59.441 -60.241  1.00  0.00     0.225 A 
HETATM   18  N   UNL     1     -47.650  59.675 -59.661  1.00  0.00    -0.081 NA
HETATM   19  O   UNL     1     -48.224  60.661 -60.471  1.00  0.00    -0.103 OA
HETATM   20  N   UNL     1     -47.396  60.980 -61.536  1.00  0.00    -0.083 NA
HETATM   21  C   UNL     1     -46.309  60.224 -61.396  1.00  0.00     0.201 A 
BRANCH  21  22
HETATM   22  N   UNL     1     -45.259  60.236 -62.231  1.00  0.00    -0.379 N 
HETATM   23  H   UNL     1     -45.193  60.941 -62.962  1.00  0.00     0.158 HD
HETATM   24  H   UNL     1     -44.591  59.472 -62.317  1.00  0.00     0.158 HD
ENDBRANCH  21  22
ENDBRANCH   7  17
ENDBRANCH   1   5
BRANCH   2  25
HETATM   25  N   UNL     1     -42.887  55.675 -55.477  1.00  0.00    -0.184 NA
HETATM   26  C   UNL     1     -42.907  54.416 -55.176  1.00  0.00     0.150 C 
BRANCH  26  27
HETATM   27  C   UNL     1     -42.029  53.879 -54.113  1.00  0.00    -0.016 A 
HETATM   28  C   UNL     1     -41.374  52.657 -54.291  1.00  0.00     0.023 A 
HETATM   29  C   UNL     1     -40.536  52.106 -53.304  1.00  0.00    -0.016 A 
HETATM   30  C   UNL     1     -40.409  52.858 -52.106  1.00  0.00     0.079 A 
HETATM   31  C   UNL     1     -41.067  54.107 -51.891  1.00  0.00    -0.016 A 
HETATM   32  C   UNL     1     -41.873  54.599 -52.932  1.00  0.00     0.023 A 
BRANCH  29  33
HETATM   33  C   UNL     1     -39.827  50.753 -53.584  1.00  0.00    -0.021 C 
HETATM   34  C   UNL     1     -39.720  49.829 -52.335  1.00  0.00     0.019 C 
HETATM   35  C   UNL     1     -40.613  49.924 -54.624  1.00  0.00     0.019 C 
HETATM   36  C   UNL     1     -38.368  50.986 -54.039  1.00  0.00     0.019 C 
ENDBRANCH  29  33
BRANCH  30  37
HETATM   37  O   UNL     1     -39.632  52.425 -51.067  1.00  0.00    -0.360 OA
HETATM   38  H   UNL     1     -39.800  52.929 -50.263  1.00  0.00     0.217 HD
ENDBRANCH  30  37
BRANCH  31  39
HETATM   39  C   UNL     1     -40.928  54.900 -50.561  1.00  0.00    -0.021 C 
HETATM   40  C   UNL     1     -39.554  54.640 -49.906  1.00  0.00     0.019 C 
HETATM   41  C   UNL     1     -41.028  56.439 -50.742  1.00  0.00     0.019 C 
HETATM   42  C   UNL     1     -42.064  54.516 -49.585  1.00  0.00     0.019 C 
ENDBRANCH  31  39
ENDBRANCH  26  27
ENDBRANCH   2  25
TORSDOF 12
ENDMDL
MODEL 9
REMARK VINA RESULT:      -7.2      1.957      3.999
REMARK  12 active torsions:
REMARK  status: ('A' for Active; 'I' for Inactive)
REMARK    1  A    between atoms: C_2  and  N_3 
REMARK    2  A    between atoms: N_3  and  C_5 
REMARK    3  A    between atoms: N_3  and  C_37 
REMARK    4  A    between atoms: C_5  and  C_6 
REMARK    5  A    between atoms: N_7  and  C_8 
REMARK    6  A    between atoms: C_12  and  N_13 
REMARK    7  A    between atoms: C_16  and  C_17 
REMARK       I    between atoms: C_17  and  N_18 
REMARK    8  A    between atoms: N_18  and  N_19 
REMARK    9  A    between atoms: C_20  and  C_21 
REMARK   10  A    between atoms: C_23  and  C_24 
REMARK   11  A    between atoms: C_28  and  O_29 
REMARK   12  A    between atoms: C_30  and  C_31 
ROOT
HETATM    1  C   UNL     1     -42.528  57.622 -57.073  1.00  0.00     0.293 C 
HETATM    2  N   UNL     1     -42.511  56.250 -56.914  1.00  0.00    -0.242 N 
HETATM    3  O   UNL     1     -42.000  58.439 -56.321  1.00  0.00    -0.264 OA
HETATM    4  H   UNL     1     -42.969  55.639 -57.585  1.00  0.00     0.192 HD
ENDROOT
BRANCH   1   5
HETATM    5  C   UNL     1     -43.262  58.085 -58.242  1.00  0.00     0.170 A 
HETATM    6  C   UNL     1     -44.640  58.211 -58.351  1.00  0.00     0.096 A 
HETATM    7  N   UNL     1     -44.848  58.583 -59.675  1.00  0.00    -0.215 N 
HETATM    8  N   UNL     1     -43.639  58.788 -60.264  1.00  0.00     0.012 NA
HETATM    9  N   UNL     1     -42.679  58.461 -59.415  1.00  0.00    -0.152 NA
BRANCH   6  10
HETATM   10  C   UNL     1     -45.688  58.097 -57.307  1.00  0.00     0.296 C 
BRANCH  10  11
HETATM   11  N   UNL     1     -45.837  59.277 -56.364  1.00  0.00    -0.066 N 
HETATM   12  H   UNL     1     -46.850  59.401 -56.211  1.00  0.00     0.280 HD
BRANCH  11  13
HETATM   13  C   UNL     1     -45.312  60.556 -57.006  1.00  0.00     0.231 C 
HETATM   14  C   UNL     1     -44.268  61.228 -56.135  1.00  0.00     0.034 C 
ENDBRANCH  11  13
BRANCH  11  15
HETATM   15  C   UNL     1     -45.176  59.031 -55.014  1.00  0.00     0.231 C 
HETATM   16  C   UNL     1     -45.177  57.550 -54.669  1.00  0.00     0.034 C 
ENDBRANCH  11  15
ENDBRANCH  10  11
ENDBRANCH   6  10
BRANCH   7  17
HETATM   17  C   UNL     1     -46.071  58.693 -60.379  1.00  0.00     0.225 A 
HETATM   18  N   UNL     1     -46.477  59.887 -60.821  1.00  0.00    -0.081 NA
HETATM   19  O   UNL     1     -47.706  59.610 -61.430  1.00  0.00    -0.103 OA
HETATM   20  N   UNL     1     -48.030  58.266 -61.318  1.00  0.00    -0.083 NA
HETATM   21  C   UNL     1     -47.018  57.697 -60.664  1.00  0.00     0.201 A 
BRANCH  21  22
HETATM   22  N   UNL     1     -46.948  56.394 -60.354  1.00  0.00    -0.379 N 
HETATM   23  H   UNL     1     -46.535  55.733 -61.008  1.00  0.00     0.158 HD
HETATM   24  H   UNL     1     -47.448  55.966 -59.577  1.00  0.00     0.158 HD
ENDBRANCH  21  22
ENDBRANCH   7  17
ENDBRANCH   1   5
BRANCH   2  25
HETATM   25  N   UNL     1     -41.855  55.728 -55.844  1.00  0.00    -0.184 NA
HETATM   26  C   UNL     1     -42.281  54.591 -55.392  1.00  0.00     0.150 C 
BRANCH  26  27
HETATM   27  C   UNL     1     -41.624  53.945 -54.235  1.00  0.00    -0.016 A 
HETATM   28  C   UNL     1     -41.562  54.603 -53.003  1.00  0.00     0.023 A 
HETATM   29  C   UNL     1     -40.941  54.028 -51.878  1.00  0.00    -0.016 A 
HETATM   30  C   UNL     1     -40.364  52.745 -52.074  1.00  0.00     0.079 A 
HETATM   31  C   UNL     1     -40.406  52.049 -53.320  1.00  0.00    -0.016 A 
HETATM   32  C   UNL     1     -41.060  52.682 -54.391  1.00  0.00     0.023 A 
BRANCH  29  33
HETATM   33  C   UNL     1     -40.930  54.813 -50.539  1.00  0.00    -0.021 C 
HETATM   34  C   UNL     1     -39.607  54.662 -49.732  1.00  0.00     0.019 C 
HETATM   35  C   UNL     1     -41.072  56.331 -50.787  1.00  0.00     0.019 C 
HETATM   36  C   UNL     1     -42.039  54.293 -49.594  1.00  0.00     0.019 C 
ENDBRANCH  29  33
BRANCH  30  37
HETATM   37  O   UNL     1     -39.722  52.086 -51.063  1.00  0.00    -0.360 OA
HETATM   38  H   UNL     1     -39.058  51.475 -51.401  1.00  0.00     0.217 HD
ENDBRANCH  30  37
BRANCH  31  39
HETATM   39  C   UNL     1     -39.747  50.655 -53.514  1.00  0.00    -0.021 C 
HETATM   40  C   UNL     1     -38.255  50.799 -53.892  1.00  0.00     0.019 C 
HETATM   41  C   UNL     1     -39.777  49.769 -52.239  1.00  0.00     0.019 C 
HETATM   42  C   UNL     1     -40.496  49.852 -54.603  1.00  0.00     0.019 C 
ENDBRANCH  31  39
ENDBRANCH  26  27
ENDBRANCH   2  25
TORSDOF 12
ENDMDL
MODEL 10
REMARK VINA RESULT:      -7.2      1.886      4.006
REMARK  12 active torsions:
REMARK  status: ('A' for Active; 'I' for Inactive)
REMARK    1  A    between atoms: C_2  and  N_3 
REMARK    2  A    between atoms: N_3  and  C_5 
REMARK    3  A    between atoms: N_3  and  C_37 
REMARK    4  A    between atoms: C_5  and  C_6 
REMARK    5  A    between atoms: N_7  and  C_8 
REMARK    6  A    between atoms: C_12  and  N_13 
REMARK    7  A    between atoms: C_16  and  C_17 
REMARK       I    between atoms: C_17  and  N_18 
REMARK    8  A    between atoms: N_18  and  N_19 
REMARK    9  A    between atoms: C_20  and  C_21 
REMARK   10  A    between atoms: C_23  and  C_24 
REMARK   11  A    between atoms: C_28  and  O_29 
REMARK   12  A    between atoms: C_30  and  C_31 
ROOT
HETATM    1  C   UNL     1     -43.253  56.575 -57.654  1.00  0.00     0.293 C 
HETATM    2  N   UNL     1     -43.551  55.444 -56.918  1.00  0.00    -0.242 N 
HETATM    3  O   UNL     1     -42.206  57.216 -57.592  1.00  0.00    -0.264 OA
HETATM    4  H   UNL     1     -44.441  54.967 -57.031  1.00  0.00     0.192 HD
ENDROOT
BRANCH   1   5
HETATM    5  C   UNL     1     -44.312  57.008 -58.553  1.00  0.00     0.170 A 
HETATM    6  C   UNL     1     -44.807  58.299 -58.680  1.00  0.00     0.096 A 
HETATM    7  N   UNL     1     -45.864  58.176 -59.576  1.00  0.00    -0.215 N 
HETATM    8  N   UNL     1     -45.894  56.898 -60.041  1.00  0.00     0.012 NA
HETATM    9  N   UNL     1     -44.981  56.181 -59.406  1.00  0.00    -0.152 NA
BRANCH   6  10
HETATM   10  C   UNL     1     -44.298  59.569 -58.107  1.00  0.00     0.296 C 
BRANCH  10  11
HETATM   11  N   UNL     1     -42.994  60.097 -58.679  1.00  0.00    -0.066 N 
HETATM   12  H   UNL     1     -42.254  59.455 -58.355  1.00  0.00     0.280 HD
BRANCH  11  13
HETATM   13  C   UNL     1     -42.676  61.480 -58.123  1.00  0.00     0.231 C 
HETATM   14  C   UNL     1     -41.183  61.752 -58.131  1.00  0.00     0.034 C 
ENDBRANCH  11  13
BRANCH  11  15
HETATM   15  C   UNL     1     -42.987  60.103 -60.202  1.00  0.00     0.231 C 
HETATM   16  C   UNL     1     -41.962  59.121 -60.746  1.00  0.00     0.034 C 
ENDBRANCH  11  15
ENDBRANCH  10  11
ENDBRANCH   6  10
BRANCH   7  17
HETATM   17  C   UNL     1     -46.824  59.147 -59.946  1.00  0.00     0.225 A 
HETATM   18  N   UNL     1     -46.824  59.641 -61.189  1.00  0.00    -0.081 NA
HETATM   19  O   UNL     1     -47.872  60.568 -61.172  1.00  0.00    -0.103 OA
HETATM   20  N   UNL     1     -48.461  60.638 -59.919  1.00  0.00    -0.083 NA
HETATM   21  C   UNL     1     -47.811  59.760 -59.157  1.00  0.00     0.201 A 
BRANCH  21  22
HETATM   22  N   UNL     1     -48.082  59.523 -57.865  1.00  0.00    -0.379 N 
HETATM   23  H   UNL     1     -48.938  59.881 -57.447  1.00  0.00     0.158 HD
HETATM   24  H   UNL     1     -47.404  59.160 -57.198  1.00  0.00     0.158 HD
ENDBRANCH  21  22
ENDBRANCH   7  17
ENDBRANCH   1   5
BRANCH   2  25
HETATM   25  N   UNL     1     -42.622  54.973 -56.046  1.00  0.00    -0.184 NA
HETATM   26  C   UNL     1     -43.064  54.382 -54.981  1.00  0.00     0.150 C 
BRANCH  26  27
HETATM   27  C   UNL     1     -42.126  53.831 -53.979  1.00  0.00    -0.016 A 
HETATM   28  C   UNL     1     -41.879  54.525 -52.790  1.00  0.00     0.023 A 
HETATM   29  C   UNL     1     -40.990  54.041 -51.812  1.00  0.00    -0.016 A 
HETATM   30  C   UNL     1     -40.342  52.813 -52.114  1.00  0.00     0.079 A 
HETATM   31  C   UNL     1     -40.569  52.083 -53.319  1.00  0.00    -0.016 A 
HETATM   32  C   UNL     1     -41.485  52.623 -54.238  1.00  0.00     0.023 A 
BRANCH  29  33
HETATM   33  C   UNL     1     -40.783  54.859 -50.509  1.00  0.00    -0.021 C 
HETATM   34  C   UNL     1     -41.817  54.533 -49.391  1.00  0.00     0.019 C 
HETATM   35  C   UNL     1     -39.406  54.553 -49.878  1.00  0.00     0.019 C 
HETATM   36  C   UNL     1     -40.951  56.372 -50.783  1.00  0.00     0.019 C 
ENDBRANCH  29  33
BRANCH  30  37
HETATM   37  O   UNL     1     -39.447  52.245 -51.250  1.00  0.00    -0.360 OA
HETATM   38  H   UNL     1     -38.557  52.231 -51.618  1.00  0.00     0.217 HD
ENDBRANCH  30  37
BRANCH  31  39
HETATM   39  C   UNL     1     -39.830  50.752 -53.635  1.00  0.00    -0.021 C 
HETATM   40  C   UNL     1     -38.395  51.025 -54.139  1.00  0.00     0.019 C 
HETATM   41  C   UNL     1     -39.676  49.820 -52.403  1.00  0.00     0.019 C 
HETATM   42  C   UNL     1     -40.617  49.936 -54.685  1.00  0.00     0.019 C 
ENDBRANCH  31  39
ENDBRANCH  26  27
ENDBRANCH   2  25
TORSDOF 12
ENDMDL
