MODEL 1
REMARK VINA RESULT:      -9.3      0.000      0.000
REMARK  2 active torsions:
REMARK  status: ('A' for Active; 'I' for Inactive)
REMARK    1  A    between atoms: C_4  and  C_18 
REMARK    2  A    between atoms: C_9  and  C_12 
ROOT
HETATM    1  O   UNL     1     -41.724  54.561 -49.166  1.00  0.00    -0.267 OA
HETATM    2  C   UNL     1     -41.649  55.166 -50.227  1.00  0.00     0.259 A 
HETATM    3  N   UNL     1     -42.003  56.484 -50.349  1.00  0.00    -0.309 N 
HETATM    4  C   UNL     1     -41.952  57.178 -51.531  1.00  0.00     0.137 A 
HETATM    5  N   UNL     1     -41.529  56.656 -52.639  1.00  0.00    -0.232 NA
HETATM    6  C   UNL     1     -41.143  55.305 -52.623  1.00  0.00     0.074 A 
HETATM    7  C   UNL     1     -40.716  54.714 -53.810  1.00  0.00     0.033 A 
HETATM    8  C   UNL     1     -40.325  53.368 -53.836  1.00  0.00     0.014 A 
HETATM    9  C   UNL     1     -40.350  52.590 -52.670  1.00  0.00    -0.022 A 
HETATM   10  C   UNL     1     -40.781  53.180 -51.475  1.00  0.00     0.031 A 
HETATM   11  C   UNL     1     -41.173  54.525 -51.465  1.00  0.00     0.061 A 
HETATM   12  H   UNL     1     -42.392  56.929 -49.526  1.00  0.00     0.170 HD
ENDROOT
BRANCH   4  13
HETATM   13  C   UNL     1     -42.369  58.643 -51.470  1.00  0.00     0.198 C 
HETATM   14  C   UNL     1     -41.532  59.373 -50.425  1.00  0.00     0.045 C 
HETATM   15  C   UNL     1     -41.915  60.846 -50.440  1.00  0.00     0.044 C 
HETATM   16  C   UNL     1     -43.408  61.005 -50.495  1.00  0.00    -0.025 A 
HETATM   17  C   UNL     1     -43.990  62.251 -50.227  1.00  0.00     0.010 A 
HETATM   18  C   UNL     1     -44.235  59.930 -50.844  1.00  0.00     0.076 A 
HETATM   19  C   UNL     1     -45.375  62.410 -50.282  1.00  0.00     0.001 A 
HETATM   20  C   UNL     1     -46.191  61.326 -50.606  1.00  0.00     0.003 A 
HETATM   21  C   UNL     1     -45.619  60.086 -50.883  1.00  0.00     0.037 A 
HETATM   22  O   UNL     1     -43.761  58.676 -51.127  1.00  0.00    -0.338 OA
ENDBRANCH   4  13
BRANCH   9  23
HETATM   23  C   UNL     1     -39.944  51.196 -52.715  1.00  0.00     0.010 A 
HETATM   24  C   UNL     1     -39.780  50.315 -53.810  1.00  0.00     0.152 A 
HETATM   25  N   UNL     1     -39.370  49.099 -53.439  1.00  0.00    -0.187 NA
HETATM   26  N   UNL     1     -39.270  49.196 -52.104  1.00  0.00    -0.289 N 
HETATM   27  H   UNL     1     -38.965  48.380 -51.583  1.00  0.00     0.188 HD
HETATM   28  C   UNL     1     -39.599  50.430 -51.622  1.00  0.00     0.123 A 
ENDBRANCH   9  23
TORSDOF 2
ENDMDL
MODEL 2
REMARK VINA RESULT:      -8.8      2.713      9.195
REMARK  2 active torsions:
REMARK  status: ('A' for Active; 'I' for Inactive)
REMARK    1  A    between atoms: C_4  and  C_18 
REMARK    2  A    between atoms: C_9  and  C_12 
ROOT
HETATM    1  O   UNL     1     -40.664  59.718 -51.777  1.00  0.00    -0.267 OA
HETATM    2  C   UNL     1     -41.386  58.739 -51.912  1.00  0.00     0.259 A 
HETATM    3  N   UNL     1     -40.930  57.554 -52.427  1.00  0.00    -0.309 N 
HETATM    4  C   UNL     1     -41.724  56.450 -52.612  1.00  0.00     0.137 A 
HETATM    5  N   UNL     1     -42.977  56.419 -52.282  1.00  0.00    -0.232 NA
HETATM    6  C   UNL     1     -43.545  57.586 -51.746  1.00  0.00     0.074 A 
HETATM    7  C   UNL     1     -44.898  57.585 -51.415  1.00  0.00     0.033 A 
HETATM    8  C   UNL     1     -45.502  58.731 -50.880  1.00  0.00     0.014 A 
HETATM    9  C   UNL     1     -44.760  59.900 -50.662  1.00  0.00    -0.022 A 
HETATM   10  C   UNL     1     -43.399  59.906 -50.996  1.00  0.00     0.031 A 
HETATM   11  C   UNL     1     -42.810  58.755 -51.534  1.00  0.00     0.061 A 
HETATM   12  H   UNL     1     -39.971  57.538 -52.752  1.00  0.00     0.170 HD
ENDROOT
BRANCH   4  13
HETATM   13  C   UNL     1     -41.037  55.215 -53.181  1.00  0.00     0.198 C 
HETATM   14  C   UNL     1     -41.877  54.632 -54.312  1.00  0.00     0.045 C 
HETATM   15  C   UNL     1     -41.130  53.449 -54.911  1.00  0.00     0.044 C 
HETATM   16  C   UNL     1     -40.566  52.575 -53.826  1.00  0.00    -0.025 A 
HETATM   17  C   UNL     1     -40.097  51.290 -54.135  1.00  0.00     0.010 A 
HETATM   18  C   UNL     1     -40.470  53.034 -52.507  1.00  0.00     0.076 A 
HETATM   19  C   UNL     1     -39.567  50.473 -53.136  1.00  0.00     0.001 A 
HETATM   20  C   UNL     1     -39.498  50.932 -51.821  1.00  0.00     0.003 A 
HETATM   21  C   UNL     1     -39.954  52.211 -51.507  1.00  0.00     0.037 A 
HETATM   22  O   UNL     1     -40.897  54.273 -52.108  1.00  0.00    -0.338 OA
ENDBRANCH   4  13
BRANCH   9  23
HETATM   23  C   UNL     1     -45.402  61.079 -50.110  1.00  0.00     0.010 A 
HETATM   24  C   UNL     1     -45.913  62.238 -50.743  1.00  0.00     0.152 A 
HETATM   25  N   UNL     1     -46.453  63.103 -49.881  1.00  0.00    -0.187 NA
HETATM   26  N   UNL     1     -46.290  62.504 -48.691  1.00  0.00    -0.289 N 
HETATM   27  H   UNL     1     -46.631  62.979 -47.862  1.00  0.00     0.188 HD
HETATM   28  C   UNL     1     -45.670  61.291 -48.773  1.00  0.00     0.123 A 
ENDBRANCH   9  23
TORSDOF 2
ENDMDL
MODEL 3
REMARK VINA RESULT:      -8.8      3.016      3.388
REMARK  2 active torsions:
REMARK  status: ('A' for Active; 'I' for Inactive)
REMARK    1  A    between atoms: C_4  and  C_18 
REMARK    2  A    between atoms: C_9  and  C_12 
ROOT
HETATM    1  O   UNL     1     -41.466  55.513 -50.461  1.00  0.00    -0.267 OA
HETATM    2  C   UNL     1     -41.341  55.827 -51.638  1.00  0.00     0.259 A 
HETATM    3  N   UNL     1     -41.604  57.092 -52.093  1.00  0.00    -0.309 N 
HETATM    4  C   UNL     1     -41.495  57.463 -53.410  1.00  0.00     0.137 A 
HETATM    5  N   UNL     1     -41.099  56.654 -54.341  1.00  0.00    -0.232 NA
HETATM    6  C   UNL     1     -40.805  55.329 -53.978  1.00  0.00     0.074 A 
HETATM    7  C   UNL     1     -40.409  54.433 -54.969  1.00  0.00     0.033 A 
HETATM    8  C   UNL     1     -40.109  53.102 -54.649  1.00  0.00     0.014 A 
HETATM    9  C   UNL     1     -40.197  52.644 -53.326  1.00  0.00    -0.022 A 
HETATM   10  C   UNL     1     -40.598  53.541 -52.328  1.00  0.00     0.031 A 
HETATM   11  C   UNL     1     -40.899  54.868 -52.664  1.00  0.00     0.061 A 
HETATM   12  H   UNL     1     -41.970  57.753 -51.418  1.00  0.00     0.170 HD
ENDROOT
BRANCH   4  13
HETATM   13  C   UNL     1     -41.812  58.920 -53.726  1.00  0.00     0.198 C 
HETATM   14  C   UNL     1     -43.162  59.296 -53.126  1.00  0.00     0.045 C 
HETATM   15  C   UNL     1     -43.416  60.774 -53.390  1.00  0.00     0.044 C 
HETATM   16  C   UNL     1     -43.067  61.125 -54.808  1.00  0.00    -0.025 A 
HETATM   17  C   UNL     1     -43.490  62.347 -55.351  1.00  0.00     0.010 A 
HETATM   18  C   UNL     1     -42.294  60.263 -55.596  1.00  0.00     0.076 A 
HETATM   19  C   UNL     1     -43.166  62.685 -56.666  1.00  0.00     0.001 A 
HETATM   20  C   UNL     1     -42.416  61.808 -57.448  1.00  0.00     0.003 A 
HETATM   21  C   UNL     1     -41.984  60.595 -56.913  1.00  0.00     0.037 A 
HETATM   22  O   UNL     1     -41.832  59.052 -55.154  1.00  0.00    -0.338 OA
ENDBRANCH   4  13
BRANCH   9  23
HETATM   23  C   UNL     1     -39.886  51.261 -53.012  1.00  0.00     0.010 A 
HETATM   24  C   UNL     1     -39.754  50.128 -53.850  1.00  0.00     0.152 A 
HETATM   25  N   UNL     1     -39.437  49.020 -53.175  1.00  0.00    -0.187 NA
HETATM   26  N   UNL     1     -39.366  49.437 -51.902  1.00  0.00    -0.289 N 
HETATM   27  H   UNL     1     -39.132  48.758 -51.185  1.00  0.00     0.188 HD
HETATM   28  C   UNL     1     -39.623  50.769 -51.751  1.00  0.00     0.123 A 
ENDBRANCH   9  23
TORSDOF 2
ENDMDL
MODEL 4
REMARK VINA RESULT:      -8.8      1.306      2.082
REMARK  2 active torsions:
REMARK  status: ('A' for Active; 'I' for Inactive)
REMARK    1  A    between atoms: C_4  and  C_18 
REMARK    2  A    between atoms: C_9  and  C_12 
ROOT
HETATM    1  O   UNL     1     -41.584  55.799 -55.446  1.00  0.00    -0.267 OA
HETATM    2  C   UNL     1     -41.561  56.000 -54.238  1.00  0.00     0.259 A 
HETATM    3  N   UNL     1     -41.892  57.210 -53.688  1.00  0.00    -0.309 N 
HETATM    4  C   UNL     1     -41.851  57.468 -52.341  1.00  0.00     0.137 A 
HETATM    5  N   UNL     1     -41.524  56.576 -51.461  1.00  0.00    -0.232 NA
HETATM    6  C   UNL     1     -41.163  55.299 -51.922  1.00  0.00     0.074 A 
HETATM    7  C   UNL     1     -40.777  54.333 -50.995  1.00  0.00     0.033 A 
HETATM    8  C   UNL     1     -40.406  53.049 -51.416  1.00  0.00     0.014 A 
HETATM    9  C   UNL     1     -40.421  52.706 -52.775  1.00  0.00    -0.022 A 
HETATM   10  C   UNL     1     -40.806  53.675 -53.710  1.00  0.00     0.031 A 
HETATM   11  C   UNL     1     -41.170  54.956 -53.276  1.00  0.00     0.061 A 
HETATM   12  H   UNL     1     -42.104  57.961 -54.333  1.00  0.00     0.170 HD
ENDROOT
BRANCH   4  13
HETATM   13  C   UNL     1     -42.273  58.868 -51.912  1.00  0.00     0.198 C 
HETATM   14  C   UNL     1     -41.466  59.299 -50.692  1.00  0.00     0.045 C 
HETATM   15  C   UNL     1     -41.853  60.727 -50.334  1.00  0.00     0.044 C 
HETATM   16  C   UNL     1     -43.344  60.900 -50.385  1.00  0.00    -0.025 A 
HETATM   17  C   UNL     1     -43.937  62.037 -49.817  1.00  0.00     0.010 A 
HETATM   18  C   UNL     1     -44.159  59.956 -51.022  1.00  0.00     0.076 A 
HETATM   19  C   UNL     1     -45.321  62.210 -49.864  1.00  0.00     0.001 A 
HETATM   20  C   UNL     1     -46.124  61.250 -50.479  1.00  0.00     0.003 A 
HETATM   21  C   UNL     1     -45.542  60.122 -51.054  1.00  0.00     0.037 A 
HETATM   22  O   UNL     1     -43.674  58.817 -51.608  1.00  0.00    -0.338 OA
ENDBRANCH   4  13
BRANCH   9  23
HETATM   23  C   UNL     1     -40.032  51.371 -53.194  1.00  0.00     0.010 A 
HETATM   24  C   UNL     1     -39.599  50.253 -52.441  1.00  0.00     0.152 A 
HETATM   25  N   UNL     1     -39.349  49.183 -53.200  1.00  0.00    -0.187 NA
HETATM   26  N   UNL     1     -39.619  49.610 -54.444  1.00  0.00    -0.289 N 
HETATM   27  H   UNL     1     -39.504  48.958 -55.213  1.00  0.00     0.188 HD
HETATM   28  C   UNL     1     -40.035  50.910 -54.494  1.00  0.00     0.123 A 
ENDBRANCH   9  23
TORSDOF 2
ENDMDL
MODEL 5
REMARK VINA RESULT:      -8.6      2.676      9.018
REMARK  2 active torsions:
REMARK  status: ('A' for Active; 'I' for Inactive)
REMARK    1  A    between atoms: C_4  and  C_18 
REMARK    2  A    between atoms: C_9  and  C_12 
ROOT
HETATM    1  O   UNL     1     -44.817  56.903 -50.614  1.00  0.00    -0.267 OA
HETATM    2  C   UNL     1     -43.751  56.641 -51.156  1.00  0.00     0.259 A 
HETATM    3  N   UNL     1     -43.221  55.378 -51.165  1.00  0.00    -0.309 N 
HETATM    4  C   UNL     1     -42.017  55.063 -51.744  1.00  0.00     0.137 A 
HETATM    5  N   UNL     1     -41.285  55.932 -52.367  1.00  0.00    -0.232 NA
HETATM    6  C   UNL     1     -41.739  57.261 -52.414  1.00  0.00     0.074 A 
HETATM    7  C   UNL     1     -40.952  58.218 -53.051  1.00  0.00     0.033 A 
HETATM    8  C   UNL     1     -41.367  59.554 -53.116  1.00  0.00     0.014 A 
HETATM    9  C   UNL     1     -42.584  59.957 -52.548  1.00  0.00    -0.022 A 
HETATM   10  C   UNL     1     -43.377  58.998 -51.904  1.00  0.00     0.031 A 
HETATM   11  C   UNL     1     -42.947  57.667 -51.843  1.00  0.00     0.061 A 
HETATM   12  H   UNL     1     -43.725  54.669 -50.646  1.00  0.00     0.170 HD
ENDROOT
BRANCH   4  13
HETATM   13  C   UNL     1     -41.598  53.600 -51.671  1.00  0.00     0.198 C 
HETATM   14  C   UNL     1     -40.517  53.426 -50.609  1.00  0.00     0.045 C 
HETATM   15  C   UNL     1     -40.174  51.947 -50.504  1.00  0.00     0.044 C 
HETATM   16  C   UNL     1     -40.033  51.338 -51.870  1.00  0.00    -0.025 A 
HETATM   17  C   UNL     1     -39.442  50.075 -52.016  1.00  0.00     0.010 A 
HETATM   18  C   UNL     1     -40.513  51.998 -53.008  1.00  0.00     0.076 A 
HETATM   19  C   UNL     1     -39.311  49.498 -53.280  1.00  0.00     0.001 A 
HETATM   20  C   UNL     1     -39.771  50.176 -54.408  1.00  0.00     0.003 A 
HETATM   21  C   UNL     1     -40.368  51.428 -54.271  1.00  0.00     0.037 A 
HETATM   22  O   UNL     1     -41.108  53.232 -52.967  1.00  0.00    -0.338 OA
ENDBRANCH   4  13
BRANCH   9  23
HETATM   23  C   UNL     1     -42.999  61.347 -52.622  1.00  0.00     0.010 A 
HETATM   24  C   UNL     1     -43.238  62.183 -53.738  1.00  0.00     0.152 A 
HETATM   25  N   UNL     1     -43.630  63.412 -53.391  1.00  0.00    -0.187 NA
HETATM   26  N   UNL     1     -43.643  63.368 -52.049  1.00  0.00    -0.289 N 
HETATM   27  H   UNL     1     -43.918  64.204 -51.543  1.00  0.00     0.188 HD
HETATM   28  C   UNL     1     -43.278  62.155 -51.540  1.00  0.00     0.123 A 
ENDBRANCH   9  23
TORSDOF 2
ENDMDL
MODEL 6
REMARK VINA RESULT:      -8.5      2.623      9.254
REMARK  2 active torsions:
REMARK  status: ('A' for Active; 'I' for Inactive)
REMARK    1  A    between atoms: C_4  and  C_18 
REMARK    2  A    between atoms: C_9  and  C_12 
ROOT
HETATM    1  O   UNL     1     -44.592  57.527 -53.534  1.00  0.00    -0.267 OA
HETATM    2  C   UNL     1     -43.492  57.339 -53.032  1.00  0.00     0.259 A 
HETATM    3  N   UNL     1     -42.741  56.226 -53.301  1.00  0.00    -0.309 N 
HETATM    4  C   UNL     1     -41.516  55.980 -52.733  1.00  0.00     0.137 A 
HETATM    5  N   UNL     1     -40.942  56.800 -51.911  1.00  0.00    -0.232 NA
HETATM    6  C   UNL     1     -41.631  57.974 -51.565  1.00  0.00     0.074 A 
HETATM    7  C   UNL     1     -41.047  58.855 -50.658  1.00  0.00     0.033 A 
HETATM    8  C   UNL     1     -41.703  60.035 -50.285  1.00  0.00     0.014 A 
HETATM    9  C   UNL     1     -42.958  60.359 -50.820  1.00  0.00    -0.022 A 
HETATM   10  C   UNL     1     -43.551  59.475 -51.731  1.00  0.00     0.031 A 
HETATM   11  C   UNL     1     -42.884  58.296 -52.091  1.00  0.00     0.061 A 
HETATM   12  H   UNL     1     -43.164  55.524 -53.896  1.00  0.00     0.170 HD
ENDROOT
BRANCH   4  13
HETATM   13  C   UNL     1     -40.819  54.696 -53.168  1.00  0.00     0.198 C 
HETATM   14  C   UNL     1     -41.586  54.057 -54.320  1.00  0.00     0.045 C 
HETATM   15  C   UNL     1     -40.826  52.823 -54.783  1.00  0.00     0.044 C 
HETATM   16  C   UNL     1     -40.367  52.011 -53.605  1.00  0.00    -0.025 A 
HETATM   17  C   UNL     1     -39.908  50.700 -53.795  1.00  0.00     0.010 A 
HETATM   18  C   UNL     1     -40.357  52.554 -52.315  1.00  0.00     0.076 A 
HETATM   19  C   UNL     1     -39.473  49.940 -52.708  1.00  0.00     0.001 A 
HETATM   20  C   UNL     1     -39.491  50.483 -51.424  1.00  0.00     0.003 A 
HETATM   21  C   UNL     1     -39.938  51.788 -51.228  1.00  0.00     0.037 A 
HETATM   22  O   UNL     1     -40.782  53.824 -52.029  1.00  0.00    -0.338 OA
ENDBRANCH   4  13
BRANCH   9  23
HETATM   23  C   UNL     1     -43.627  61.585 -50.422  1.00  0.00     0.010 A 
HETATM   24  C   UNL     1     -44.347  61.907 -49.247  1.00  0.00     0.152 A 
HETATM   25  N   UNL     1     -44.801  63.163 -49.246  1.00  0.00    -0.187 NA
HETATM   26  N   UNL     1     -44.375  63.652 -50.421  1.00  0.00    -0.289 N 
HETATM   27  H   UNL     1     -44.600  64.613 -50.653  1.00  0.00     0.188 HD
HETATM   28  C   UNL     1     -43.665  62.749 -51.160  1.00  0.00     0.123 A 
ENDBRANCH   9  23
TORSDOF 2
ENDMDL
MODEL 7
REMARK VINA RESULT:      -8.5      1.902      1.950
REMARK  2 active torsions:
REMARK  status: ('A' for Active; 'I' for Inactive)
REMARK    1  A    between atoms: C_4  and  C_18 
REMARK    2  A    between atoms: C_9  and  C_12 
ROOT
HETATM    1  O   UNL     1     -43.473  54.715 -51.233  1.00  0.00    -0.267 OA
HETATM    2  C   UNL     1     -42.981  55.331 -52.170  1.00  0.00     0.259 A 
HETATM    3  N   UNL     1     -43.326  56.625 -52.460  1.00  0.00    -0.309 N 
HETATM    4  C   UNL     1     -42.808  57.329 -53.518  1.00  0.00     0.137 A 
HETATM    5  N   UNL     1     -41.916  56.842 -54.322  1.00  0.00    -0.232 NA
HETATM    6  C   UNL     1     -41.496  55.518 -54.112  1.00  0.00     0.074 A 
HETATM    7  C   UNL     1     -40.562  54.962 -54.984  1.00  0.00     0.033 A 
HETATM    8  C   UNL     1     -40.120  53.644 -54.810  1.00  0.00     0.014 A 
HETATM    9  C   UNL     1     -40.602  52.858 -53.754  1.00  0.00    -0.022 A 
HETATM   10  C   UNL     1     -41.542  53.412 -52.877  1.00  0.00     0.031 A 
HETATM   11  C   UNL     1     -41.979  54.729 -53.066  1.00  0.00     0.061 A 
HETATM   12  H   UNL     1     -44.058  57.039 -51.897  1.00  0.00     0.170 HD
ENDROOT
BRANCH   4  13
HETATM   13  C   UNL     1     -43.296  58.765 -53.674  1.00  0.00     0.198 C 
HETATM   14  C   UNL     1     -42.205  59.731 -53.227  1.00  0.00     0.045 C 
HETATM   15  C   UNL     1     -42.690  61.154 -53.467  1.00  0.00     0.044 C 
HETATM   16  C   UNL     1     -44.111  61.313 -53.006  1.00  0.00    -0.025 A 
HETATM   17  C   UNL     1     -44.660  62.595 -52.861  1.00  0.00     0.010 A 
HETATM   18  C   UNL     1     -44.915  60.196 -52.747  1.00  0.00     0.076 A 
HETATM   19  C   UNL     1     -45.981  62.753 -52.440  1.00  0.00     0.001 A 
HETATM   20  C   UNL     1     -46.765  61.634 -52.161  1.00  0.00     0.003 A 
HETATM   21  C   UNL     1     -46.228  60.356 -52.311  1.00  0.00     0.037 A 
HETATM   22  O   UNL     1     -44.470  58.906 -52.863  1.00  0.00    -0.338 OA
ENDBRANCH   4  13
BRANCH   9  23
HETATM   23  C   UNL     1     -40.135  51.493 -53.589  1.00  0.00     0.010 A 
HETATM   24  C   UNL     1     -40.035  50.430 -54.519  1.00  0.00     0.152 A 
HETATM   25  N   UNL     1     -39.532  49.316 -53.980  1.00  0.00    -0.187 NA
HETATM   26  N   UNL     1     -39.308  49.660 -52.702  1.00  0.00    -0.289 N 
HETATM   27  H   UNL     1     -38.915  48.963 -52.077  1.00  0.00     0.188 HD
HETATM   28  C   UNL     1     -39.648  50.951 -52.418  1.00  0.00     0.123 A 
ENDBRANCH   9  23
TORSDOF 2
ENDMDL
MODEL 8
REMARK VINA RESULT:      -8.4      4.859      9.327
REMARK  2 active torsions:
REMARK  status: ('A' for Active; 'I' for Inactive)
REMARK    1  A    between atoms: C_4  and  C_18 
REMARK    2  A    between atoms: C_9  and  C_12 
ROOT
HETATM    1  O   UNL     1     -41.824  58.686 -54.411  1.00  0.00    -0.267 OA
HETATM    2  C   UNL     1     -42.000  57.564 -54.868  1.00  0.00     0.259 A 
HETATM    3  N   UNL     1     -41.748  56.428 -54.144  1.00  0.00    -0.309 N 
HETATM    4  C   UNL     1     -41.913  55.160 -54.641  1.00  0.00     0.137 A 
HETATM    5  N   UNL     1     -42.357  54.921 -55.835  1.00  0.00    -0.232 NA
HETATM    6  C   UNL     1     -42.643  56.020 -56.661  1.00  0.00     0.074 A 
HETATM    7  C   UNL     1     -43.090  55.786 -57.960  1.00  0.00     0.033 A 
HETATM    8  C   UNL     1     -43.385  56.856 -58.816  1.00  0.00     0.014 A 
HETATM    9  C   UNL     1     -43.241  58.182 -58.385  1.00  0.00    -0.022 A 
HETATM   10  C   UNL     1     -42.789  58.421 -57.081  1.00  0.00     0.031 A 
HETATM   11  C   UNL     1     -42.494  57.342 -56.237  1.00  0.00     0.061 A 
HETATM   12  H   UNL     1     -41.348  56.554 -53.223  1.00  0.00     0.170 HD
ENDROOT
BRANCH   4  13
HETATM   13  C   UNL     1     -41.600  54.016 -53.683  1.00  0.00     0.198 C 
HETATM   14  C   UNL     1     -40.686  54.514 -52.568  1.00  0.00     0.045 C 
HETATM   15  C   UNL     1     -40.454  53.374 -51.586  1.00  0.00     0.044 C 
HETATM   16  C   UNL     1     -40.167  52.094 -52.319  1.00  0.00    -0.025 A 
HETATM   17  C   UNL     1     -39.642  50.994 -51.627  1.00  0.00     0.010 A 
HETATM   18  C   UNL     1     -40.446  51.967 -53.685  1.00  0.00     0.076 A 
HETATM   19  C   UNL     1     -39.377  49.799 -52.297  1.00  0.00     0.001 A 
HETATM   20  C   UNL     1     -39.636  49.692 -53.664  1.00  0.00     0.003 A 
HETATM   21  C   UNL     1     -40.166  50.779 -54.357  1.00  0.00     0.037 A 
HETATM   22  O   UNL     1     -40.962  52.983 -54.446  1.00  0.00    -0.338 OA
ENDBRANCH   4  13
BRANCH   9  23
HETATM   23  C   UNL     1     -43.547  59.279 -59.286  1.00  0.00     0.010 A 
HETATM   24  C   UNL     1     -43.952  59.278 -60.642  1.00  0.00     0.152 A 
HETATM   25  N   UNL     1     -44.158  60.507 -61.122  1.00  0.00    -0.187 NA
HETATM   26  N   UNL     1     -43.886  61.302 -60.075  1.00  0.00    -0.289 N 
HETATM   27  H   UNL     1     -43.976  62.305 -60.197  1.00  0.00     0.188 HD
HETATM   28  C   UNL     1     -43.519  60.617 -58.953  1.00  0.00     0.123 A 
ENDBRANCH   9  23
TORSDOF 2
ENDMDL
MODEL 9
REMARK VINA RESULT:      -8.4     17.072     18.909
REMARK  2 active torsions:
REMARK  status: ('A' for Active; 'I' for Inactive)
REMARK    1  A    between atoms: C_4  and  C_18 
REMARK    2  A    between atoms: C_9  and  C_12 
ROOT
HETATM    1  O   UNL     1     -32.287  40.692 -55.972  1.00  0.00    -0.267 OA
HETATM    2  C   UNL     1     -33.181  40.695 -55.135  1.00  0.00     0.259 A 
HETATM    3  N   UNL     1     -32.935  40.541 -53.796  1.00  0.00    -0.309 N 
HETATM    4  C   UNL     1     -33.920  40.515 -52.841  1.00  0.00     0.137 A 
HETATM    5  N   UNL     1     -35.176  40.669 -53.118  1.00  0.00    -0.232 NA
HETATM    6  C   UNL     1     -35.536  40.832 -54.466  1.00  0.00     0.074 A 
HETATM    7  C   UNL     1     -36.884  40.967 -54.791  1.00  0.00     0.033 A 
HETATM    8  C   UNL     1     -37.285  41.129 -56.123  1.00  0.00     0.014 A 
HETATM    9  C   UNL     1     -36.340  41.164 -57.159  1.00  0.00    -0.022 A 
HETATM   10  C   UNL     1     -34.983  41.026 -56.837  1.00  0.00     0.031 A 
HETATM   11  C   UNL     1     -34.598  40.861 -55.500  1.00  0.00     0.061 A 
HETATM   12  H   UNL     1     -31.975  40.363 -53.527  1.00  0.00     0.170 HD
ENDROOT
BRANCH   4  13
HETATM   13  C   UNL     1     -33.454  40.353 -51.399  1.00  0.00     0.198 C 
HETATM   14  C   UNL     1     -31.993  39.917 -51.375  1.00  0.00     0.045 C 
HETATM   15  C   UNL     1     -31.534  39.840 -49.926  1.00  0.00     0.044 C 
HETATM   16  C   UNL     1     -32.568  39.153 -49.080  1.00  0.00    -0.025 A 
HETATM   17  C   UNL     1     -32.238  38.714 -47.789  1.00  0.00     0.010 A 
HETATM   18  C   UNL     1     -33.875  38.968 -49.546  1.00  0.00     0.076 A 
HETATM   19  C   UNL     1     -33.193  38.081 -46.993  1.00  0.00     0.001 A 
HETATM   20  C   UNL     1     -34.485  37.881 -47.477  1.00  0.00     0.003 A 
HETATM   21  C   UNL     1     -34.823  38.321 -48.756  1.00  0.00     0.037 A 
HETATM   22  O   UNL     1     -34.294  39.365 -50.789  1.00  0.00    -0.338 OA
ENDBRANCH   4  13
BRANCH   9  23
HETATM   23  C   UNL     1     -36.771  41.330 -58.535  1.00  0.00     0.010 A 
HETATM   24  C   UNL     1     -37.141  42.490 -59.256  1.00  0.00     0.152 A 
HETATM   25  N   UNL     1     -37.463  42.230 -60.526  1.00  0.00    -0.187 NA
HETATM   26  N   UNL     1     -37.302  40.901 -60.624  1.00  0.00    -0.289 N 
HETATM   27  H   UNL     1     -37.490  40.458 -61.518  1.00  0.00     0.188 HD
HETATM   28  C   UNL     1     -36.887  40.316 -59.463  1.00  0.00     0.123 A 
ENDBRANCH   9  23
TORSDOF 2
ENDMDL
MODEL 10
REMARK VINA RESULT:      -8.4      4.354      5.198
REMARK  2 active torsions:
REMARK  status: ('A' for Active; 'I' for Inactive)
REMARK    1  A    between atoms: C_4  and  C_18 
REMARK    2  A    between atoms: C_9  and  C_12 
ROOT
HETATM    1  O   UNL     1     -43.312  55.259 -51.860  1.00  0.00    -0.267 OA
HETATM    2  C   UNL     1     -42.775  55.413 -52.949  1.00  0.00     0.259 A 
HETATM    3  N   UNL     1     -43.075  56.465 -53.774  1.00  0.00    -0.309 N 
HETATM    4  C   UNL     1     -42.506  56.646 -55.010  1.00  0.00     0.137 A 
HETATM    5  N   UNL     1     -41.604  55.853 -55.496  1.00  0.00    -0.232 NA
HETATM    6  C   UNL     1     -41.227  54.739 -54.728  1.00  0.00     0.074 A 
HETATM    7  C   UNL     1     -40.283  53.854 -55.245  1.00  0.00     0.033 A 
HETATM    8  C   UNL     1     -39.883  52.729 -54.511  1.00  0.00     0.014 A 
HETATM    9  C   UNL     1     -40.418  52.472 -53.241  1.00  0.00    -0.022 A 
HETATM   10  C   UNL     1     -41.369  53.358 -52.719  1.00  0.00     0.031 A 
HETATM   11  C   UNL     1     -41.763  54.476 -53.465  1.00  0.00     0.061 A 
HETATM   12  H   UNL     1     -43.812  57.088 -53.469  1.00  0.00     0.170 HD
ENDROOT
BRANCH   4  13
HETATM   13  C   UNL     1     -42.949  57.886 -55.779  1.00  0.00     0.198 C 
HETATM   14  C   UNL     1     -44.472  57.944 -55.829  1.00  0.00     0.045 C 
HETATM   15  C   UNL     1     -44.885  59.229 -56.532  1.00  0.00     0.044 C 
HETATM   16  C   UNL     1     -44.055  59.448 -57.765  1.00  0.00    -0.025 A 
HETATM   17  C   UNL     1     -44.449  60.400 -58.715  1.00  0.00     0.010 A 
HETATM   18  C   UNL     1     -42.866  58.736 -57.970  1.00  0.00     0.076 A 
HETATM   19  C   UNL     1     -43.681  60.615 -59.860  1.00  0.00     0.001 A 
HETATM   20  C   UNL     1     -42.512  59.883 -60.065  1.00  0.00     0.003 A 
HETATM   21  C   UNL     1     -42.108  58.941 -59.121  1.00  0.00     0.037 A 
HETATM   22  O   UNL     1     -42.396  57.789 -57.098  1.00  0.00    -0.338 OA
ENDBRANCH   4  13
BRANCH   9  23
HETATM   23  C   UNL     1     -39.994  51.301 -52.495  1.00  0.00     0.010 A 
HETATM   24  C   UNL     1     -39.762  51.119 -51.110  1.00  0.00     0.152 A 
HETATM   25  N   UNL     1     -39.396  49.871 -50.806  1.00  0.00    -0.187 NA
HETATM   26  N   UNL     1     -39.389  49.248 -51.995  1.00  0.00    -0.289 N 
HETATM   27  H   UNL     1     -39.138  48.265 -52.022  1.00  0.00     0.188 HD
HETATM   28  C   UNL     1     -39.743  50.057 -53.036  1.00  0.00     0.123 A 
ENDBRANCH   9  23
TORSDOF 2
ENDMDL
