MODEL 1
REMARK VINA RESULT:      -7.5      0.000      0.000
REMARK  3 active torsions:
REMARK  status: ('A' for Active; 'I' for Inactive)
REMARK       I    between atoms: C_2  and  N_3 
REMARK    1  A    between atoms: N_3  and  C_4 
REMARK    2  A    between atoms: C_9  and  N_10 
REMARK       I    between atoms: N_10  and  C_11 
REMARK    3  A    between atoms: C_11  and  C_12 
ROOT
HETATM    1  C   UNL     1     -43.891  56.596 -54.756  1.00  0.00     0.156 A 
HETATM    2  N   UNL     1     -44.533  57.541 -55.495  1.00  0.00    -0.241 NA
HETATM    3  C   UNL     1     -44.288  57.593 -56.819  1.00  0.00     0.119 A 
HETATM    4  C   UNL     1     -43.421  56.738 -57.460  1.00  0.00     0.022 A 
HETATM    5  C   UNL     1     -42.766  55.776 -56.697  1.00  0.00     0.035 A 
HETATM    6  C   UNL     1     -42.977  55.680 -55.314  1.00  0.00     0.081 A 
ENDROOT
BRANCH   6   7
HETATM    7  N   UNL     1     -42.312  54.693 -54.544  1.00  0.00    -0.320 N 
HETATM    8  C   UNL     1     -40.951  54.528 -54.362  1.00  0.00     0.256 C 
HETATM    9  O   UNL     1     -40.066  55.279 -54.759  1.00  0.00    -0.267 OA
HETATM   10  H   UNL     1     -42.923  54.081 -54.006  1.00  0.00     0.169 HD
BRANCH   8  11
HETATM   11  C   UNL     1     -40.538  53.332 -53.568  1.00  0.00     0.032 A 
HETATM   12  C   UNL     1     -40.183  52.117 -54.171  1.00  0.00     0.018 A 
HETATM   13  C   UNL     1     -39.775  51.035 -53.383  1.00  0.00     0.025 A 
HETATM   14  C   UNL     1     -39.708  51.169 -51.998  1.00  0.00     0.034 A 
HETATM   15 CL   UNL     1     -39.197  49.837 -51.035  1.00  0.00    -0.084 Cl
HETATM   16  C   UNL     1     -40.041  52.377 -51.388  1.00  0.00     0.025 A 
HETATM   17  C   UNL     1     -40.452  53.457 -52.173  1.00  0.00     0.018 A 
ENDBRANCH   8  11
ENDBRANCH   6   7
BRANCH   1  18
HETATM   18  N   UNL     1     -44.296  56.730 -53.420  1.00  0.00    -0.310 N 
HETATM   19  C   UNL     1     -43.603  56.871 -52.253  1.00  0.00     0.219 C 
HETATM   20  C   UNL     1     -44.496  56.989 -51.044  1.00  0.00     0.117 C 
HETATM   21  O   UNL     1     -42.382  56.875 -52.130  1.00  0.00    -0.274 OA
HETATM   22  H   UNL     1     -45.307  56.691 -53.373  1.00  0.00     0.170 HD
ENDBRANCH   1  18
TORSDOF 3
ENDMDL
MODEL 2
REMARK VINA RESULT:      -7.5      2.019      2.398
REMARK  3 active torsions:
REMARK  status: ('A' for Active; 'I' for Inactive)
REMARK       I    between atoms: C_2  and  N_3 
REMARK    1  A    between atoms: N_3  and  C_4 
REMARK    2  A    between atoms: C_9  and  N_10 
REMARK       I    between atoms: N_10  and  C_11 
REMARK    3  A    between atoms: C_11  and  C_12 
ROOT
HETATM    1  C   UNL     1     -42.813  57.939 -52.939  1.00  0.00     0.156 A 
HETATM    2  N   UNL     1     -43.516  59.040 -53.318  1.00  0.00    -0.241 NA
HETATM    3  C   UNL     1     -44.537  58.881 -54.182  1.00  0.00     0.119 A 
HETATM    4  C   UNL     1     -44.905  57.660 -54.699  1.00  0.00     0.022 A 
HETATM    5  C   UNL     1     -44.180  56.538 -54.309  1.00  0.00     0.035 A 
HETATM    6  C   UNL     1     -43.102  56.645 -53.418  1.00  0.00     0.081 A 
ENDROOT
BRANCH   6   7
HETATM    7  N   UNL     1     -42.372  55.498 -53.019  1.00  0.00    -0.320 N 
HETATM    8  C   UNL     1     -41.165  55.040 -53.516  1.00  0.00     0.256 C 
HETATM    9  O   UNL     1     -40.450  55.609 -54.334  1.00  0.00    -0.267 OA
HETATM   10  H   UNL     1     -42.756  54.998 -52.219  1.00  0.00     0.169 HD
BRANCH   8  11
HETATM   11  C   UNL     1     -40.680  53.740 -52.962  1.00  0.00     0.032 A 
HETATM   12  C   UNL     1     -40.245  52.690 -53.782  1.00  0.00     0.018 A 
HETATM   13  C   UNL     1     -39.772  51.503 -53.212  1.00  0.00     0.025 A 
HETATM   14  C   UNL     1     -39.722  51.368 -51.826  1.00  0.00     0.034 A 
HETATM   15 CL   UNL     1     -39.132  49.909 -51.130  1.00  0.00    -0.084 Cl
HETATM   16  C   UNL     1     -40.135  52.411 -50.999  1.00  0.00     0.025 A 
HETATM   17  C   UNL     1     -40.609  53.597 -51.568  1.00  0.00     0.018 A 
ENDBRANCH   8  11
ENDBRANCH   6   7
BRANCH   1  18
HETATM   18  N   UNL     1     -41.809  58.342 -52.046  1.00  0.00    -0.310 N 
HETATM   19  C   UNL     1     -40.568  58.879 -52.232  1.00  0.00     0.219 C 
HETATM   20  C   UNL     1     -39.845  59.159 -50.938  1.00  0.00     0.117 C 
HETATM   21  O   UNL     1     -40.028  59.103 -53.310  1.00  0.00    -0.274 OA
HETATM   22  H   UNL     1     -42.113  58.159 -51.098  1.00  0.00     0.170 HD
ENDBRANCH   1  18
TORSDOF 3
ENDMDL
MODEL 3
REMARK VINA RESULT:      -7.2      2.397      4.011
REMARK  3 active torsions:
REMARK  status: ('A' for Active; 'I' for Inactive)
REMARK       I    between atoms: C_2  and  N_3 
REMARK    1  A    between atoms: N_3  and  C_4 
REMARK    2  A    between atoms: C_9  and  N_10 
REMARK       I    between atoms: N_10  and  C_11 
REMARK    3  A    between atoms: C_11  and  C_12 
ROOT
HETATM    1  C   UNL     1     -42.538  58.163 -51.939  1.00  0.00     0.156 A 
HETATM    2  N   UNL     1     -42.813  59.409 -51.467  1.00  0.00    -0.241 NA
HETATM    3  C   UNL     1     -41.949  59.968 -50.597  1.00  0.00     0.119 A 
HETATM    4  C   UNL     1     -40.804  59.341 -50.163  1.00  0.00     0.022 A 
HETATM    5  C   UNL     1     -40.530  58.066 -50.648  1.00  0.00     0.035 A 
HETATM    6  C   UNL     1     -41.397  57.432 -51.549  1.00  0.00     0.081 A 
ENDROOT
BRANCH   6   7
HETATM    7  N   UNL     1     -41.109  56.136 -52.045  1.00  0.00    -0.320 N 
HETATM    8  C   UNL     1     -41.290  54.920 -51.410  1.00  0.00     0.256 C 
HETATM    9  O   UNL     1     -41.833  54.738 -50.325  1.00  0.00    -0.267 OA
HETATM   10  H   UNL     1     -40.800  56.103 -53.015  1.00  0.00     0.169 HD
BRANCH   8  11
HETATM   11  C   UNL     1     -40.802  53.717 -52.149  1.00  0.00     0.032 A 
HETATM   12  C   UNL     1     -39.977  52.754 -51.553  1.00  0.00     0.018 A 
HETATM   13  C   UNL     1     -39.572  51.629 -52.280  1.00  0.00     0.025 A 
HETATM   14  C   UNL     1     -40.000  51.459 -53.595  1.00  0.00     0.034 A 
HETATM   15 CL   UNL     1     -39.506  50.070 -54.483  1.00  0.00    -0.084 Cl
HETATM   16  C   UNL     1     -40.835  52.401 -54.194  1.00  0.00     0.025 A 
HETATM   17  C   UNL     1     -41.238  53.526 -53.469  1.00  0.00     0.018 A 
ENDBRANCH   8  11
ENDBRANCH   6   7
BRANCH   1  18
HETATM   18  N   UNL     1     -43.563  57.787 -52.819  1.00  0.00    -0.310 N 
HETATM   19  C   UNL     1     -43.555  57.211 -54.056  1.00  0.00     0.219 C 
HETATM   20  C   UNL     1     -44.939  56.988 -54.614  1.00  0.00     0.117 C 
HETATM   21  O   UNL     1     -42.563  56.915 -54.712  1.00  0.00    -0.274 OA
HETATM   22  H   UNL     1     -44.457  58.030 -52.411  1.00  0.00     0.170 HD
ENDBRANCH   1  18
TORSDOF 3
ENDMDL
MODEL 4
REMARK VINA RESULT:      -7.2      1.404      3.226
REMARK  3 active torsions:
REMARK  status: ('A' for Active; 'I' for Inactive)
REMARK       I    between atoms: C_2  and  N_3 
REMARK    1  A    between atoms: N_3  and  C_4 
REMARK    2  A    between atoms: C_9  and  N_10 
REMARK       I    between atoms: N_10  and  C_11 
REMARK    3  A    between atoms: C_11  and  C_12 
ROOT
HETATM    1  C   UNL     1     -43.961  56.862 -54.282  1.00  0.00     0.156 A 
HETATM    2  N   UNL     1     -44.722  57.986 -54.378  1.00  0.00    -0.241 NA
HETATM    3  C   UNL     1     -44.957  58.697 -53.258  1.00  0.00     0.119 A 
HETATM    4  C   UNL     1     -44.465  58.344 -52.023  1.00  0.00     0.022 A 
HETATM    5  C   UNL     1     -43.689  57.192 -51.931  1.00  0.00     0.035 A 
HETATM    6  C   UNL     1     -43.418  56.408 -53.062  1.00  0.00     0.081 A 
ENDROOT
BRANCH   6   7
HETATM    7  N   UNL     1     -42.621  55.240 -52.964  1.00  0.00    -0.320 N 
HETATM    8  C   UNL     1     -41.336  55.043 -53.435  1.00  0.00     0.256 C 
HETATM    9  O   UNL     1     -40.608  55.889 -53.942  1.00  0.00    -0.267 OA
HETATM   10  H   UNL     1     -43.027  54.486 -52.413  1.00  0.00     0.169 HD
BRANCH   8  11
HETATM   11  C   UNL     1     -40.783  53.666 -53.267  1.00  0.00     0.032 A 
HETATM   12  C   UNL     1     -40.284  53.202 -52.042  1.00  0.00     0.018 A 
HETATM   13  C   UNL     1     -39.804  51.892 -51.930  1.00  0.00     0.025 A 
HETATM   14  C   UNL     1     -39.833  51.043 -53.034  1.00  0.00     0.034 A 
HETATM   15 CL   UNL     1     -39.249  49.431 -52.888  1.00  0.00    -0.084 Cl
HETATM   16  C   UNL     1     -40.343  51.487 -54.253  1.00  0.00     0.025 A 
HETATM   17  C   UNL     1     -40.820  52.795 -54.367  1.00  0.00     0.018 A 
ENDBRANCH   8  11
ENDBRANCH   6   7
BRANCH   1  18
HETATM   18  N   UNL     1     -43.852  56.291 -55.558  1.00  0.00    -0.310 N 
HETATM   19  C   UNL     1     -43.002  56.514 -56.602  1.00  0.00     0.219 C 
HETATM   20  C   UNL     1     -43.278  55.627 -57.791  1.00  0.00     0.117 C 
HETATM   21  O   UNL     1     -42.111  57.355 -56.645  1.00  0.00    -0.274 OA
HETATM   22  H   UNL     1     -44.581  55.598 -55.676  1.00  0.00     0.170 HD
ENDBRANCH   1  18
TORSDOF 3
ENDMDL
MODEL 5
REMARK VINA RESULT:      -7.2      2.955      4.235
REMARK  3 active torsions:
REMARK  status: ('A' for Active; 'I' for Inactive)
REMARK       I    between atoms: C_2  and  N_3 
REMARK    1  A    between atoms: N_3  and  C_4 
REMARK    2  A    between atoms: C_9  and  N_10 
REMARK       I    between atoms: N_10  and  C_11 
REMARK    3  A    between atoms: C_11  and  C_12 
ROOT
HETATM    1  C   UNL     1     -42.143  58.926 -51.034  1.00  0.00     0.156 A 
HETATM    2  N   UNL     1     -42.780  60.076 -50.684  1.00  0.00    -0.241 NA
HETATM    3  C   UNL     1     -44.097  60.183 -50.950  1.00  0.00     0.119 A 
HETATM    4  C   UNL     1     -44.828  59.187 -51.555  1.00  0.00     0.022 A 
HETATM    5  C   UNL     1     -44.169  58.014 -51.911  1.00  0.00     0.035 A 
HETATM    6  C   UNL     1     -42.797  57.850 -51.667  1.00  0.00     0.081 A 
ENDROOT
BRANCH   6   7
HETATM    7  N   UNL     1     -42.133  56.651 -52.027  1.00  0.00    -0.320 N 
HETATM    8  C   UNL     1     -41.563  56.325 -53.244  1.00  0.00     0.256 C 
HETATM    9  O   UNL     1     -41.440  57.065 -54.214  1.00  0.00    -0.267 OA
HETATM   10  H   UNL     1     -42.002  55.986 -51.267  1.00  0.00     0.169 HD
BRANCH   8  11
HETATM   11  C   UNL     1     -41.013  54.940 -53.357  1.00  0.00     0.032 A 
HETATM   12  C   UNL     1     -40.887  54.090 -52.250  1.00  0.00     0.018 A 
HETATM   13  C   UNL     1     -40.393  52.791 -52.414  1.00  0.00     0.025 A 
HETATM   14  C   UNL     1     -40.040  52.336 -53.683  1.00  0.00     0.034 A 
HETATM   15 CL   UNL     1     -39.442  50.735 -53.881  1.00  0.00    -0.084 Cl
HETATM   16  C   UNL     1     -40.178  53.165 -54.795  1.00  0.00     0.025 A 
HETATM   17  C   UNL     1     -40.668  54.464 -54.631  1.00  0.00     0.018 A 
ENDBRANCH   8  11
ENDBRANCH   6   7
BRANCH   1  18
HETATM   18  N   UNL     1     -40.794  59.040 -50.666  1.00  0.00    -0.310 N 
HETATM   19  C   UNL     1     -39.649  59.206 -51.390  1.00  0.00     0.219 C 
HETATM   20  C   UNL     1     -38.411  59.285 -50.532  1.00  0.00     0.117 C 
HETATM   21  O   UNL     1     -39.564  59.259 -52.613  1.00  0.00    -0.274 OA
HETATM   22  H   UNL     1     -40.715  58.959 -49.660  1.00  0.00     0.170 HD
ENDBRANCH   1  18
TORSDOF 3
ENDMDL
MODEL 6
REMARK VINA RESULT:      -7.1     14.693     16.598
REMARK  3 active torsions:
REMARK  status: ('A' for Active; 'I' for Inactive)
REMARK       I    between atoms: C_2  and  N_3 
REMARK    1  A    between atoms: N_3  and  C_4 
REMARK    2  A    between atoms: C_9  and  N_10 
REMARK       I    between atoms: N_10  and  C_11 
REMARK    3  A    between atoms: C_11  and  C_12 
ROOT
HETATM    1  C   UNL     1     -34.523  40.061 -51.099  1.00  0.00     0.156 A 
HETATM    2  N   UNL     1     -33.991  39.707 -49.898  1.00  0.00    -0.241 NA
HETATM    3  C   UNL     1     -32.654  39.775 -49.746  1.00  0.00     0.119 A 
HETATM    4  C   UNL     1     -31.801  40.185 -50.745  1.00  0.00     0.022 A 
HETATM    5  C   UNL     1     -32.352  40.543 -51.972  1.00  0.00     0.035 A 
HETATM    6  C   UNL     1     -33.736  40.484 -52.190  1.00  0.00     0.081 A 
ENDROOT
BRANCH   6   7
HETATM    7  N   UNL     1     -34.292  40.856 -53.439  1.00  0.00    -0.320 N 
HETATM    8  C   UNL     1     -35.235  41.836 -53.695  1.00  0.00     0.256 C 
HETATM    9  O   UNL     1     -35.690  42.638 -52.886  1.00  0.00    -0.267 OA
HETATM   10  H   UNL     1     -33.888  40.389 -54.249  1.00  0.00     0.169 HD
BRANCH   8  11
HETATM   11  C   UNL     1     -35.704  41.938 -55.109  1.00  0.00     0.032 A 
HETATM   12  C   UNL     1     -34.817  42.063 -56.187  1.00  0.00     0.018 A 
HETATM   13  C   UNL     1     -35.307  42.125 -57.497  1.00  0.00     0.025 A 
HETATM   14  C   UNL     1     -36.679  42.048 -57.731  1.00  0.00     0.034 A 
HETATM   15 CL   UNL     1     -37.275  42.117 -59.344  1.00  0.00    -0.084 Cl
HETATM   16  C   UNL     1     -37.570  41.906 -56.669  1.00  0.00     0.025 A 
HETATM   17  C   UNL     1     -37.082  41.847 -55.360  1.00  0.00     0.018 A 
ENDBRANCH   8  11
ENDBRANCH   6   7
BRANCH   1  18
HETATM   18  N   UNL     1     -35.916  39.912 -51.026  1.00  0.00    -0.310 N 
HETATM   19  C   UNL     1     -36.817  39.251 -51.809  1.00  0.00     0.219 C 
HETATM   20  C   UNL     1     -38.236  39.375 -51.312  1.00  0.00     0.117 C 
HETATM   21  O   UNL     1     -36.569  38.632 -52.838  1.00  0.00    -0.274 OA
HETATM   22  H   UNL     1     -36.265  40.429 -50.229  1.00  0.00     0.170 HD
ENDBRANCH   1  18
TORSDOF 3
ENDMDL
MODEL 7
REMARK VINA RESULT:      -7.1      3.716      6.612
REMARK  3 active torsions:
REMARK  status: ('A' for Active; 'I' for Inactive)
REMARK       I    between atoms: C_2  and  N_3 
REMARK    1  A    between atoms: N_3  and  C_4 
REMARK    2  A    between atoms: C_9  and  N_10 
REMARK       I    between atoms: N_10  and  C_11 
REMARK    3  A    between atoms: C_11  and  C_12 
ROOT
HETATM    1  C   UNL     1     -40.370  52.596 -51.563  1.00  0.00     0.156 A 
HETATM    2  N   UNL     1     -39.608  51.472 -51.655  1.00  0.00    -0.241 NA
HETATM    3  C   UNL     1     -39.401  50.938 -52.874  1.00  0.00     0.119 A 
HETATM    4  C   UNL     1     -39.920  51.474 -54.030  1.00  0.00     0.022 A 
HETATM    5  C   UNL     1     -40.700  52.622 -53.928  1.00  0.00     0.035 A 
HETATM    6  C   UNL     1     -40.956  53.216 -52.684  1.00  0.00     0.081 A 
ENDROOT
BRANCH   6   7
HETATM    7  N   UNL     1     -41.745  54.389 -52.588  1.00  0.00    -0.320 N 
HETATM    8  C   UNL     1     -42.972  54.543 -51.967  1.00  0.00     0.256 C 
HETATM    9  O   UNL     1     -43.558  53.703 -51.293  1.00  0.00    -0.267 OA
HETATM   10  H   UNL     1     -41.313  55.233 -52.961  1.00  0.00     0.169 HD
BRANCH   8  11
HETATM   11  C   UNL     1     -43.615  55.884 -52.112  1.00  0.00     0.032 A 
HETATM   12  C   UNL     1     -44.091  56.610 -51.012  1.00  0.00     0.018 A 
HETATM   13  C   UNL     1     -44.658  57.876 -51.198  1.00  0.00     0.025 A 
HETATM   14  C   UNL     1     -44.738  58.421 -52.478  1.00  0.00     0.034 A 
HETATM   15 CL   UNL     1     -45.429  59.982 -52.700  1.00  0.00    -0.084 Cl
HETATM   16  C   UNL     1     -44.251  57.717 -53.578  1.00  0.00     0.025 A 
HETATM   17  C   UNL     1     -43.687  56.451 -53.393  1.00  0.00     0.018 A 
ENDBRANCH   8  11
ENDBRANCH   6   7
BRANCH   1  18
HETATM   18  N   UNL     1     -40.449  52.966 -50.212  1.00  0.00    -0.310 N 
HETATM   19  C   UNL     1     -40.278  54.158 -49.569  1.00  0.00     0.219 C 
HETATM   20  C   UNL     1     -40.479  54.059 -48.077  1.00  0.00     0.117 C 
HETATM   21  O   UNL     1     -39.961  55.223 -50.086  1.00  0.00    -0.274 OA
HETATM   22  H   UNL     1     -40.660  52.148 -49.654  1.00  0.00     0.170 HD
ENDBRANCH   1  18
TORSDOF 3
ENDMDL
MODEL 8
REMARK VINA RESULT:      -7.0      3.629      6.399
REMARK  3 active torsions:
REMARK  status: ('A' for Active; 'I' for Inactive)
REMARK       I    between atoms: C_2  and  N_3 
REMARK    1  A    between atoms: N_3  and  C_4 
REMARK    2  A    between atoms: C_9  and  N_10 
REMARK       I    between atoms: N_10  and  C_11 
REMARK    3  A    between atoms: C_11  and  C_12 
ROOT
HETATM    1  C   UNL     1     -39.824  52.006 -52.105  1.00  0.00     0.156 A 
HETATM    2  N   UNL     1     -39.502  50.712 -51.832  1.00  0.00    -0.241 NA
HETATM    3  C   UNL     1     -39.585  49.809 -52.829  1.00  0.00     0.119 A 
HETATM    4  C   UNL     1     -39.977  50.131 -54.108  1.00  0.00     0.022 A 
HETATM    5  C   UNL     1     -40.306  51.455 -54.379  1.00  0.00     0.035 A 
HETATM    6  C   UNL     1     -40.247  52.437 -53.379  1.00  0.00     0.081 A 
ENDROOT
BRANCH   6   7
HETATM    7  N   UNL     1     -40.577  53.785 -53.663  1.00  0.00    -0.320 N 
HETATM    8  C   UNL     1     -41.835  54.346 -53.792  1.00  0.00     0.256 C 
HETATM    9  O   UNL     1     -42.907  53.788 -53.582  1.00  0.00    -0.267 OA
HETATM   10  H   UNL     1     -39.785  54.425 -53.702  1.00  0.00     0.169 HD
BRANCH   8  11
HETATM   11  C   UNL     1     -41.871  55.785 -54.192  1.00  0.00     0.032 A 
HETATM   12  C   UNL     1     -42.602  56.238 -55.299  1.00  0.00     0.018 A 
HETATM   13  C   UNL     1     -42.628  57.601 -55.613  1.00  0.00     0.025 A 
HETATM   14  C   UNL     1     -41.936  58.512 -54.818  1.00  0.00     0.034 A 
HETATM   15 CL   UNL     1     -41.977  60.189 -55.205  1.00  0.00    -0.084 Cl
HETATM   16  C   UNL     1     -41.219  58.076 -53.705  1.00  0.00     0.025 A 
HETATM   17  C   UNL     1     -41.191  56.715 -53.391  1.00  0.00     0.018 A 
ENDBRANCH   8  11
ENDBRANCH   6   7
BRANCH   1  18
HETATM   18  N   UNL     1     -39.667  52.757 -50.931  1.00  0.00    -0.310 N 
HETATM   19  C   UNL     1     -40.528  53.524 -50.202  1.00  0.00     0.219 C 
HETATM   20  C   UNL     1     -39.887  54.141 -48.984  1.00  0.00     0.117 C 
HETATM   21  O   UNL     1     -41.702  53.756 -50.474  1.00  0.00    -0.274 OA
HETATM   22  H   UNL     1     -38.706  52.692 -50.620  1.00  0.00     0.170 HD
ENDBRANCH   1  18
TORSDOF 3
ENDMDL
MODEL 9
REMARK VINA RESULT:      -7.0      2.558      4.288
REMARK  3 active torsions:
REMARK  status: ('A' for Active; 'I' for Inactive)
REMARK       I    between atoms: C_2  and  N_3 
REMARK    1  A    between atoms: N_3  and  C_4 
REMARK    2  A    between atoms: C_9  and  N_10 
REMARK       I    between atoms: N_10  and  C_11 
REMARK    3  A    between atoms: C_11  and  C_12 
ROOT
HETATM    1  C   UNL     1     -43.503  57.488 -57.886  1.00  0.00     0.156 A 
HETATM    2  N   UNL     1     -43.997  58.539 -58.595  1.00  0.00    -0.241 NA
HETATM    3  C   UNL     1     -43.618  59.782 -58.243  1.00  0.00     0.119 A 
HETATM    4  C   UNL     1     -42.755  60.042 -57.203  1.00  0.00     0.022 A 
HETATM    5  C   UNL     1     -42.255  58.963 -56.481  1.00  0.00     0.035 A 
HETATM    6  C   UNL     1     -42.622  57.647 -56.797  1.00  0.00     0.081 A 
ENDROOT
BRANCH   6   7
HETATM    7  N   UNL     1     -42.104  56.551 -56.062  1.00  0.00    -0.320 N 
HETATM    8  C   UNL     1     -42.709  55.852 -55.033  1.00  0.00     0.256 C 
HETATM    9  O   UNL     1     -43.860  55.994 -54.634  1.00  0.00    -0.267 OA
HETATM   10  H   UNL     1     -41.206  56.198 -56.388  1.00  0.00     0.169 HD
BRANCH   8  11
HETATM   11  C   UNL     1     -41.876  54.799 -54.380  1.00  0.00     0.032 A 
HETATM   12  C   UNL     1     -42.049  54.430 -53.039  1.00  0.00     0.018 A 
HETATM   13  C   UNL     1     -41.262  53.415 -52.482  1.00  0.00     0.025 A 
HETATM   14  C   UNL     1     -40.313  52.761 -53.265  1.00  0.00     0.034 A 
HETATM   15 CL   UNL     1     -39.354  51.509 -52.577  1.00  0.00    -0.084 Cl
HETATM   16  C   UNL     1     -40.143  53.107 -54.605  1.00  0.00     0.025 A 
HETATM   17  C   UNL     1     -40.927  54.122 -55.161  1.00  0.00     0.018 A 
ENDBRANCH   8  11
ENDBRANCH   6   7
BRANCH   1  18
HETATM   18  N   UNL     1     -44.029  56.305 -58.425  1.00  0.00    -0.310 N 
HETATM   19  C   UNL     1     -43.719  55.576 -59.537  1.00  0.00     0.219 C 
HETATM   20  C   UNL     1     -44.577  54.346 -59.697  1.00  0.00     0.117 C 
HETATM   21  O   UNL     1     -42.869  55.857 -60.374  1.00  0.00    -0.274 OA
HETATM   22  H   UNL     1     -44.793  55.985 -57.842  1.00  0.00     0.170 HD
ENDBRANCH   1  18
TORSDOF 3
ENDMDL
MODEL 10
REMARK VINA RESULT:      -6.8      4.054      6.682
REMARK  3 active torsions:
REMARK  status: ('A' for Active; 'I' for Inactive)
REMARK       I    between atoms: C_2  and  N_3 
REMARK    1  A    between atoms: N_3  and  C_4 
REMARK    2  A    between atoms: C_9  and  N_10 
REMARK       I    between atoms: N_10  and  C_11 
REMARK    3  A    between atoms: C_11  and  C_12 
ROOT
HETATM    1  C   UNL     1     -40.201  53.373 -51.552  1.00  0.00     0.156 A 
HETATM    2  N   UNL     1     -39.798  52.128 -51.924  1.00  0.00    -0.241 NA
HETATM    3  C   UNL     1     -39.885  51.790 -53.225  1.00  0.00     0.119 A 
HETATM    4  C   UNL     1     -40.360  52.642 -54.195  1.00  0.00     0.022 A 
HETATM    5  C   UNL     1     -40.772  53.913 -53.807  1.00  0.00     0.035 A 
HETATM    6  C   UNL     1     -40.712  54.317 -52.465  1.00  0.00     0.081 A 
ENDROOT
BRANCH   6   7
HETATM    7  N   UNL     1     -41.127  55.615 -52.077  1.00  0.00    -0.320 N 
HETATM    8  C   UNL     1     -42.415  56.115 -52.015  1.00  0.00     0.256 C 
HETATM    9  O   UNL     1     -43.452  55.483 -52.190  1.00  0.00    -0.267 OA
HETATM   10  H   UNL     1     -40.384  56.222 -51.736  1.00  0.00     0.169 HD
BRANCH   8  11
HETATM   11  C   UNL     1     -42.538  57.561 -51.659  1.00  0.00     0.032 A 
HETATM   12  C   UNL     1     -43.724  58.282 -51.853  1.00  0.00     0.018 A 
HETATM   13  C   UNL     1     -43.798  59.628 -51.476  1.00  0.00     0.025 A 
HETATM   14  C   UNL     1     -42.694  60.249 -50.894  1.00  0.00     0.034 A 
HETATM   15 CL   UNL     1     -42.792  61.901 -50.424  1.00  0.00    -0.084 Cl
HETATM   16  C   UNL     1     -41.515  59.537 -50.680  1.00  0.00     0.025 A 
HETATM   17  C   UNL     1     -41.440  58.194 -51.059  1.00  0.00     0.018 A 
ENDBRANCH   8  11
ENDBRANCH   6   7
BRANCH   1  18
HETATM   18  N   UNL     1     -40.022  53.499 -50.166  1.00  0.00    -0.310 N 
HETATM   19  C   UNL     1     -40.849  53.910 -49.161  1.00  0.00     0.219 C 
HETATM   20  C   UNL     1     -40.196  53.864 -47.802  1.00  0.00     0.117 C 
HETATM   21  O   UNL     1     -41.999  54.317 -49.287  1.00  0.00    -0.274 OA
HETATM   22  H   UNL     1     -39.074  53.236 -49.927  1.00  0.00     0.170 HD
ENDBRANCH   1  18
TORSDOF 3
ENDMDL
