MODEL 1
REMARK VINA RESULT:      -9.1      0.000      0.000
REMARK  5 active torsions:
REMARK  status: ('A' for Active; 'I' for Inactive)
REMARK    1  A    between atoms: C_3  and  N_4 
REMARK       I    between atoms: N_4  and  C_5 
REMARK    2  A    between atoms: C_5  and  C_6 
REMARK    3  A    between atoms: C_14  and  C_15 
REMARK    4  A    between atoms: C_24  and  O_25 
REMARK    5  A    between atoms: C_27  and  O_28 
ROOT
HETATM    1  C   UNL     1     -42.174  55.286 -53.911  1.00  0.00     0.047 A 
HETATM    2  C   UNL     1     -41.913  56.028 -52.732  1.00  0.00     0.008 A 
HETATM    3  C   UNL     1     -41.052  55.415 -51.804  1.00  0.00     0.068 A 
HETATM    4  C   UNL     1     -40.718  56.091 -50.639  1.00  0.00     0.032 A 
HETATM    5  C   UNL     1     -41.232  57.354 -50.341  1.00  0.00     0.002 A 
HETATM    6  C   UNL     1     -42.118  57.955 -51.219  1.00  0.00     0.001 A 
HETATM    7  C   UNL     1     -42.462  57.298 -52.399  1.00  0.00     0.015 A 
HETATM    8  N   UNL     1     -40.548  54.184 -51.978  1.00  0.00    -0.248 NA
HETATM    9  C   UNL     1     -40.875  53.451 -53.071  1.00  0.00     0.068 A 
HETATM   10  C   UNL     1     -41.678  53.986 -54.064  1.00  0.00     0.050 A 
ENDROOT
BRANCH   1  11
HETATM   11  C   UNL     1     -43.022  55.807 -55.021  1.00  0.00     0.257 C 
HETATM   12  N   UNL     1     -42.344  56.059 -56.193  1.00  0.00    -0.322 N 
HETATM   13  H   UNL     1     -41.460  55.569 -56.288  1.00  0.00     0.169 HD
HETATM   14  O   UNL     1     -44.229  55.886 -54.837  1.00  0.00    -0.267 OA
BRANCH  12  15
HETATM   15  C   UNL     1     -42.692  56.889 -57.288  1.00  0.00     0.043 A 
HETATM   16  C   UNL     1     -42.591  58.290 -57.343  1.00  0.00    -0.032 A 
HETATM   17  C   UNL     1     -42.141  59.175 -56.213  1.00  0.00     0.050 C 
HETATM   18  C   UNL     1     -42.895  58.947 -58.556  1.00  0.00     0.048 A 
HETATM   19  C   UNL     1     -43.238  58.241 -59.713  1.00  0.00     0.102 A 
HETATM   20  C   UNL     1     -43.346  56.847 -59.658  1.00  0.00     0.103 A 
HETATM   21  C   UNL     1     -43.064  56.188 -58.455  1.00  0.00     0.069 A 
BRANCH  19  22
HETATM   22  O   UNL     1     -43.506  58.838 -60.920  1.00  0.00    -0.353 OA
HETATM   23  C   UNL     1     -44.455  59.898 -60.901  1.00  0.00     0.210 C 
ENDBRANCH  19  22
BRANCH  20  24
HETATM   24  O   UNL     1     -43.688  56.220 -60.830  1.00  0.00    -0.353 OA
HETATM   25  C   UNL     1     -44.841  55.392 -60.824  1.00  0.00     0.210 C 
ENDBRANCH  20  24
ENDBRANCH  12  15
ENDBRANCH   1  11
BRANCH   9  26
HETATM   26  C   UNL     1     -40.347  52.063 -53.087  1.00  0.00    -0.007 A 
HETATM   27  C   UNL     1     -39.894  51.460 -51.895  1.00  0.00     0.014 A 
HETATM   28  C   UNL     1     -39.414  50.147 -51.866  1.00  0.00     0.001 A 
HETATM   29  C   UNL     1     -39.372  49.397 -53.035  1.00  0.00     0.000 A 
HETATM   30  C   UNL     1     -39.804  49.965 -54.230  1.00  0.00     0.001 A 
HETATM   31  C   UNL     1     -40.282  51.281 -54.255  1.00  0.00     0.014 A 
ENDBRANCH   9  26
TORSDOF 5
ENDMDL
MODEL 2
REMARK VINA RESULT:      -8.8      0.937      2.111
REMARK  5 active torsions:
REMARK  status: ('A' for Active; 'I' for Inactive)
REMARK    1  A    between atoms: C_3  and  N_4 
REMARK       I    between atoms: N_4  and  C_5 
REMARK    2  A    between atoms: C_5  and  C_6 
REMARK    3  A    between atoms: C_14  and  C_15 
REMARK    4  A    between atoms: C_24  and  O_25 
REMARK    5  A    between atoms: C_27  and  O_28 
ROOT
HETATM    1  C   UNL     1     -42.198  55.598 -54.303  1.00  0.00     0.047 A 
HETATM    2  C   UNL     1     -41.995  56.356 -53.123  1.00  0.00     0.008 A 
HETATM    3  C   UNL     1     -41.203  55.745 -52.135  1.00  0.00     0.068 A 
HETATM    4  C   UNL     1     -40.928  56.436 -50.963  1.00  0.00     0.032 A 
HETATM    5  C   UNL     1     -41.435  57.712 -50.717  1.00  0.00     0.002 A 
HETATM    6  C   UNL     1     -42.256  58.313 -51.658  1.00  0.00     0.001 A 
HETATM    7  C   UNL     1     -42.540  57.641 -52.845  1.00  0.00     0.015 A 
HETATM    8  N   UNL     1     -40.712  54.502 -52.258  1.00  0.00    -0.248 NA
HETATM    9  C   UNL     1     -40.985  53.756 -53.356  1.00  0.00     0.068 A 
HETATM   10  C   UNL     1     -41.718  54.287 -54.405  1.00  0.00     0.050 A 
ENDROOT
BRANCH   1  11
HETATM   11  C   UNL     1     -42.968  56.114 -55.472  1.00  0.00     0.257 C 
HETATM   12  N   UNL     1     -42.291  56.072 -56.670  1.00  0.00    -0.322 N 
HETATM   13  H   UNL     1     -41.517  55.417 -56.700  1.00  0.00     0.169 HD
HETATM   14  O   UNL     1     -44.133  56.442 -55.295  1.00  0.00    -0.267 OA
BRANCH  12  15
HETATM   15  C   UNL     1     -42.511  56.797 -57.868  1.00  0.00     0.043 A 
HETATM   16  C   UNL     1     -43.234  56.360 -58.992  1.00  0.00    -0.032 A 
HETATM   17  C   UNL     1     -43.864  55.003 -59.147  1.00  0.00     0.050 C 
HETATM   18  C   UNL     1     -43.433  57.258 -60.064  1.00  0.00     0.048 A 
HETATM   19  C   UNL     1     -42.980  58.579 -60.015  1.00  0.00     0.102 A 
HETATM   20  C   UNL     1     -42.255  59.014 -58.901  1.00  0.00     0.103 A 
HETATM   21  C   UNL     1     -42.037  58.126 -57.840  1.00  0.00     0.069 A 
BRANCH  19  22
HETATM   22  O   UNL     1     -43.184  59.493 -61.019  1.00  0.00    -0.353 OA
HETATM   23  C   UNL     1     -44.502  60.014 -61.138  1.00  0.00     0.210 C 
ENDBRANCH  19  22
BRANCH  20  24
HETATM   24  O   UNL     1     -41.841  60.323 -58.921  1.00  0.00    -0.353 OA
HETATM   25  C   UNL     1     -41.716  60.995 -57.676  1.00  0.00     0.210 C 
ENDBRANCH  20  24
ENDBRANCH  12  15
ENDBRANCH   1  11
BRANCH   9  26
HETATM   26  C   UNL     1     -40.483  52.360 -53.316  1.00  0.00    -0.007 A 
HETATM   27  C   UNL     1     -39.903  51.844 -52.139  1.00  0.00     0.014 A 
HETATM   28  C   UNL     1     -39.442  50.526 -52.055  1.00  0.00     0.001 A 
HETATM   29  C   UNL     1     -39.547  49.684 -53.155  1.00  0.00     0.000 A 
HETATM   30  C   UNL     1     -40.107  50.163 -54.336  1.00  0.00     0.001 A 
HETATM   31  C   UNL     1     -40.565  51.484 -54.416  1.00  0.00     0.014 A 
ENDBRANCH   9  26
TORSDOF 5
ENDMDL
MODEL 3
REMARK VINA RESULT:      -8.6      1.492      2.735
REMARK  5 active torsions:
REMARK  status: ('A' for Active; 'I' for Inactive)
REMARK    1  A    between atoms: C_3  and  N_4 
REMARK       I    between atoms: N_4  and  C_5 
REMARK    2  A    between atoms: C_5  and  C_6 
REMARK    3  A    between atoms: C_14  and  C_15 
REMARK    4  A    between atoms: C_24  and  O_25 
REMARK    5  A    between atoms: C_27  and  O_28 
ROOT
HETATM    1  C   UNL     1     -42.228  56.449 -54.574  1.00  0.00     0.047 A 
HETATM    2  C   UNL     1     -42.163  57.249 -53.406  1.00  0.00     0.008 A 
HETATM    3  C   UNL     1     -41.487  56.678 -52.313  1.00  0.00     0.068 A 
HETATM    4  C   UNL     1     -41.349  57.411 -51.143  1.00  0.00     0.032 A 
HETATM    5  C   UNL     1     -41.885  58.691 -51.001  1.00  0.00     0.002 A 
HETATM    6  C   UNL     1     -42.595  59.253 -52.049  1.00  0.00     0.001 A 
HETATM    7  C   UNL     1     -42.741  58.538 -53.237  1.00  0.00     0.015 A 
HETATM    8  N   UNL     1     -40.981  55.435 -52.336  1.00  0.00    -0.248 NA
HETATM    9  C   UNL     1     -41.126  54.650 -53.432  1.00  0.00     0.068 A 
HETATM   10  C   UNL     1     -41.736  55.140 -54.575  1.00  0.00     0.050 A 
ENDROOT
BRANCH   1  11
HETATM   11  C   UNL     1     -42.861  56.919 -55.840  1.00  0.00     0.257 C 
HETATM   12  N   UNL     1     -41.996  57.049 -56.903  1.00  0.00    -0.322 N 
HETATM   13  H   UNL     1     -41.137  56.515 -56.821  1.00  0.00     0.169 HD
HETATM   14  O   UNL     1     -44.076  57.066 -55.857  1.00  0.00    -0.267 OA
BRANCH  12  15
HETATM   15  C   UNL     1     -42.121  57.806 -58.094  1.00  0.00     0.043 A 
HETATM   16  C   UNL     1     -42.520  57.327 -59.355  1.00  0.00    -0.032 A 
HETATM   17  C   UNL     1     -42.836  55.893 -59.680  1.00  0.00     0.050 C 
HETATM   18  C   UNL     1     -42.681  58.249 -60.413  1.00  0.00     0.048 A 
HETATM   19  C   UNL     1     -42.509  59.623 -60.228  1.00  0.00     0.102 A 
HETATM   20  C   UNL     1     -42.105  60.101 -58.977  1.00  0.00     0.103 A 
HETATM   21  C   UNL     1     -41.926  59.193 -57.926  1.00  0.00     0.069 A 
BRANCH  19  22
HETATM   22  O   UNL     1     -42.691  60.555 -61.220  1.00  0.00    -0.353 OA
HETATM   23  C   UNL     1     -43.961  60.552 -61.861  1.00  0.00     0.210 C 
ENDBRANCH  19  22
BRANCH  20  24
HETATM   24  O   UNL     1     -41.955  61.461 -58.868  1.00  0.00    -0.353 OA
HETATM   25  C   UNL     1     -40.673  61.958 -58.514  1.00  0.00     0.210 C 
ENDBRANCH  20  24
ENDBRANCH  12  15
ENDBRANCH   1  11
BRANCH   9  26
HETATM   26  C   UNL     1     -40.627  53.259 -53.287  1.00  0.00    -0.007 A 
HETATM   27  C   UNL     1     -40.674  52.368 -54.379  1.00  0.00     0.014 A 
HETATM   28  C   UNL     1     -40.190  51.059 -54.288  1.00  0.00     0.001 A 
HETATM   29  C   UNL     1     -39.646  50.602 -53.095  1.00  0.00     0.000 A 
HETATM   30  C   UNL     1     -39.591  51.453 -51.995  1.00  0.00     0.001 A 
HETATM   31  C   UNL     1     -40.078  52.763 -52.089  1.00  0.00     0.014 A 
ENDBRANCH   9  26
TORSDOF 5
ENDMDL
MODEL 4
REMARK VINA RESULT:      -8.5      2.859      7.949
REMARK  5 active torsions:
REMARK  status: ('A' for Active; 'I' for Inactive)
REMARK    1  A    between atoms: C_3  and  N_4 
REMARK       I    between atoms: N_4  and  C_5 
REMARK    2  A    between atoms: C_5  and  C_6 
REMARK    3  A    between atoms: C_14  and  C_15 
REMARK    4  A    between atoms: C_24  and  O_25 
REMARK    5  A    between atoms: C_27  and  O_28 
ROOT
HETATM    1  C   UNL     1     -43.499  56.280 -53.920  1.00  0.00     0.047 A 
HETATM    2  C   UNL     1     -44.151  57.453 -53.464  1.00  0.00     0.008 A 
HETATM    3  C   UNL     1     -44.453  58.406 -54.452  1.00  0.00     0.068 A 
HETATM    4  C   UNL     1     -45.124  59.566 -54.093  1.00  0.00     0.032 A 
HETATM    5  C   UNL     1     -45.485  59.836 -52.772  1.00  0.00     0.002 A 
HETATM    6  C   UNL     1     -45.155  58.932 -51.776  1.00  0.00     0.001 A 
HETATM    7  C   UNL     1     -44.488  57.756 -52.115  1.00  0.00     0.015 A 
HETATM    8  N   UNL     1     -44.103  58.259 -55.739  1.00  0.00    -0.248 NA
HETATM    9  C   UNL     1     -43.404  57.172 -56.146  1.00  0.00     0.068 A 
HETATM   10  C   UNL     1     -43.100  56.155 -55.255  1.00  0.00     0.050 A 
ENDROOT
BRANCH   1  11
HETATM   11  C   UNL     1     -43.152  55.145 -53.016  1.00  0.00     0.257 C 
HETATM   12  N   UNL     1     -41.822  55.075 -52.665  1.00  0.00    -0.322 N 
HETATM   13  H   UNL     1     -41.308  55.944 -52.766  1.00  0.00     0.169 HD
HETATM   14  O   UNL     1     -44.062  54.440 -52.602  1.00  0.00    -0.267 OA
BRANCH  12  15
HETATM   15  C   UNL     1     -41.064  53.981 -52.179  1.00  0.00     0.043 A 
HETATM   16  C   UNL     1     -40.891  53.612 -50.833  1.00  0.00    -0.032 A 
HETATM   17  C   UNL     1     -41.444  54.356 -49.649  1.00  0.00     0.050 C 
HETATM   18  C   UNL     1     -40.176  52.430 -50.539  1.00  0.00     0.048 A 
HETATM   19  C   UNL     1     -39.686  51.593 -51.545  1.00  0.00     0.102 A 
HETATM   20  C   UNL     1     -39.850  51.962 -52.884  1.00  0.00     0.103 A 
HETATM   21  C   UNL     1     -40.543  53.141 -53.186  1.00  0.00     0.069 A 
BRANCH  19  22
HETATM   22  O   UNL     1     -39.017  50.418 -51.302  1.00  0.00    -0.353 OA
HETATM   23  C   UNL     1     -39.775  49.376 -50.698  1.00  0.00     0.210 C 
ENDBRANCH  19  22
BRANCH  20  24
HETATM   24  O   UNL     1     -39.343  51.093 -53.818  1.00  0.00    -0.353 OA
HETATM   25  C   UNL     1     -40.230  50.143 -54.387  1.00  0.00     0.210 C 
ENDBRANCH  20  24
ENDBRANCH  12  15
ENDBRANCH   1  11
BRANCH   9  26
HETATM   26  C   UNL     1     -42.975  57.187 -57.567  1.00  0.00    -0.007 A 
HETATM   27  C   UNL     1     -42.392  58.344 -58.123  1.00  0.00     0.014 A 
HETATM   28  C   UNL     1     -41.953  58.388 -59.450  1.00  0.00     0.001 A 
HETATM   29  C   UNL     1     -42.089  57.270 -60.263  1.00  0.00     0.000 A 
HETATM   30  C   UNL     1     -42.667  56.113 -59.749  1.00  0.00     0.001 A 
HETATM   31  C   UNL     1     -43.107  56.074 -58.420  1.00  0.00     0.014 A 
ENDBRANCH   9  26
TORSDOF 5
ENDMDL
MODEL 5
REMARK VINA RESULT:      -8.5      3.278      6.384
REMARK  5 active torsions:
REMARK  status: ('A' for Active; 'I' for Inactive)
REMARK    1  A    between atoms: C_3  and  N_4 
REMARK       I    between atoms: N_4  and  C_5 
REMARK    2  A    between atoms: C_5  and  C_6 
REMARK    3  A    between atoms: C_14  and  C_15 
REMARK    4  A    between atoms: C_24  and  O_25 
REMARK    5  A    between atoms: C_27  and  O_28 
ROOT
HETATM    1  C   UNL     1     -41.536  56.735 -54.071  1.00  0.00     0.047 A 
HETATM    2  C   UNL     1     -42.118  56.663 -55.361  1.00  0.00     0.008 A 
HETATM    3  C   UNL     1     -42.241  55.372 -55.904  1.00  0.00     0.068 A 
HETATM    4  C   UNL     1     -42.833  55.213 -57.148  1.00  0.00     0.032 A 
HETATM    5  C   UNL     1     -43.288  56.298 -57.899  1.00  0.00     0.002 A 
HETATM    6  C   UNL     1     -43.134  57.582 -57.403  1.00  0.00     0.001 A 
HETATM    7  C   UNL     1     -42.549  57.766 -56.152  1.00  0.00     0.015 A 
HETATM    8  N   UNL     1     -41.789  54.273 -55.281  1.00  0.00    -0.248 NA
HETATM    9  C   UNL     1     -41.157  54.366 -54.085  1.00  0.00     0.068 A 
HETATM   10  C   UNL     1     -41.030  55.589 -53.448  1.00  0.00     0.050 A 
ENDROOT
BRANCH   1  11
HETATM   11  C   UNL     1     -41.378  58.018 -53.327  1.00  0.00     0.257 C 
HETATM   12  N   UNL     1     -42.299  58.218 -52.323  1.00  0.00    -0.322 N 
HETATM   13  H   UNL     1     -42.747  57.374 -51.981  1.00  0.00     0.169 HD
HETATM   14  O   UNL     1     -40.421  58.729 -53.600  1.00  0.00    -0.267 OA
BRANCH  12  15
HETATM   15  C   UNL     1     -42.712  59.417 -51.690  1.00  0.00     0.043 A 
HETATM   16  C   UNL     1     -41.990  60.153 -50.734  1.00  0.00    -0.032 A 
HETATM   17  C   UNL     1     -40.653  59.764 -50.165  1.00  0.00     0.050 C 
HETATM   18  C   UNL     1     -42.519  61.381 -50.280  1.00  0.00     0.048 A 
HETATM   19  C   UNL     1     -43.708  61.908 -50.791  1.00  0.00     0.102 A 
HETATM   20  C   UNL     1     -44.432  61.174 -51.736  1.00  0.00     0.103 A 
HETATM   21  C   UNL     1     -43.924  59.947 -52.181  1.00  0.00     0.069 A 
BRANCH  19  22
HETATM   22  O   UNL     1     -44.237  63.114 -50.403  1.00  0.00    -0.353 OA
HETATM   23  C   UNL     1     -44.744  63.181 -49.075  1.00  0.00     0.210 C 
ENDBRANCH  19  22
BRANCH  20  24
HETATM   24  O   UNL     1     -45.589  61.752 -52.194  1.00  0.00    -0.353 OA
HETATM   25  C   UNL     1     -46.773  60.969 -52.168  1.00  0.00     0.210 C 
ENDBRANCH  20  24
ENDBRANCH  12  15
ENDBRANCH   1  11
BRANCH   9  26
HETATM   26  C   UNL     1     -40.601  53.093 -53.560  1.00  0.00    -0.007 A 
HETATM   27  C   UNL     1     -40.417  51.989 -54.417  1.00  0.00     0.014 A 
HETATM   28  C   UNL     1     -39.872  50.782 -53.965  1.00  0.00     0.001 A 
HETATM   29  C   UNL     1     -39.497  50.647 -52.634  1.00  0.00     0.000 A 
HETATM   30  C   UNL     1     -39.672  51.715 -51.760  1.00  0.00     0.001 A 
HETATM   31  C   UNL     1     -40.220  52.920 -52.216  1.00  0.00     0.014 A 
ENDBRANCH   9  26
TORSDOF 5
ENDMDL
MODEL 6
REMARK VINA RESULT:      -8.2      1.622      2.142
REMARK  5 active torsions:
REMARK  status: ('A' for Active; 'I' for Inactive)
REMARK    1  A    between atoms: C_3  and  N_4 
REMARK       I    between atoms: N_4  and  C_5 
REMARK    2  A    between atoms: C_5  and  C_6 
REMARK    3  A    between atoms: C_14  and  C_15 
REMARK    4  A    between atoms: C_24  and  O_25 
REMARK    5  A    between atoms: C_27  and  O_28 
ROOT
HETATM    1  C   UNL     1     -42.053  55.270 -55.191  1.00  0.00     0.047 A 
HETATM    2  C   UNL     1     -42.015  56.234 -54.153  1.00  0.00     0.008 A 
HETATM    3  C   UNL     1     -41.341  55.844 -52.983  1.00  0.00     0.068 A 
HETATM    4  C   UNL     1     -41.228  56.744 -51.933  1.00  0.00     0.032 A 
HETATM    5  C   UNL     1     -41.790  58.021 -51.986  1.00  0.00     0.002 A 
HETATM    6  C   UNL     1     -42.498  58.408 -53.111  1.00  0.00     0.001 A 
HETATM    7  C   UNL     1     -42.618  57.523 -54.181  1.00  0.00     0.015 A 
HETATM    8  N   UNL     1     -40.812  54.622 -52.818  1.00  0.00    -0.248 NA
HETATM    9  C   UNL     1     -40.930  53.681 -53.787  1.00  0.00     0.068 A 
HETATM   10  C   UNL     1     -41.536  53.985 -54.995  1.00  0.00     0.050 A 
ENDROOT
BRANCH   1  11
HETATM   11  C   UNL     1     -42.681  55.536 -56.518  1.00  0.00     0.257 C 
HETATM   12  N   UNL     1     -42.346  56.747 -57.081  1.00  0.00    -0.322 N 
HETATM   13  H   UNL     1     -41.490  57.159 -56.727  1.00  0.00     0.169 HD
HETATM   14  O   UNL     1     -43.355  54.649 -57.024  1.00  0.00    -0.267 OA
BRANCH  12  15
HETATM   15  C   UNL     1     -43.007  57.501 -58.082  1.00  0.00     0.043 A 
HETATM   16  C   UNL     1     -42.695  57.530 -59.453  1.00  0.00    -0.032 A 
HETATM   17  C   UNL     1     -41.554  56.797 -60.102  1.00  0.00     0.050 C 
HETATM   18  C   UNL     1     -43.527  58.270 -60.323  1.00  0.00     0.048 A 
HETATM   19  C   UNL     1     -44.674  58.926 -59.870  1.00  0.00     0.102 A 
HETATM   20  C   UNL     1     -44.982  58.904 -58.506  1.00  0.00     0.103 A 
HETATM   21  C   UNL     1     -44.155  58.188 -57.632  1.00  0.00     0.069 A 
BRANCH  19  22
HETATM   22  O   UNL     1     -45.527  59.625 -60.688  1.00  0.00    -0.353 OA
HETATM   23  C   UNL     1     -44.982  60.769 -61.335  1.00  0.00     0.210 C 
ENDBRANCH  19  22
BRANCH  20  24
HETATM   24  O   UNL     1     -46.122  59.569 -58.132  1.00  0.00    -0.353 OA
HETATM   25  C   UNL     1     -47.283  58.795 -57.870  1.00  0.00     0.210 C 
ENDBRANCH  20  24
ENDBRANCH  12  15
ENDBRANCH   1  11
BRANCH   9  26
HETATM   26  C   UNL     1     -40.407  52.337 -53.434  1.00  0.00    -0.007 A 
HETATM   27  C   UNL     1     -39.947  52.072 -52.128  1.00  0.00     0.014 A 
HETATM   28  C   UNL     1     -39.471  50.812 -51.751  1.00  0.00     0.001 A 
HETATM   29  C   UNL     1     -39.440  49.777 -52.678  1.00  0.00     0.000 A 
HETATM   30  C   UNL     1     -39.879  50.007 -53.978  1.00  0.00     0.001 A 
HETATM   31  C   UNL     1     -40.353  51.271 -54.352  1.00  0.00     0.014 A 
ENDBRANCH   9  26
TORSDOF 5
ENDMDL
MODEL 7
REMARK VINA RESULT:      -8.2      2.872      8.302
REMARK  5 active torsions:
REMARK  status: ('A' for Active; 'I' for Inactive)
REMARK    1  A    between atoms: C_3  and  N_4 
REMARK       I    between atoms: N_4  and  C_5 
REMARK    2  A    between atoms: C_5  and  C_6 
REMARK    3  A    between atoms: C_14  and  C_15 
REMARK    4  A    between atoms: C_24  and  O_25 
REMARK    5  A    between atoms: C_27  and  O_28 
ROOT
HETATM    1  C   UNL     1     -42.580  57.366 -53.839  1.00  0.00     0.047 A 
HETATM    2  C   UNL     1     -42.633  58.731 -53.464  1.00  0.00     0.008 A 
HETATM    3  C   UNL     1     -42.753  59.650 -54.521  1.00  0.00     0.068 A 
HETATM    4  C   UNL     1     -42.848  61.004 -54.235  1.00  0.00     0.032 A 
HETATM    5  C   UNL     1     -42.798  61.493 -52.929  1.00  0.00     0.002 A 
HETATM    6  C   UNL     1     -42.632  60.609 -51.876  1.00  0.00     0.001 A 
HETATM    7  C   UNL     1     -42.542  59.243 -52.139  1.00  0.00     0.015 A 
HETATM    8  N   UNL     1     -42.760  59.281 -55.811  1.00  0.00    -0.248 NA
HETATM    9  C   UNL     1     -42.622  57.978 -56.159  1.00  0.00     0.068 A 
HETATM   10  C   UNL     1     -42.544  56.994 -55.187  1.00  0.00     0.050 A 
ENDROOT
BRANCH   1  11
HETATM   11  C   UNL     1     -42.505  56.257 -52.844  1.00  0.00     0.257 C 
HETATM   12  N   UNL     1     -41.292  55.606 -52.797  1.00  0.00    -0.322 N 
HETATM   13  H   UNL     1     -40.510  56.134 -53.171  1.00  0.00     0.169 HD
HETATM   14  O   UNL     1     -43.467  56.075 -52.111  1.00  0.00    -0.267 OA
BRANCH  12  15
HETATM   15  C   UNL     1     -40.966  54.319 -52.303  1.00  0.00     0.043 A 
HETATM   16  C   UNL     1     -40.516  53.221 -53.056  1.00  0.00    -0.032 A 
HETATM   17  C   UNL     1     -40.349  53.200 -54.551  1.00  0.00     0.050 C 
HETATM   18  C   UNL     1     -40.146  52.037 -52.379  1.00  0.00     0.048 A 
HETATM   19  C   UNL     1     -40.165  51.947 -50.984  1.00  0.00     0.102 A 
HETATM   20  C   UNL     1     -40.619  53.037 -50.234  1.00  0.00     0.103 A 
HETATM   21  C   UNL     1     -41.004  54.208 -50.897  1.00  0.00     0.069 A 
BRANCH  19  22
HETATM   22  O   UNL     1     -39.780  50.829 -50.286  1.00  0.00    -0.353 OA
HETATM   23  C   UNL     1     -39.369  49.712 -51.065  1.00  0.00     0.210 C 
ENDBRANCH  19  22
BRANCH  20  24
HETATM   24  O   UNL     1     -40.611  52.878 -48.870  1.00  0.00    -0.353 OA
HETATM   25  C   UNL     1     -40.345  54.022 -48.074  1.00  0.00     0.210 C 
ENDBRANCH  20  24
ENDBRANCH  12  15
ENDBRANCH   1  11
BRANCH   9  26
HETATM   26  C   UNL     1     -42.526  57.716 -57.617  1.00  0.00    -0.007 A 
HETATM   27  C   UNL     1     -42.960  56.485 -58.150  1.00  0.00     0.014 A 
HETATM   28  C   UNL     1     -42.908  56.211 -59.520  1.00  0.00     0.001 A 
HETATM   29  C   UNL     1     -42.416  57.167 -60.400  1.00  0.00     0.000 A 
HETATM   30  C   UNL     1     -41.972  58.390 -59.907  1.00  0.00     0.001 A 
HETATM   31  C   UNL     1     -42.024  58.659 -58.533  1.00  0.00     0.014 A 
ENDBRANCH   9  26
TORSDOF 5
ENDMDL
MODEL 8
REMARK VINA RESULT:      -8.1      1.689      1.925
REMARK  5 active torsions:
REMARK  status: ('A' for Active; 'I' for Inactive)
REMARK    1  A    between atoms: C_3  and  N_4 
REMARK       I    between atoms: N_4  and  C_5 
REMARK    2  A    between atoms: C_5  and  C_6 
REMARK    3  A    between atoms: C_14  and  C_15 
REMARK    4  A    between atoms: C_24  and  O_25 
REMARK    5  A    between atoms: C_27  and  O_28 
ROOT
HETATM    1  C   UNL     1     -41.879  55.307 -54.525  1.00  0.00     0.047 A 
HETATM    2  C   UNL     1     -41.869  56.070 -53.330  1.00  0.00     0.008 A 
HETATM    3  C   UNL     1     -41.236  55.468 -52.228  1.00  0.00     0.068 A 
HETATM    4  C   UNL     1     -41.153  56.165 -51.031  1.00  0.00     0.032 A 
HETATM    5  C   UNL     1     -41.704  57.437 -50.872  1.00  0.00     0.002 A 
HETATM    6  C   UNL     1     -42.373  58.028 -51.931  1.00  0.00     0.001 A 
HETATM    7  C   UNL     1     -42.463  57.350 -53.145  1.00  0.00     0.015 A 
HETATM    8  N   UNL     1     -40.721  54.230 -52.269  1.00  0.00    -0.248 NA
HETATM    9  C   UNL     1     -40.813  53.479 -53.393  1.00  0.00     0.068 A 
HETATM   10  C   UNL     1     -41.378  54.001 -54.546  1.00  0.00     0.050 A 
ENDROOT
BRANCH   1  11
HETATM   11  C   UNL     1     -42.462  55.814 -55.801  1.00  0.00     0.257 C 
HETATM   12  N   UNL     1     -42.260  57.156 -56.033  1.00  0.00    -0.322 N 
HETATM   13  H   UNL     1     -41.487  57.566 -55.519  1.00  0.00     0.169 HD
HETATM   14  O   UNL     1     -42.981  55.005 -56.558  1.00  0.00    -0.267 OA
BRANCH  12  15
HETATM   15  C   UNL     1     -42.958  58.050 -56.883  1.00  0.00     0.043 A 
HETATM   16  C   UNL     1     -44.263  58.536 -56.697  1.00  0.00    -0.032 A 
HETATM   17  C   UNL     1     -45.186  58.147 -55.575  1.00  0.00     0.050 C 
HETATM   18  C   UNL     1     -44.765  59.500 -57.600  1.00  0.00     0.048 A 
HETATM   19  C   UNL     1     -43.984  60.019 -58.636  1.00  0.00     0.102 A 
HETATM   20  C   UNL     1     -42.687  59.531 -58.827  1.00  0.00     0.103 A 
HETATM   21  C   UNL     1     -42.187  58.563 -57.947  1.00  0.00     0.069 A 
BRANCH  19  22
HETATM   22  O   UNL     1     -44.421  60.981 -59.512  1.00  0.00    -0.353 OA
HETATM   23  C   UNL     1     -45.097  62.095 -58.940  1.00  0.00     0.210 C 
ENDBRANCH  19  22
BRANCH  20  24
HETATM   24  O   UNL     1     -41.979  60.086 -59.863  1.00  0.00    -0.353 OA
HETATM   25  C   UNL     1     -41.847  59.326 -61.055  1.00  0.00     0.210 C 
ENDBRANCH  20  24
ENDBRANCH  12  15
ENDBRANCH   1  11
BRANCH   9  26
HETATM   26  C   UNL     1     -40.311  52.088 -53.271  1.00  0.00    -0.007 A 
HETATM   27  C   UNL     1     -39.873  51.595 -52.024  1.00  0.00     0.014 A 
HETATM   28  C   UNL     1     -39.417  50.283 -51.864  1.00  0.00     0.001 A 
HETATM   29  C   UNL     1     -39.385  49.422 -52.955  1.00  0.00     0.000 A 
HETATM   30  C   UNL     1     -39.803  49.878 -54.201  1.00  0.00     0.001 A 
HETATM   31  C   UNL     1     -40.257  51.194 -54.357  1.00  0.00     0.014 A 
ENDBRANCH   9  26
TORSDOF 5
ENDMDL
MODEL 9
REMARK VINA RESULT:      -8.0      3.754      6.619
REMARK  5 active torsions:
REMARK  status: ('A' for Active; 'I' for Inactive)
REMARK    1  A    between atoms: C_3  and  N_4 
REMARK       I    between atoms: N_4  and  C_5 
REMARK    2  A    between atoms: C_5  and  C_6 
REMARK    3  A    between atoms: C_14  and  C_15 
REMARK    4  A    between atoms: C_24  and  O_25 
REMARK    5  A    between atoms: C_27  and  O_28 
ROOT
HETATM    1  C   UNL     1     -42.526  56.979 -53.960  1.00  0.00     0.047 A 
HETATM    2  C   UNL     1     -42.840  56.871 -55.338  1.00  0.00     0.008 A 
HETATM    3  C   UNL     1     -42.557  55.629 -55.932  1.00  0.00     0.068 A 
HETATM    4  C   UNL     1     -42.868  55.431 -57.270  1.00  0.00     0.032 A 
HETATM    5  C   UNL     1     -43.428  56.436 -58.059  1.00  0.00     0.002 A 
HETATM    6  C   UNL     1     -43.671  57.682 -57.505  1.00  0.00     0.001 A 
HETATM    7  C   UNL     1     -43.374  57.902 -56.162  1.00  0.00     0.015 A 
HETATM    8  N   UNL     1     -41.974  54.619 -55.269  1.00  0.00    -0.248 NA
HETATM    9  C   UNL     1     -41.601  54.765 -53.974  1.00  0.00     0.068 A 
HETATM   10  C   UNL     1     -41.880  55.936 -53.288  1.00  0.00     0.050 A 
ENDROOT
BRANCH   1  11
HETATM   11  C   UNL     1     -42.808  58.207 -53.161  1.00  0.00     0.257 C 
HETATM   12  N   UNL     1     -44.126  58.362 -52.791  1.00  0.00    -0.322 N 
HETATM   13  H   UNL     1     -44.674  57.508 -52.797  1.00  0.00     0.169 HD
HETATM   14  O   UNL     1     -41.863  58.912 -52.835  1.00  0.00    -0.267 OA
BRANCH  12  15
HETATM   15  C   UNL     1     -44.831  59.526 -52.395  1.00  0.00     0.043 A 
HETATM   16  C   UNL     1     -45.439  60.467 -53.245  1.00  0.00    -0.032 A 
HETATM   17  C   UNL     1     -45.401  60.435 -54.748  1.00  0.00     0.050 C 
HETATM   18  C   UNL     1     -46.184  61.520 -52.670  1.00  0.00     0.048 A 
HETATM   19  C   UNL     1     -46.378  61.621 -51.289  1.00  0.00     0.102 A 
HETATM   20  C   UNL     1     -45.768  60.690 -50.442  1.00  0.00     0.103 A 
HETATM   21  C   UNL     1     -45.013  59.652 -51.002  1.00  0.00     0.069 A 
BRANCH  19  22
HETATM   22  O   UNL     1     -47.124  62.607 -50.693  1.00  0.00    -0.353 OA
HETATM   23  C   UNL     1     -48.023  63.315 -51.540  1.00  0.00     0.210 C 
ENDBRANCH  19  22
BRANCH  20  24
HETATM   24  O   UNL     1     -46.001  60.850 -49.099  1.00  0.00    -0.353 OA
HETATM   25  C   UNL     1     -44.901  61.208 -48.276  1.00  0.00     0.210 C 
ENDBRANCH  20  24
ENDBRANCH  12  15
ENDBRANCH   1  11
BRANCH   9  26
HETATM   26  C   UNL     1     -40.861  53.617 -53.392  1.00  0.00    -0.007 A 
HETATM   27  C   UNL     1     -40.440  52.551 -54.213  1.00  0.00     0.014 A 
HETATM   28  C   UNL     1     -39.719  51.465 -53.707  1.00  0.00     0.001 A 
HETATM   29  C   UNL     1     -39.398  51.416 -52.356  1.00  0.00     0.000 A 
HETATM   30  C   UNL     1     -39.804  52.448 -51.516  1.00  0.00     0.001 A 
HETATM   31  C   UNL     1     -40.529  53.532 -52.027  1.00  0.00     0.014 A 
ENDBRANCH   9  26
TORSDOF 5
ENDMDL
MODEL 10
REMARK VINA RESULT:      -7.9      2.026      2.705
REMARK  5 active torsions:
REMARK  status: ('A' for Active; 'I' for Inactive)
REMARK    1  A    between atoms: C_3  and  N_4 
REMARK       I    between atoms: N_4  and  C_5 
REMARK    2  A    between atoms: C_5  and  C_6 
REMARK    3  A    between atoms: C_14  and  C_15 
REMARK    4  A    between atoms: C_24  and  O_25 
REMARK    5  A    between atoms: C_27  and  O_28 
ROOT
HETATM    1  C   UNL     1     -42.183  57.314 -53.618  1.00  0.00     0.047 A 
HETATM    2  C   UNL     1     -43.206  57.395 -52.641  1.00  0.00     0.008 A 
HETATM    3  C   UNL     1     -43.313  56.291 -51.777  1.00  0.00     0.068 A 
HETATM    4  C   UNL     1     -44.267  56.309 -50.769  1.00  0.00     0.032 A 
HETATM    5  C   UNL     1     -45.150  57.376 -50.601  1.00  0.00     0.002 A 
HETATM    6  C   UNL     1     -45.092  58.452 -51.471  1.00  0.00     0.001 A 
HETATM    7  C   UNL     1     -44.137  58.460 -52.486  1.00  0.00     0.015 A 
HETATM    8  N   UNL     1     -42.544  55.197 -51.891  1.00  0.00    -0.248 NA
HETATM    9  C   UNL     1     -41.627  55.098 -52.884  1.00  0.00     0.068 A 
HETATM   10  C   UNL     1     -41.415  56.152 -53.757  1.00  0.00     0.050 A 
ENDROOT
BRANCH   1  11
HETATM   11  C   UNL     1     -41.897  58.416 -54.581  1.00  0.00     0.257 C 
HETATM   12  N   UNL     1     -42.777  58.503 -55.636  1.00  0.00    -0.322 N 
HETATM   13  H   UNL     1     -43.676  58.059 -55.479  1.00  0.00     0.169 HD
HETATM   14  O   UNL     1     -40.982  59.186 -54.320  1.00  0.00    -0.267 OA
BRANCH  12  15
HETATM   15  C   UNL     1     -42.626  59.120 -56.902  1.00  0.00     0.043 A 
HETATM   16  C   UNL     1     -42.660  60.500 -57.172  1.00  0.00    -0.032 A 
HETATM   17  C   UNL     1     -42.923  61.578 -56.158  1.00  0.00     0.050 C 
HETATM   18  C   UNL     1     -42.394  60.942 -58.487  1.00  0.00     0.048 A 
HETATM   19  C   UNL     1     -42.045  60.055 -59.509  1.00  0.00     0.102 A 
HETATM   20  C   UNL     1     -42.017  58.682 -59.244  1.00  0.00     0.103 A 
HETATM   21  C   UNL     1     -42.297  58.231 -57.948  1.00  0.00     0.069 A 
BRANCH  19  22
HETATM   22  O   UNL     1     -41.744  60.447 -60.790  1.00  0.00    -0.353 OA
HETATM   23  C   UNL     1     -41.312  61.793 -60.951  1.00  0.00     0.210 C 
ENDBRANCH  19  22
BRANCH  20  24
HETATM   24  O   UNL     1     -41.667  57.870 -60.294  1.00  0.00    -0.353 OA
HETATM   25  C   UNL     1     -42.174  56.544 -60.301  1.00  0.00     0.210 C 
ENDBRANCH  20  24
ENDBRANCH  12  15
ENDBRANCH   1  11
BRANCH   9  26
HETATM   26  C   UNL     1     -40.926  53.792 -52.973  1.00  0.00    -0.007 A 
HETATM   27  C   UNL     1     -40.882  53.088 -54.194  1.00  0.00     0.014 A 
HETATM   28  C   UNL     1     -40.210  51.869 -54.323  1.00  0.00     0.001 A 
HETATM   29  C   UNL     1     -39.562  51.315 -53.226  1.00  0.00     0.000 A 
HETATM   30  C   UNL     1     -39.592  51.979 -52.003  1.00  0.00     0.001 A 
HETATM   31  C   UNL     1     -40.268  53.200 -51.878  1.00  0.00     0.014 A 
ENDBRANCH   9  26
TORSDOF 5
ENDMDL
