MODEL 1
REMARK VINA RESULT:      -8.3      0.000      0.000
REMARK  3 active torsions:
REMARK  status: ('A' for Active; 'I' for Inactive)
REMARK    1  A    between atoms: C_3  and  N_4 
REMARK       I    between atoms: N_4  and  C_5 
REMARK    2  A    between atoms: C_5  and  C_6 
REMARK    3  A    between atoms: C_7  and  C_8 
ROOT
HETATM    1  C   UNL     1     -42.138  55.688 -51.343  1.00  0.00     0.062 A 
HETATM    2  C   UNL     1     -43.089  56.471 -52.242  1.00  0.00     0.199 A 
HETATM    3  N   UNL     1     -42.999  57.906 -51.977  1.00  0.00    -0.092 N 
HETATM    4  C   UNL     1     -42.198  58.471 -51.025  1.00  0.00     0.735 A 
HETATM    5  N   UNL     1     -41.385  57.683 -50.295  1.00  0.00    -0.191 N 
HETATM    6  N   UNL     1     -43.816  58.831 -52.504  1.00  0.00     0.012 NA
HETATM    7  N   UNL     1     -43.439  59.971 -51.934  1.00  0.00     0.033 NA
HETATM    8  N   UNL     1     -42.435  59.760 -51.005  1.00  0.00     0.030 NA
HETATM    9  C   UNL     1     -41.335  56.300 -50.437  1.00  0.00     0.037 A 
HETATM   10  C   UNL     1     -40.368  55.580 -49.530  1.00  0.00     0.070 C 
HETATM   11  H   UNL     1     -40.776  58.108 -49.600  1.00  0.00     0.184 HD
ENDROOT
BRANCH   1  12
HETATM   12  C   UNL     1     -42.036  54.225 -51.581  1.00  0.00     0.256 C 
HETATM   13  N   UNL     1     -40.801  53.847 -52.060  1.00  0.00    -0.323 N 
HETATM   14  H   UNL     1     -40.149  54.581 -52.292  1.00  0.00     0.169 HD
HETATM   15  O   UNL     1     -43.007  53.519 -51.348  1.00  0.00    -0.267 OA
BRANCH  13  16
HETATM   16  C   UNL     1     -40.341  52.527 -52.298  1.00  0.00     0.041 A 
HETATM   17  C   UNL     1     -40.211  52.082 -53.634  1.00  0.00    -0.035 A 
HETATM   18  C   UNL     1     -40.539  52.956 -54.816  1.00  0.00     0.050 C 
HETATM   19  C   UNL     1     -39.744  50.778 -53.885  1.00  0.00     0.009 A 
HETATM   20  C   UNL     1     -39.410  49.923 -52.838  1.00  0.00     0.001 A 
HETATM   21  C   UNL     1     -39.535  50.361 -51.527  1.00  0.00     0.002 A 
HETATM   22  C   UNL     1     -39.995  51.654 -51.261  1.00  0.00     0.030 A 
ENDBRANCH  13  16
ENDBRANCH   1  12
BRANCH   2  23
HETATM   23  C   UNL     1     -42.917  56.198 -53.722  1.00  0.00    -0.011 A 
HETATM   24  C   UNL     1     -41.958  56.900 -54.453  1.00  0.00     0.125 A 
HETATM   25  N   UNL     1     -41.744  56.743 -55.777  1.00  0.00    -0.272 NA
HETATM   26  C   UNL     1     -42.510  55.833 -56.413  1.00  0.00     0.116 A 
HETATM   27  C   UNL     1     -43.474  55.067 -55.782  1.00  0.00     0.020 A 
HETATM   28  C   UNL     1     -43.677  55.251 -54.417  1.00  0.00     0.012 A 
ENDBRANCH   2  23
TORSDOF 3
ENDMDL
MODEL 2
REMARK VINA RESULT:      -8.3      1.650      3.893
REMARK  3 active torsions:
REMARK  status: ('A' for Active; 'I' for Inactive)
REMARK    1  A    between atoms: C_3  and  N_4 
REMARK       I    between atoms: N_4  and  C_5 
REMARK    2  A    between atoms: C_5  and  C_6 
REMARK    3  A    between atoms: C_7  and  C_8 
ROOT
HETATM    1  C   UNL     1     -42.127  55.729 -54.476  1.00  0.00     0.062 A 
HETATM    2  C   UNL     1     -42.161  56.759 -53.352  1.00  0.00     0.199 A 
HETATM    3  N   UNL     1     -43.307  57.655 -53.496  1.00  0.00    -0.092 N 
HETATM    4  C   UNL     1     -44.209  57.604 -54.522  1.00  0.00     0.735 A 
HETATM    5  N   UNL     1     -44.090  56.640 -55.456  1.00  0.00    -0.191 N 
HETATM    6  N   UNL     1     -43.518  58.749 -52.749  1.00  0.00     0.012 NA
HETATM    7  N   UNL     1     -44.607  59.304 -53.271  1.00  0.00     0.033 NA
HETATM    8  N   UNL     1     -45.044  58.604 -54.381  1.00  0.00     0.030 NA
HETATM    9  C   UNL     1     -43.068  55.697 -55.452  1.00  0.00     0.037 A 
HETATM   10  C   UNL     1     -43.091  54.696 -56.580  1.00  0.00     0.070 C 
HETATM   11  H   UNL     1     -44.773  56.592 -56.209  1.00  0.00     0.184 HD
ENDROOT
BRANCH   1  12
HETATM   12  C   UNL     1     -41.081  54.676 -54.394  1.00  0.00     0.256 C 
HETATM   13  N   UNL     1     -41.535  53.519 -53.802  1.00  0.00    -0.323 N 
HETATM   14  H   UNL     1     -42.461  53.533 -53.403  1.00  0.00     0.169 HD
HETATM   15  O   UNL     1     -39.965  54.917 -54.833  1.00  0.00    -0.267 OA
BRANCH  13  16
HETATM   16  C   UNL     1     -40.830  52.297 -53.656  1.00  0.00     0.041 A 
HETATM   17  C   UNL     1     -40.014  52.113 -52.515  1.00  0.00    -0.035 A 
HETATM   18  C   UNL     1     -39.867  53.162 -51.445  1.00  0.00     0.050 C 
HETATM   19  C   UNL     1     -39.319  50.901 -52.352  1.00  0.00     0.009 A 
HETATM   20  C   UNL     1     -39.421  49.883 -53.298  1.00  0.00     0.001 A 
HETATM   21  C   UNL     1     -40.224  50.063 -54.416  1.00  0.00     0.002 A 
HETATM   22  C   UNL     1     -40.923  51.260 -54.591  1.00  0.00     0.030 A 
ENDBRANCH  13  16
ENDBRANCH   1  12
BRANCH   2  23
HETATM   23  C   UNL     1     -42.131  56.166 -51.958  1.00  0.00    -0.011 A 
HETATM   24  C   UNL     1     -41.135  56.547 -51.060  1.00  0.00     0.125 A 
HETATM   25  N   UNL     1     -41.012  56.060 -49.806  1.00  0.00    -0.272 NA
HETATM   26  C   UNL     1     -41.933  55.155 -49.412  1.00  0.00     0.116 A 
HETATM   27  C   UNL     1     -42.974  54.723 -50.214  1.00  0.00     0.020 A 
HETATM   28  C   UNL     1     -43.076  55.239 -51.503  1.00  0.00     0.012 A 
ENDBRANCH   2  23
TORSDOF 3
ENDMDL
MODEL 3
REMARK VINA RESULT:      -8.1      1.893      5.722
REMARK  3 active torsions:
REMARK  status: ('A' for Active; 'I' for Inactive)
REMARK    1  A    between atoms: C_3  and  N_4 
REMARK       I    between atoms: N_4  and  C_5 
REMARK    2  A    between atoms: C_5  and  C_6 
REMARK    3  A    between atoms: C_7  and  C_8 
ROOT
HETATM    1  C   UNL     1     -42.191  54.307 -52.907  1.00  0.00     0.062 A 
HETATM    2  C   UNL     1     -42.607  54.874 -51.553  1.00  0.00     0.199 A 
HETATM    3  N   UNL     1     -41.742  54.372 -50.487  1.00  0.00    -0.092 N 
HETATM    4  C   UNL     1     -40.720  53.483 -50.669  1.00  0.00     0.735 A 
HETATM    5  N   UNL     1     -40.431  53.057 -51.914  1.00  0.00    -0.191 N 
HETATM    6  N   UNL     1     -41.951  54.574 -49.177  1.00  0.00     0.012 NA
HETATM    7  N   UNL     1     -40.991  53.879 -48.575  1.00  0.00     0.033 NA
HETATM    8  N   UNL     1     -40.220  53.189 -49.493  1.00  0.00     0.030 NA
HETATM    9  C   UNL     1     -41.144  53.455 -53.040  1.00  0.00     0.037 A 
HETATM   10  C   UNL     1     -40.681  52.873 -54.352  1.00  0.00     0.070 C 
HETATM   11  H   UNL     1     -39.658  52.410 -52.050  1.00  0.00     0.184 HD
ENDROOT
BRANCH   1  12
HETATM   12  C   UNL     1     -42.908  54.822 -54.102  1.00  0.00     0.256 C 
HETATM   13  N   UNL     1     -42.147  55.696 -54.845  1.00  0.00    -0.323 N 
HETATM   14  H   UNL     1     -41.254  55.972 -54.466  1.00  0.00     0.169 HD
HETATM   15  O   UNL     1     -44.054  54.447 -54.310  1.00  0.00    -0.267 OA
BRANCH  13  16
HETATM   16  C   UNL     1     -42.490  56.289 -56.087  1.00  0.00     0.041 A 
HETATM   17  C   UNL     1     -42.487  57.699 -56.193  1.00  0.00    -0.035 A 
HETATM   18  C   UNL     1     -42.129  58.598 -55.039  1.00  0.00     0.050 C 
HETATM   19  C   UNL     1     -42.813  58.300 -57.423  1.00  0.00     0.009 A 
HETATM   20  C   UNL     1     -43.140  57.526 -58.534  1.00  0.00     0.001 A 
HETATM   21  C   UNL     1     -43.140  56.142 -58.431  1.00  0.00     0.002 A 
HETATM   22  C   UNL     1     -42.816  55.529 -57.217  1.00  0.00     0.030 A 
ENDBRANCH  13  16
ENDBRANCH   1  12
BRANCH   2  23
HETATM   23  C   UNL     1     -42.677  56.386 -51.503  1.00  0.00    -0.011 A 
HETATM   24  C   UNL     1     -41.503  57.139 -51.499  1.00  0.00     0.125 A 
HETATM   25  N   UNL     1     -41.462  58.487 -51.435  1.00  0.00    -0.272 NA
HETATM   26  C   UNL     1     -42.647  59.130 -51.387  1.00  0.00     0.116 A 
HETATM   27  C   UNL     1     -43.871  58.484 -51.407  1.00  0.00     0.020 A 
HETATM   28  C   UNL     1     -43.885  57.093 -51.470  1.00  0.00     0.012 A 
ENDBRANCH   2  23
TORSDOF 3
ENDMDL
MODEL 4
REMARK VINA RESULT:      -8.1      0.935      1.597
REMARK  3 active torsions:
REMARK  status: ('A' for Active; 'I' for Inactive)
REMARK    1  A    between atoms: C_3  and  N_4 
REMARK       I    between atoms: N_4  and  C_5 
REMARK    2  A    between atoms: C_5  and  C_6 
REMARK    3  A    between atoms: C_7  and  C_8 
ROOT
HETATM    1  C   UNL     1     -42.855  56.036 -51.879  1.00  0.00     0.062 A 
HETATM    2  C   UNL     1     -43.752  56.677 -52.933  1.00  0.00     0.199 A 
HETATM    3  N   UNL     1     -43.857  58.120 -52.726  1.00  0.00    -0.092 N 
HETATM    4  C   UNL     1     -43.263  58.803 -51.702  1.00  0.00     0.735 A 
HETATM    5  N   UNL     1     -42.478  58.136 -50.833  1.00  0.00    -0.191 N 
HETATM    6  N   UNL     1     -44.689  58.929 -53.399  1.00  0.00     0.012 NA
HETATM    7  N   UNL     1     -44.522  60.122 -52.837  1.00  0.00     0.033 NA
HETATM    8  N   UNL     1     -43.640  60.056 -51.774  1.00  0.00     0.030 NA
HETATM    9  C   UNL     1     -42.258  56.764 -50.903  1.00  0.00     0.037 A 
HETATM   10  C   UNL     1     -41.354  56.188 -49.843  1.00  0.00     0.070 C 
HETATM   11  H   UNL     1     -42.022  58.649 -50.083  1.00  0.00     0.184 HD
ENDROOT
BRANCH   1  12
HETATM   12  C   UNL     1     -42.562  54.588 -52.034  1.00  0.00     0.256 C 
HETATM   13  N   UNL     1     -41.368  54.352 -52.679  1.00  0.00    -0.323 N 
HETATM   14  H   UNL     1     -40.881  55.149 -53.061  1.00  0.00     0.169 HD
HETATM   15  O   UNL     1     -43.365  53.773 -51.602  1.00  0.00    -0.267 OA
BRANCH  13  16
HETATM   16  C   UNL     1     -40.747  53.097 -52.901  1.00  0.00     0.041 A 
HETATM   17  C   UNL     1     -40.002  52.510 -51.853  1.00  0.00    -0.035 A 
HETATM   18  C   UNL     1     -39.844  53.164 -50.506  1.00  0.00     0.050 C 
HETATM   19  C   UNL     1     -39.391  51.259 -52.056  1.00  0.00     0.009 A 
HETATM   20  C   UNL     1     -39.509  50.593 -53.273  1.00  0.00     0.001 A 
HETATM   21  C   UNL     1     -40.244  51.168 -54.302  1.00  0.00     0.002 A 
HETATM   22  C   UNL     1     -40.858  52.409 -54.116  1.00  0.00     0.030 A 
ENDBRANCH  13  16
ENDBRANCH   1  12
BRANCH   2  23
HETATM   23  C   UNL     1     -43.347  56.381 -54.363  1.00  0.00    -0.011 A 
HETATM   24  C   UNL     1     -42.603  57.315 -55.084  1.00  0.00     0.125 A 
HETATM   25  N   UNL     1     -42.213  57.152 -56.367  1.00  0.00    -0.272 NA
HETATM   26  C   UNL     1     -42.566  55.996 -56.967  1.00  0.00     0.116 A 
HETATM   27  C   UNL     1     -43.284  54.994 -56.340  1.00  0.00     0.020 A 
HETATM   28  C   UNL     1     -43.676  55.189 -55.018  1.00  0.00     0.012 A 
ENDBRANCH   2  23
TORSDOF 3
ENDMDL
MODEL 5
REMARK VINA RESULT:      -8.0      2.135      4.206
REMARK  3 active torsions:
REMARK  status: ('A' for Active; 'I' for Inactive)
REMARK    1  A    between atoms: C_3  and  N_4 
REMARK       I    between atoms: N_4  and  C_5 
REMARK    2  A    between atoms: C_5  and  C_6 
REMARK    3  A    between atoms: C_7  and  C_8 
ROOT
HETATM    1  C   UNL     1     -41.944  56.184 -55.045  1.00  0.00     0.062 A 
HETATM    2  C   UNL     1     -41.703  57.669 -54.794  1.00  0.00     0.199 A 
HETATM    3  N   UNL     1     -42.841  58.469 -55.244  1.00  0.00    -0.092 N 
HETATM    4  C   UNL     1     -43.958  57.961 -55.845  1.00  0.00     0.735 A 
HETATM    5  N   UNL     1     -44.072  56.628 -56.005  1.00  0.00    -0.191 N 
HETATM    6  N   UNL     1     -42.859  59.810 -55.291  1.00  0.00     0.012 NA
HETATM    7  N   UNL     1     -44.034  60.108 -55.837  1.00  0.00     0.033 NA
HETATM    8  N   UNL     1     -44.727  58.964 -56.193  1.00  0.00     0.030 NA
HETATM    9  C   UNL     1     -43.088  55.726 -55.612  1.00  0.00     0.037 A 
HETATM   10  C   UNL     1     -43.386  54.271 -55.874  1.00  0.00     0.070 C 
HETATM   11  H   UNL     1     -44.913  56.250 -56.436  1.00  0.00     0.184 HD
ENDROOT
BRANCH   1  12
HETATM   12  C   UNL     1     -40.921  55.238 -54.530  1.00  0.00     0.256 C 
HETATM   13  N   UNL     1     -41.435  54.335 -53.627  1.00  0.00    -0.323 N 
HETATM   14  H   UNL     1     -42.393  54.464 -53.335  1.00  0.00     0.169 HD
HETATM   15  O   UNL     1     -39.769  55.341 -54.928  1.00  0.00    -0.267 OA
BRANCH  13  16
HETATM   16  C   UNL     1     -40.758  53.244 -53.025  1.00  0.00     0.041 A 
HETATM   17  C   UNL     1     -40.615  53.224 -51.618  1.00  0.00    -0.035 A 
HETATM   18  C   UNL     1     -41.157  54.314 -50.732  1.00  0.00     0.050 C 
HETATM   19  C   UNL     1     -39.955  52.142 -51.007  1.00  0.00     0.009 A 
HETATM   20  C   UNL     1     -39.442  51.094 -51.766  1.00  0.00     0.001 A 
HETATM   21  C   UNL     1     -39.586  51.112 -53.147  1.00  0.00     0.002 A 
HETATM   22  C   UNL     1     -40.240  52.179 -53.770  1.00  0.00     0.030 A 
ENDBRANCH  13  16
ENDBRANCH   1  12
BRANCH   2  23
HETATM   23  C   UNL     1     -41.355  58.013 -53.360  1.00  0.00    -0.011 A 
HETATM   24  C   UNL     1     -40.205  58.751 -53.080  1.00  0.00     0.125 A 
HETATM   25  N   UNL     1     -39.800  59.088 -51.837  1.00  0.00    -0.272 NA
HETATM   26  C   UNL     1     -40.581  58.685 -50.812  1.00  0.00     0.116 A 
HETATM   27  C   UNL     1     -41.752  57.967 -50.978  1.00  0.00     0.020 A 
HETATM   28  C   UNL     1     -42.145  57.630 -52.270  1.00  0.00     0.012 A 
ENDBRANCH   2  23
TORSDOF 3
ENDMDL
MODEL 6
REMARK VINA RESULT:      -8.0      2.089      4.641
REMARK  3 active torsions:
REMARK  status: ('A' for Active; 'I' for Inactive)
REMARK    1  A    between atoms: C_3  and  N_4 
REMARK       I    between atoms: N_4  and  C_5 
REMARK    2  A    between atoms: C_5  and  C_6 
REMARK    3  A    between atoms: C_7  and  C_8 
ROOT
HETATM    1  C   UNL     1     -42.265  56.626 -54.530  1.00  0.00     0.062 A 
HETATM    2  C   UNL     1     -42.023  58.120 -54.344  1.00  0.00     0.199 A 
HETATM    3  N   UNL     1     -42.010  58.814 -55.630  1.00  0.00    -0.092 N 
HETATM    4  C   UNL     1     -42.157  58.203 -56.844  1.00  0.00     0.735 A 
HETATM    5  N   UNL     1     -42.380  56.875 -56.891  1.00  0.00    -0.191 N 
HETATM    6  N   UNL     1     -41.674  60.102 -55.798  1.00  0.00     0.012 NA
HETATM    7  N   UNL     1     -41.712  60.287 -57.114  1.00  0.00     0.033 NA
HETATM    8  N   UNL     1     -42.006  59.110 -57.778  1.00  0.00     0.030 NA
HETATM    9  C   UNL     1     -42.441  56.073 -55.756  1.00  0.00     0.037 A 
HETATM   10  C   UNL     1     -42.694  54.606 -56.001  1.00  0.00     0.070 C 
HETATM   11  H   UNL     1     -42.507  56.425 -57.794  1.00  0.00     0.184 HD
ENDROOT
BRANCH   1  12
HETATM   12  C   UNL     1     -42.420  55.809 -53.299  1.00  0.00     0.256 C 
HETATM   13  N   UNL     1     -41.226  55.593 -52.648  1.00  0.00    -0.323 N 
HETATM   14  H   UNL     1     -40.384  55.906 -53.106  1.00  0.00     0.169 HD
HETATM   15  O   UNL     1     -43.536  55.416 -52.988  1.00  0.00    -0.267 OA
BRANCH  13  16
HETATM   16  C   UNL     1     -41.034  54.942 -51.403  1.00  0.00     0.041 A 
HETATM   17  C   UNL     1     -40.602  53.596 -51.397  1.00  0.00    -0.035 A 
HETATM   18  C   UNL     1     -40.332  52.825 -52.662  1.00  0.00     0.050 C 
HETATM   19  C   UNL     1     -40.396  52.941 -50.168  1.00  0.00     0.009 A 
HETATM   20  C   UNL     1     -40.613  53.600 -48.961  1.00  0.00     0.001 A 
HETATM   21  C   UNL     1     -41.035  54.923 -48.967  1.00  0.00     0.002 A 
HETATM   22  C   UNL     1     -41.242  55.588 -50.179  1.00  0.00     0.030 A 
ENDBRANCH  13  16
ENDBRANCH   1  12
BRANCH   2  23
HETATM   23  C   UNL     1     -42.990  58.796 -53.393  1.00  0.00    -0.011 A 
HETATM   24  C   UNL     1     -42.523  59.340 -52.196  1.00  0.00     0.125 A 
HETATM   25  N   UNL     1     -43.307  59.942 -51.276  1.00  0.00    -0.272 NA
HETATM   26  C   UNL     1     -44.624  60.024 -51.559  1.00  0.00     0.116 A 
HETATM   27  C   UNL     1     -45.189  59.538 -52.725  1.00  0.00     0.020 A 
HETATM   28  C   UNL     1     -44.359  58.919 -53.655  1.00  0.00     0.012 A 
ENDBRANCH   2  23
TORSDOF 3
ENDMDL
MODEL 7
REMARK VINA RESULT:      -7.8      1.899      2.329
REMARK  3 active torsions:
REMARK  status: ('A' for Active; 'I' for Inactive)
REMARK    1  A    between atoms: C_3  and  N_4 
REMARK       I    between atoms: N_4  and  C_5 
REMARK    2  A    between atoms: C_5  and  C_6 
REMARK    3  A    between atoms: C_7  and  C_8 
ROOT
HETATM    1  C   UNL     1     -42.341  57.355 -52.471  1.00  0.00     0.062 A 
HETATM    2  C   UNL     1     -43.478  57.771 -53.397  1.00  0.00     0.199 A 
HETATM    3  N   UNL     1     -44.221  58.901 -52.842  1.00  0.00    -0.092 N 
HETATM    4  C   UNL     1     -43.958  59.486 -51.635  1.00  0.00     0.735 A 
HETATM    5  N   UNL     1     -42.916  59.045 -50.902  1.00  0.00    -0.191 N 
HETATM    6  N   UNL     1     -45.361  59.390 -53.354  1.00  0.00     0.012 NA
HETATM    7  N   UNL     1     -45.731  60.337 -52.498  1.00  0.00     0.033 NA
HETATM    8  N   UNL     1     -44.869  60.403 -51.418  1.00  0.00     0.030 NA
HETATM    9  C   UNL     1     -42.097  57.992 -51.298  1.00  0.00     0.037 A 
HETATM   10  C   UNL     1     -40.982  57.634 -50.348  1.00  0.00     0.070 C 
HETATM   11  H   UNL     1     -42.711  59.494 -50.013  1.00  0.00     0.184 HD
ENDROOT
BRANCH   1  12
HETATM   12  C   UNL     1     -41.425  56.293 -52.961  1.00  0.00     0.256 C 
HETATM   13  N   UNL     1     -41.762  55.042 -52.496  1.00  0.00    -0.323 N 
HETATM   14  H   UNL     1     -42.502  54.984 -51.813  1.00  0.00     0.169 HD
HETATM   15  O   UNL     1     -40.497  56.605 -53.694  1.00  0.00    -0.267 OA
BRANCH  13  16
HETATM   16  C   UNL     1     -41.161  53.806 -52.846  1.00  0.00     0.041 A 
HETATM   17  C   UNL     1     -41.498  53.211 -54.084  1.00  0.00    -0.035 A 
HETATM   18  C   UNL     1     -42.467  53.840 -55.050  1.00  0.00     0.050 C 
HETATM   19  C   UNL     1     -40.899  51.991 -54.450  1.00  0.00     0.009 A 
HETATM   20  C   UNL     1     -39.983  51.363 -53.610  1.00  0.00     0.001 A 
HETATM   21  C   UNL     1     -39.650  51.948 -52.396  1.00  0.00     0.002 A 
HETATM   22  C   UNL     1     -40.235  53.161 -52.019  1.00  0.00     0.030 A 
ENDBRANCH  13  16
ENDBRANCH   1  12
BRANCH   2  23
HETATM   23  C   UNL     1     -43.049  58.073 -54.819  1.00  0.00    -0.011 A 
HETATM   24  C   UNL     1     -42.265  59.196 -55.086  1.00  0.00     0.125 A 
HETATM   25  N   UNL     1     -41.850  59.560 -56.318  1.00  0.00    -0.272 NA
HETATM   26  C   UNL     1     -42.218  58.764 -57.343  1.00  0.00     0.116 A 
HETATM   27  C   UNL     1     -42.977  57.617 -57.189  1.00  0.00     0.020 A 
HETATM   28  C   UNL     1     -43.394  57.266 -55.908  1.00  0.00     0.012 A 
ENDBRANCH   2  23
TORSDOF 3
ENDMDL
MODEL 8
REMARK VINA RESULT:      -7.7      2.469      3.379
REMARK  3 active torsions:
REMARK  status: ('A' for Active; 'I' for Inactive)
REMARK    1  A    between atoms: C_3  and  N_4 
REMARK       I    between atoms: N_4  and  C_5 
REMARK    2  A    between atoms: C_5  and  C_6 
REMARK    3  A    between atoms: C_7  and  C_8 
ROOT
HETATM    1  C   UNL     1     -42.325  58.414 -51.795  1.00  0.00     0.062 A 
HETATM    2  C   UNL     1     -43.826  58.424 -52.069  1.00  0.00     0.199 A 
HETATM    3  N   UNL     1     -44.504  59.418 -51.239  1.00  0.00    -0.092 N 
HETATM    4  C   UNL     1     -43.885  60.210 -50.313  1.00  0.00     0.735 A 
HETATM    5  N   UNL     1     -42.548  60.127 -50.164  1.00  0.00    -0.191 N 
HETATM    6  N   UNL     1     -45.835  59.555 -51.149  1.00  0.00     0.012 NA
HETATM    7  N   UNL     1     -46.011  60.501 -50.232  1.00  0.00     0.033 NA
HETATM    8  N   UNL     1     -44.803  60.913 -49.698  1.00  0.00     0.030 NA
HETATM    9  C   UNL     1     -41.753  59.246 -50.891  1.00  0.00     0.037 A 
HETATM   10  C   UNL     1     -40.276  59.290 -50.586  1.00  0.00     0.070 C 
HETATM   11  H   UNL     1     -42.087  60.730 -49.487  1.00  0.00     0.184 HD
ENDROOT
BRANCH   1  12
HETATM   12  C   UNL     1     -41.489  57.533 -52.651  1.00  0.00     0.256 C 
HETATM   13  N   UNL     1     -41.719  56.194 -52.425  1.00  0.00    -0.323 N 
HETATM   14  H   UNL     1     -42.330  55.951 -51.659  1.00  0.00     0.169 HD
HETATM   15  O   UNL     1     -40.706  58.046 -53.439  1.00  0.00    -0.267 OA
BRANCH  13  16
HETATM   16  C   UNL     1     -41.166  55.098 -53.133  1.00  0.00     0.041 A 
HETATM   17  C   UNL     1     -40.943  53.884 -52.443  1.00  0.00    -0.035 A 
HETATM   18  C   UNL     1     -41.275  53.707 -50.984  1.00  0.00     0.050 C 
HETATM   19  C   UNL     1     -40.406  52.783 -53.136  1.00  0.00     0.009 A 
HETATM   20  C   UNL     1     -40.090  52.875 -54.489  1.00  0.00     0.001 A 
HETATM   21  C   UNL     1     -40.311  54.066 -55.168  1.00  0.00     0.002 A 
HETATM   22  C   UNL     1     -40.846  55.167 -54.494  1.00  0.00     0.030 A 
ENDBRANCH  13  16
ENDBRANCH   1  12
BRANCH   2  23
HETATM   23  C   UNL     1     -44.194  58.616 -53.526  1.00  0.00    -0.011 A 
HETATM   24  C   UNL     1     -43.884  59.813 -54.171  1.00  0.00     0.125 A 
HETATM   25  N   UNL     1     -44.189  60.087 -55.457  1.00  0.00    -0.272 NA
HETATM   26  C   UNL     1     -44.824  59.120 -56.151  1.00  0.00     0.116 A 
HETATM   27  C   UNL     1     -45.161  57.888 -55.617  1.00  0.00     0.020 A 
HETATM   28  C   UNL     1     -44.837  57.633 -54.287  1.00  0.00     0.012 A 
ENDBRANCH   2  23
TORSDOF 3
ENDMDL
MODEL 9
REMARK VINA RESULT:      -7.4      2.414      6.321
REMARK  3 active torsions:
REMARK  status: ('A' for Active; 'I' for Inactive)
REMARK    1  A    between atoms: C_3  and  N_4 
REMARK       I    between atoms: N_4  and  C_5 
REMARK    2  A    between atoms: C_5  and  C_6 
REMARK    3  A    between atoms: C_7  and  C_8 
ROOT
HETATM    1  C   UNL     1     -41.667  55.804 -53.163  1.00  0.00     0.062 A 
HETATM    2  C   UNL     1     -42.158  56.102 -51.750  1.00  0.00     0.199 A 
HETATM    3  N   UNL     1     -41.611  55.143 -50.791  1.00  0.00    -0.092 N 
HETATM    4  C   UNL     1     -40.798  54.094 -51.119  1.00  0.00     0.735 A 
HETATM    5  N   UNL     1     -40.415  53.933 -52.401  1.00  0.00    -0.191 N 
HETATM    6  N   UNL     1     -41.978  55.059 -49.503  1.00  0.00     0.012 NA
HETATM    7  N   UNL     1     -41.308  54.011 -49.034  1.00  0.00     0.033 NA
HETATM    8  N   UNL     1     -40.573  53.397 -50.033  1.00  0.00     0.030 NA
HETATM    9  C   UNL     1     -40.830  54.771 -53.432  1.00  0.00     0.037 A 
HETATM   10  C   UNL     1     -40.304  54.435 -54.805  1.00  0.00     0.070 C 
HETATM   11  H   UNL     1     -39.795  53.163 -52.640  1.00  0.00     0.184 HD
ENDROOT
BRANCH   1  12
HETATM   12  C   UNL     1     -42.049  56.768 -54.227  1.00  0.00     0.256 C 
HETATM   13  N   UNL     1     -43.277  56.490 -54.784  1.00  0.00    -0.323 N 
HETATM   14  H   UNL     1     -43.732  55.635 -54.502  1.00  0.00     0.169 HD
HETATM   15  O   UNL     1     -41.277  57.676 -54.505  1.00  0.00    -0.267 OA
BRANCH  13  16
HETATM   16  C   UNL     1     -43.976  57.261 -55.747  1.00  0.00     0.041 A 
HETATM   17  C   UNL     1     -43.814  56.949 -57.117  1.00  0.00    -0.035 A 
HETATM   18  C   UNL     1     -42.931  55.827 -57.595  1.00  0.00     0.050 C 
HETATM   19  C   UNL     1     -44.511  57.698 -58.083  1.00  0.00     0.009 A 
HETATM   20  C   UNL     1     -45.355  58.741 -57.708  1.00  0.00     0.001 A 
HETATM   21  C   UNL     1     -45.516  59.045 -56.363  1.00  0.00     0.002 A 
HETATM   22  C   UNL     1     -44.832  58.309 -55.392  1.00  0.00     0.030 A 
ENDBRANCH  13  16
ENDBRANCH   1  12
BRANCH   2  23
HETATM   23  C   UNL     1     -41.895  57.519 -51.283  1.00  0.00    -0.011 A 
HETATM   24  C   UNL     1     -42.932  58.451 -51.267  1.00  0.00     0.125 A 
HETATM   25  N   UNL     1     -42.793  59.740 -50.889  1.00  0.00    -0.272 NA
HETATM   26  C   UNL     1     -41.564  60.128 -50.491  1.00  0.00     0.116 A 
HETATM   27  C   UNL     1     -40.470  59.281 -50.447  1.00  0.00     0.020 A 
HETATM   28  C   UNL     1     -40.640  57.958 -50.845  1.00  0.00     0.012 A 
ENDBRANCH   2  23
TORSDOF 3
ENDMDL
MODEL 10
REMARK VINA RESULT:      -7.3      2.974      5.507
REMARK  3 active torsions:
REMARK  status: ('A' for Active; 'I' for Inactive)
REMARK    1  A    between atoms: C_3  and  N_4 
REMARK       I    between atoms: N_4  and  C_5 
REMARK    2  A    between atoms: C_5  and  C_6 
REMARK    3  A    between atoms: C_7  and  C_8 
ROOT
HETATM    1  C   UNL     1     -42.367  57.483 -56.336  1.00  0.00     0.062 A 
HETATM    2  C   UNL     1     -41.915  58.916 -56.072  1.00  0.00     0.199 A 
HETATM    3  N   UNL     1     -41.898  59.697 -57.307  1.00  0.00    -0.092 N 
HETATM    4  C   UNL     1     -42.207  59.203 -58.543  1.00  0.00     0.735 A 
HETATM    5  N   UNL     1     -42.609  57.922 -58.659  1.00  0.00    -0.191 N 
HETATM    6  N   UNL     1     -41.405  60.940 -57.416  1.00  0.00     0.012 NA
HETATM    7  N   UNL     1     -41.508  61.227 -58.710  1.00  0.00     0.033 NA
HETATM    8  N   UNL     1     -42.001  60.150 -59.425  1.00  0.00     0.030 NA
HETATM    9  C   UNL     1     -42.699  57.051 -57.578  1.00  0.00     0.037 A 
HETATM   10  C   UNL     1     -43.162  55.651 -57.898  1.00  0.00     0.070 C 
HETATM   11  H   UNL     1     -42.857  57.561 -59.577  1.00  0.00     0.184 HD
ENDROOT
BRANCH   1  12
HETATM   12  C   UNL     1     -42.546  56.603 -55.153  1.00  0.00     0.256 C 
HETATM   13  N   UNL     1     -41.350  56.176 -54.620  1.00  0.00    -0.323 N 
HETATM   14  H   UNL     1     -40.507  56.406 -55.125  1.00  0.00     0.169 HD
HETATM   15  O   UNL     1     -43.680  56.343 -54.776  1.00  0.00    -0.267 OA
BRANCH  13  16
HETATM   16  C   UNL     1     -41.161  55.411 -53.441  1.00  0.00     0.041 A 
HETATM   17  C   UNL     1     -40.661  54.094 -53.556  1.00  0.00    -0.035 A 
HETATM   18  C   UNL     1     -40.316  53.470 -54.883  1.00  0.00     0.050 C 
HETATM   19  C   UNL     1     -40.457  53.328 -52.393  1.00  0.00     0.009 A 
HETATM   20  C   UNL     1     -40.743  53.849 -51.134  1.00  0.00     0.001 A 
HETATM   21  C   UNL     1     -41.231  55.144 -51.020  1.00  0.00     0.002 A 
HETATM   22  C   UNL     1     -41.437  55.918 -52.165  1.00  0.00     0.030 A 
ENDBRANCH  13  16
ENDBRANCH   1  12
BRANCH   2  23
HETATM   23  C   UNL     1     -42.715  59.637 -55.006  1.00  0.00    -0.011 A 
HETATM   24  C   UNL     1     -42.083  60.093 -53.849  1.00  0.00     0.125 A 
HETATM   25  N   UNL     1     -42.712  60.726 -52.836  1.00  0.00    -0.272 NA
HETATM   26  C   UNL     1     -44.038  60.933 -52.978  1.00  0.00     0.116 A 
HETATM   27  C   UNL     1     -44.760  60.541 -54.091  1.00  0.00     0.020 A 
HETATM   28  C   UNL     1     -44.087  59.888 -55.121  1.00  0.00     0.012 A 
ENDBRANCH   2  23
TORSDOF 3
ENDMDL
