MODEL 1
REMARK VINA RESULT:      -8.0      0.000      0.000
REMARK  6 active torsions:
REMARK  status: ('A' for Active; 'I' for Inactive)
REMARK    1  A    between atoms: C_8  and  C_9 
REMARK    2  A    between atoms: C_9  and  C_10 
REMARK       I    between atoms: C_10  and  N_11 
REMARK    3  A    between atoms: N_11  and  C_12 
REMARK    4  A    between atoms: C_12  and  C_13 
REMARK    5  A    between atoms: C_13  and  N_14 
REMARK    6  A    between atoms: C_13  and  C_20 
ROOT
HETATM    1  C   UNL     1     -41.506  55.476 -54.623  1.00  0.00     0.160 C 
ENDROOT
BRANCH   1   2
HETATM    2  N   UNL     1     -42.534  55.807 -55.611  1.00  0.00    -0.358 N 
HETATM    3  C   UNL     1     -42.950  57.088 -55.914  1.00  0.00     0.226 C 
HETATM    4  O   UNL     1     -42.615  58.046 -55.218  1.00  0.00    -0.273 OA
HETATM    5  H   UNL     1     -42.670  55.122 -56.353  1.00  0.00     0.162 HD
BRANCH   3   6
HETATM    6  C   UNL     1     -43.857  57.191 -57.148  1.00  0.00     0.111 C 
HETATM    7  C   UNL     1     -44.727  58.444 -57.102  1.00  0.00     0.025 C 
BRANCH   6   8
HETATM    8  C   UNL     1     -43.037  57.111 -58.407  1.00  0.00     0.004 A 
HETATM    9  C   UNL     1     -42.079  57.994 -58.884  1.00  0.00     0.033 A 
HETATM   10  C   UNL     1     -41.550  59.279 -58.370  1.00  0.00     0.070 C 
HETATM   11  N   UNL     1     -41.634  57.462 -60.064  1.00  0.00    -0.282 N 
HETATM   12  H   UNL     1     -40.947  57.842 -60.709  1.00  0.00     0.189 HD
HETATM   13  N   UNL     1     -42.191  56.285 -60.361  1.00  0.00    -0.179 NA
HETATM   14  C   UNL     1     -43.083  56.080 -59.390  1.00  0.00     0.060 A 
HETATM   15  C   UNL     1     -43.951  54.874 -59.432  1.00  0.00     0.073 C 
ENDBRANCH   6   8
ENDBRANCH   3   6
ENDBRANCH   1   2
BRANCH   1  16
HETATM   16  C   UNL     1     -41.978  54.729 -53.326  1.00  0.00     0.238 C 
BRANCH  16  17
HETATM   17  N   UNL     1     -42.149  55.707 -52.168  1.00  0.00    -0.061 N 
HETATM   18  H   UNL     1     -41.727  55.198 -51.363  1.00  0.00     0.280 HD
HETATM   19  C   UNL     1     -43.543  56.066 -51.715  1.00  0.00     0.236 C 
HETATM   20  C   UNL     1     -43.617  57.569 -51.882  1.00  0.00     0.029 C 
HETATM   21  C   UNL     1     -42.209  58.016 -51.546  1.00  0.00     0.029 C 
HETATM   22  C   UNL     1     -41.350  56.987 -52.257  1.00  0.00     0.236 C 
ENDBRANCH  16  17
BRANCH  16  23
HETATM   23  C   UNL     1     -41.109  53.524 -52.982  1.00  0.00    -0.024 A 
HETATM   24  C   UNL     1     -40.843  52.497 -53.906  1.00  0.00     0.033 A 
HETATM   25  C   UNL     1     -40.013  51.427 -53.564  1.00  0.00     0.034 A 
HETATM   26 CL   UNL     1     -39.695  50.201 -54.726  1.00  0.00    -0.084 Cl
HETATM   27  C   UNL     1     -39.441  51.349 -52.298  1.00  0.00     0.024 A 
HETATM   28  C   UNL     1     -39.709  52.345 -51.363  1.00  0.00     0.002 A 
HETATM   29  C   UNL     1     -40.538  53.419 -51.700  1.00  0.00     0.009 A 
ENDBRANCH  16  23
ENDBRANCH   1  16
TORSDOF 6
ENDMDL
MODEL 2
REMARK VINA RESULT:      -7.5      2.453      4.500
REMARK  6 active torsions:
REMARK  status: ('A' for Active; 'I' for Inactive)
REMARK    1  A    between atoms: C_8  and  C_9 
REMARK    2  A    between atoms: C_9  and  C_10 
REMARK       I    between atoms: C_10  and  N_11 
REMARK    3  A    between atoms: N_11  and  C_12 
REMARK    4  A    between atoms: C_12  and  C_13 
REMARK    5  A    between atoms: C_13  and  N_14 
REMARK    6  A    between atoms: C_13  and  C_20 
ROOT
HETATM    1  C   UNL     1     -43.263  54.585 -52.873  1.00  0.00     0.160 C 
ENDROOT
BRANCH   1   2
HETATM    2  N   UNL     1     -43.973  55.865 -52.859  1.00  0.00    -0.358 N 
HETATM    3  C   UNL     1     -43.988  56.744 -51.795  1.00  0.00     0.226 C 
HETATM    4  O   UNL     1     -43.556  56.413 -50.691  1.00  0.00    -0.273 OA
HETATM    5  H   UNL     1     -44.139  56.288 -53.771  1.00  0.00     0.162 HD
BRANCH   3   6
HETATM    6  C   UNL     1     -44.596  58.118 -52.109  1.00  0.00     0.111 C 
HETATM    7  C   UNL     1     -45.044  58.837 -50.839  1.00  0.00     0.025 C 
BRANCH   6   8
HETATM    8  C   UNL     1     -43.633  58.941 -52.921  1.00  0.00     0.004 A 
HETATM    9  C   UNL     1     -42.356  59.373 -52.591  1.00  0.00     0.033 A 
HETATM   10  C   UNL     1     -41.521  59.209 -51.377  1.00  0.00     0.070 C 
HETATM   11  N   UNL     1     -41.910  60.085 -53.672  1.00  0.00    -0.282 N 
HETATM   12  H   UNL     1     -41.026  60.572 -53.786  1.00  0.00     0.189 HD
HETATM   13  N   UNL     1     -42.775  60.105 -54.690  1.00  0.00    -0.179 NA
HETATM   14  C   UNL     1     -43.848  59.457 -54.232  1.00  0.00     0.060 A 
HETATM   15  C   UNL     1     -45.056  59.340 -55.090  1.00  0.00     0.073 C 
ENDBRANCH   6   8
ENDBRANCH   3   6
ENDBRANCH   1   2
BRANCH   1  16
HETATM   16  C   UNL     1     -41.786  54.593 -53.400  1.00  0.00     0.238 C 
BRANCH  16  17
HETATM   17  N   UNL     1     -41.745  54.890 -54.896  1.00  0.00    -0.061 N 
HETATM   18  H   UNL     1     -40.914  54.351 -55.222  1.00  0.00     0.280 HD
HETATM   19  C   UNL     1     -41.494  56.306 -55.353  1.00  0.00     0.236 C 
HETATM   20  C   UNL     1     -42.714  56.655 -56.180  1.00  0.00     0.029 C 
HETATM   21  C   UNL     1     -43.062  55.338 -56.841  1.00  0.00     0.029 C 
HETATM   22  C   UNL     1     -42.890  54.338 -55.713  1.00  0.00     0.236 C 
ENDBRANCH  16  17
BRANCH  16  23
HETATM   23  C   UNL     1     -41.003  53.345 -53.005  1.00  0.00    -0.024 A 
HETATM   24  C   UNL     1     -40.693  52.327 -53.924  1.00  0.00     0.033 A 
HETATM   25  C   UNL     1     -39.943  51.215 -53.532  1.00  0.00     0.034 A 
HETATM   26 CL   UNL     1     -39.566  50.001 -54.689  1.00  0.00    -0.084 Cl
HETATM   27  C   UNL     1     -39.498  51.087 -52.220  1.00  0.00     0.024 A 
HETATM   28  C   UNL     1     -39.812  52.075 -51.290  1.00  0.00     0.002 A 
HETATM   29  C   UNL     1     -40.561  53.190 -51.678  1.00  0.00     0.009 A 
ENDBRANCH  16  23
ENDBRANCH   1  16
TORSDOF 6
ENDMDL
MODEL 3
REMARK VINA RESULT:      -7.4      1.782      2.253
REMARK  6 active torsions:
REMARK  status: ('A' for Active; 'I' for Inactive)
REMARK    1  A    between atoms: C_8  and  C_9 
REMARK    2  A    between atoms: C_9  and  C_10 
REMARK       I    between atoms: C_10  and  N_11 
REMARK    3  A    between atoms: N_11  and  C_12 
REMARK    4  A    between atoms: C_12  and  C_13 
REMARK    5  A    between atoms: C_13  and  N_14 
REMARK    6  A    between atoms: C_13  and  C_20 
ROOT
HETATM    1  C   UNL     1     -43.543  54.694 -54.099  1.00  0.00     0.160 C 
ENDROOT
BRANCH   1   2
HETATM    2  N   UNL     1     -43.959  55.685 -55.093  1.00  0.00    -0.358 N 
HETATM    3  C   UNL     1     -43.120  56.271 -56.019  1.00  0.00     0.226 C 
HETATM    4  O   UNL     1     -41.898  56.140 -55.941  1.00  0.00    -0.273 OA
HETATM    5  H   UNL     1     -44.943  55.660 -55.357  1.00  0.00     0.162 HD
BRANCH   3   6
HETATM    6  C   UNL     1     -43.834  57.091 -57.102  1.00  0.00     0.111 C 
HETATM    7  C   UNL     1     -44.141  58.507 -56.623  1.00  0.00     0.025 C 
BRANCH   6   8
HETATM    8  C   UNL     1     -43.033  57.080 -58.376  1.00  0.00     0.004 A 
HETATM    9  C   UNL     1     -42.084  57.989 -58.821  1.00  0.00     0.033 A 
HETATM   10  C   UNL     1     -41.550  59.247 -58.247  1.00  0.00     0.070 C 
HETATM   11  N   UNL     1     -41.657  57.523 -60.035  1.00  0.00    -0.282 N 
HETATM   12  H   UNL     1     -40.982  57.938 -60.670  1.00  0.00     0.189 HD
HETATM   13  N   UNL     1     -42.217  56.361 -60.385  1.00  0.00    -0.179 NA
HETATM   14  C   UNL     1     -43.093  56.103 -59.413  1.00  0.00     0.060 A 
HETATM   15  C   UNL     1     -43.959  54.899 -59.505  1.00  0.00     0.073 C 
ENDBRANCH   6   8
ENDBRANCH   3   6
ENDBRANCH   1   2
BRANCH   1  16
HETATM   16  C   UNL     1     -43.119  55.233 -52.688  1.00  0.00     0.238 C 
BRANCH  16  17
HETATM   17  N   UNL     1     -42.780  56.719 -52.754  1.00  0.00    -0.061 N 
HETATM   18  H   UNL     1     -43.151  57.006 -53.685  1.00  0.00     0.280 HD
HETATM   19  C   UNL     1     -41.330  57.137 -52.765  1.00  0.00     0.236 C 
HETATM   20  C   UNL     1     -41.186  58.026 -51.548  1.00  0.00     0.029 C 
HETATM   21  C   UNL     1     -42.526  58.728 -51.482  1.00  0.00     0.029 C 
HETATM   22  C   UNL     1     -43.508  57.610 -51.774  1.00  0.00     0.236 C 
ENDBRANCH  16  17
BRANCH  16  23
HETATM   23  C   UNL     1     -42.034  54.390 -52.028  1.00  0.00    -0.024 A 
HETATM   24  C   UNL     1     -41.807  54.404 -50.640  1.00  0.00     0.033 A 
HETATM   25  C   UNL     1     -40.826  53.590 -50.069  1.00  0.00     0.034 A 
HETATM   26 CL   UNL     1     -40.591  53.621 -48.366  1.00  0.00    -0.084 Cl
HETATM   27  C   UNL     1     -40.046  52.756 -50.862  1.00  0.00     0.024 A 
HETATM   28  C   UNL     1     -40.242  52.742 -52.241  1.00  0.00     0.002 A 
HETATM   29  C   UNL     1     -41.223  53.554 -52.818  1.00  0.00     0.009 A 
ENDBRANCH  16  23
ENDBRANCH   1  16
TORSDOF 6
ENDMDL
MODEL 4
REMARK VINA RESULT:      -7.3      1.567      1.849
REMARK  6 active torsions:
REMARK  status: ('A' for Active; 'I' for Inactive)
REMARK    1  A    between atoms: C_8  and  C_9 
REMARK    2  A    between atoms: C_9  and  C_10 
REMARK       I    between atoms: C_10  and  N_11 
REMARK    3  A    between atoms: N_11  and  C_12 
REMARK    4  A    between atoms: C_12  and  C_13 
REMARK    5  A    between atoms: C_13  and  N_14 
REMARK    6  A    between atoms: C_13  and  C_20 
ROOT
HETATM    1  C   UNL     1     -41.248  55.595 -55.175  1.00  0.00     0.160 C 
ENDROOT
BRANCH   1   2
HETATM    2  N   UNL     1     -42.012  56.630 -55.874  1.00  0.00    -0.358 N 
HETATM    3  C   UNL     1     -43.021  56.382 -56.783  1.00  0.00     0.226 C 
HETATM    4  O   UNL     1     -43.217  55.249 -57.222  1.00  0.00    -0.273 OA
HETATM    5  H   UNL     1     -42.065  57.532 -55.405  1.00  0.00     0.162 HD
BRANCH   3   6
HETATM    6  C   UNL     1     -43.830  57.620 -57.194  1.00  0.00     0.111 C 
HETATM    7  C   UNL     1     -43.034  58.906 -56.986  1.00  0.00     0.025 C 
BRANCH   6   8
HETATM    8  C   UNL     1     -44.321  57.475 -58.609  1.00  0.00     0.004 A 
HETATM    9  C   UNL     1     -43.591  57.277 -59.773  1.00  0.00     0.033 A 
HETATM   10  C   UNL     1     -42.138  57.159 -60.041  1.00  0.00     0.070 C 
HETATM   11  N   UNL     1     -44.510  57.214 -60.785  1.00  0.00    -0.282 N 
HETATM   12  H   UNL     1     -44.345  57.099 -61.781  1.00  0.00     0.189 HD
HETATM   13  N   UNL     1     -45.774  57.305 -60.363  1.00  0.00    -0.179 NA
HETATM   14  C   UNL     1     -45.676  57.515 -59.049  1.00  0.00     0.060 A 
HETATM   15  C   UNL     1     -46.908  57.733 -58.246  1.00  0.00     0.073 C 
ENDBRANCH   6   8
ENDBRANCH   3   6
ENDBRANCH   1   2
BRANCH   1  16
HETATM   16  C   UNL     1     -41.807  55.105 -53.794  1.00  0.00     0.238 C 
BRANCH  16  17
HETATM   17  N   UNL     1     -41.892  56.260 -52.801  1.00  0.00    -0.061 N 
HETATM   18  H   UNL     1     -41.548  55.835 -51.913  1.00  0.00     0.280 HD
HETATM   19  C   UNL     1     -43.246  56.832 -52.461  1.00  0.00     0.236 C 
HETATM   20  C   UNL     1     -43.146  58.292 -52.851  1.00  0.00     0.029 C 
HETATM   21  C   UNL     1     -41.704  58.628 -52.531  1.00  0.00     0.029 C 
HETATM   22  C   UNL     1     -40.952  57.417 -53.048  1.00  0.00     0.236 C 
ENDBRANCH  16  17
BRANCH  16  23
HETATM   23  C   UNL     1     -41.069  53.886 -53.249  1.00  0.00    -0.024 A 
HETATM   24  C   UNL     1     -40.822  52.742 -54.029  1.00  0.00     0.033 A 
HETATM   25  C   UNL     1     -40.111  51.660 -53.504  1.00  0.00     0.034 A 
HETATM   26 CL   UNL     1     -39.812  50.287 -54.495  1.00  0.00    -0.084 Cl
HETATM   27  C   UNL     1     -39.641  51.688 -52.196  1.00  0.00     0.024 A 
HETATM   28  C   UNL     1     -39.892  52.803 -51.401  1.00  0.00     0.002 A 
HETATM   29  C   UNL     1     -40.603  53.889 -51.921  1.00  0.00     0.009 A 
ENDBRANCH  16  23
ENDBRANCH   1  16
TORSDOF 6
ENDMDL
MODEL 5
REMARK VINA RESULT:      -6.9      2.166      3.175
REMARK  6 active torsions:
REMARK  status: ('A' for Active; 'I' for Inactive)
REMARK    1  A    between atoms: C_8  and  C_9 
REMARK    2  A    between atoms: C_9  and  C_10 
REMARK       I    between atoms: C_10  and  N_11 
REMARK    3  A    between atoms: N_11  and  C_12 
REMARK    4  A    between atoms: C_12  and  C_13 
REMARK    5  A    between atoms: C_13  and  N_14 
REMARK    6  A    between atoms: C_13  and  C_20 
ROOT
HETATM    1  C   UNL     1     -43.903  56.209 -54.708  1.00  0.00     0.160 C 
ENDROOT
BRANCH   1   2
HETATM    2  N   UNL     1     -43.664  56.120 -56.149  1.00  0.00    -0.358 N 
HETATM    3  C   UNL     1     -43.903  57.139 -57.049  1.00  0.00     0.226 C 
HETATM    4  O   UNL     1     -44.530  58.145 -56.718  1.00  0.00    -0.273 OA
HETATM    5  H   UNL     1     -42.961  55.443 -56.440  1.00  0.00     0.162 HD
BRANCH   3   6
HETATM    6  C   UNL     1     -43.349  56.891 -58.459  1.00  0.00     0.111 C 
HETATM    7  C   UNL     1     -43.420  55.414 -58.838  1.00  0.00     0.025 C 
BRANCH   6   8
HETATM    8  C   UNL     1     -44.051  57.771 -59.457  1.00  0.00     0.004 A 
HETATM    9  C   UNL     1     -45.355  57.695 -59.927  1.00  0.00     0.033 A 
HETATM   10  C   UNL     1     -46.471  56.760 -59.648  1.00  0.00     0.070 C 
HETATM   11  N   UNL     1     -45.493  58.725 -60.818  1.00  0.00    -0.282 N 
HETATM   12  H   UNL     1     -46.304  58.971 -61.378  1.00  0.00     0.189 HD
HETATM   13  N   UNL     1     -44.402  59.488 -60.923  1.00  0.00    -0.179 NA
HETATM   14  C   UNL     1     -43.499  58.893 -60.141  1.00  0.00     0.060 A 
HETATM   15  C   UNL     1     -42.120  59.441 -60.064  1.00  0.00     0.073 C 
ENDBRANCH   6   8
ENDBRANCH   3   6
ENDBRANCH   1   2
BRANCH   1  16
HETATM   16  C   UNL     1     -42.645  56.367 -53.784  1.00  0.00     0.238 C 
BRANCH  16  17
HETATM   17  N   UNL     1     -41.959  57.708 -54.027  1.00  0.00    -0.061 N 
HETATM   18  H   UNL     1     -41.749  57.686 -55.048  1.00  0.00     0.280 HD
HETATM   19  C   UNL     1     -40.631  57.980 -53.362  1.00  0.00     0.236 C 
HETATM   20  C   UNL     1     -40.876  59.219 -52.527  1.00  0.00     0.029 C 
HETATM   21  C   UNL     1     -41.859  60.005 -53.370  1.00  0.00     0.029 C 
HETATM   22  C   UNL     1     -42.822  58.937 -53.852  1.00  0.00     0.236 C 
ENDBRANCH  16  17
BRANCH  16  23
HETATM   23  C   UNL     1     -41.695  55.176 -53.858  1.00  0.00    -0.024 A 
HETATM   24  C   UNL     1     -41.388  54.386 -52.735  1.00  0.00     0.033 A 
HETATM   25  C   UNL     1     -40.541  53.281 -52.850  1.00  0.00     0.034 A 
HETATM   26 CL   UNL     1     -40.205  52.327 -51.460  1.00  0.00    -0.084 Cl
HETATM   27  C   UNL     1     -39.977  52.945 -54.076  1.00  0.00     0.024 A 
HETATM   28  C   UNL     1     -40.253  53.726 -55.195  1.00  0.00     0.002 A 
HETATM   29  C   UNL     1     -41.100  54.833 -55.086  1.00  0.00     0.009 A 
ENDBRANCH  16  23
ENDBRANCH   1  16
TORSDOF 6
ENDMDL
MODEL 6
REMARK VINA RESULT:      -6.8      2.712      4.623
REMARK  6 active torsions:
REMARK  status: ('A' for Active; 'I' for Inactive)
REMARK    1  A    between atoms: C_8  and  C_9 
REMARK    2  A    between atoms: C_9  and  C_10 
REMARK       I    between atoms: C_10  and  N_11 
REMARK    3  A    between atoms: N_11  and  C_12 
REMARK    4  A    between atoms: C_12  and  C_13 
REMARK    5  A    between atoms: C_13  and  N_14 
REMARK    6  A    between atoms: C_13  and  C_20 
ROOT
HETATM    1  C   UNL     1     -43.292  56.930 -55.448  1.00  0.00     0.160 C 
ENDROOT
BRANCH   1   2
HETATM    2  N   UNL     1     -43.540  57.532 -56.759  1.00  0.00    -0.358 N 
HETATM    3  C   UNL     1     -43.324  56.901 -57.968  1.00  0.00     0.226 C 
HETATM    4  O   UNL     1     -42.710  55.835 -58.027  1.00  0.00    -0.273 OA
HETATM    5  H   UNL     1     -44.235  58.276 -56.779  1.00  0.00     0.162 HD
BRANCH   3   6
HETATM    6  C   UNL     1     -43.885  57.644 -59.188  1.00  0.00     0.111 C 
HETATM    7  C   UNL     1     -42.902  57.629 -60.356  1.00  0.00     0.025 C 
BRANCH   6   8
HETATM    8  C   UNL     1     -45.230  57.086 -59.566  1.00  0.00     0.004 A 
HETATM    9  C   UNL     1     -45.542  55.845 -60.104  1.00  0.00     0.033 A 
HETATM   10  C   UNL     1     -44.712  54.683 -60.501  1.00  0.00     0.070 C 
HETATM   11  N   UNL     1     -46.902  55.836 -60.262  1.00  0.00    -0.282 N 
HETATM   12  H   UNL     1     -47.488  55.102 -60.650  1.00  0.00     0.189 HD
HETATM   13  N   UNL     1     -47.496  56.949 -59.823  1.00  0.00    -0.179 NA
HETATM   14  C   UNL     1     -46.490  57.740 -59.443  1.00  0.00     0.060 A 
HETATM   15  C   UNL     1     -46.780  59.112 -58.951  1.00  0.00     0.073 C 
ENDBRANCH   6   8
ENDBRANCH   3   6
ENDBRANCH   1   2
BRANCH   1  16
HETATM   16  C   UNL     1     -41.797  56.651 -55.063  1.00  0.00     0.238 C 
BRANCH  16  17
HETATM   17  N   UNL     1     -41.411  55.212 -55.393  1.00  0.00    -0.061 N 
HETATM   18  H   UNL     1     -41.316  55.223 -56.431  1.00  0.00     0.280 HD
HETATM   19  C   UNL     1     -42.398  54.107 -55.103  1.00  0.00     0.236 C 
HETATM   20  C   UNL     1     -41.664  53.189 -54.149  1.00  0.00     0.029 C 
HETATM   21  C   UNL     1     -40.231  53.277 -54.630  1.00  0.00     0.029 C 
HETATM   22  C   UNL     1     -40.056  54.759 -54.901  1.00  0.00     0.236 C 
ENDBRANCH  16  17
BRANCH  16  23
HETATM   23  C   UNL     1     -41.462  57.058 -53.632  1.00  0.00    -0.024 A 
HETATM   24  C   UNL     1     -41.839  56.284 -52.520  1.00  0.00     0.033 A 
HETATM   25  C   UNL     1     -41.482  56.673 -51.226  1.00  0.00     0.034 A 
HETATM   26 CL   UNL     1     -41.943  55.690 -49.893  1.00  0.00    -0.084 Cl
HETATM   27  C   UNL     1     -40.757  57.840 -51.011  1.00  0.00     0.024 A 
HETATM   28  C   UNL     1     -40.392  58.630 -52.097  1.00  0.00     0.002 A 
HETATM   29  C   UNL     1     -40.745  58.246 -53.394  1.00  0.00     0.009 A 
ENDBRANCH  16  23
ENDBRANCH   1  16
TORSDOF 6
ENDMDL
MODEL 7
REMARK VINA RESULT:      -6.8      3.586      6.054
REMARK  6 active torsions:
REMARK  status: ('A' for Active; 'I' for Inactive)
REMARK    1  A    between atoms: C_8  and  C_9 
REMARK    2  A    between atoms: C_9  and  C_10 
REMARK       I    between atoms: C_10  and  N_11 
REMARK    3  A    between atoms: N_11  and  C_12 
REMARK    4  A    between atoms: C_12  and  C_13 
REMARK    5  A    between atoms: C_13  and  N_14 
REMARK    6  A    between atoms: C_13  and  C_20 
ROOT
HETATM    1  C   UNL     1     -44.803  58.154 -54.034  1.00  0.00     0.160 C 
ENDROOT
BRANCH   1   2
HETATM    2  N   UNL     1     -44.626  56.707 -54.170  1.00  0.00    -0.358 N 
HETATM    3  C   UNL     1     -43.485  56.097 -54.651  1.00  0.00     0.226 C 
HETATM    4  O   UNL     1     -42.593  56.751 -55.191  1.00  0.00    -0.273 OA
HETATM    5  H   UNL     1     -45.196  56.132 -53.553  1.00  0.00     0.162 HD
BRANCH   3   6
HETATM    6  C   UNL     1     -43.451  54.572 -54.472  1.00  0.00     0.111 C 
HETATM    7  C   UNL     1     -43.392  53.850 -55.815  1.00  0.00     0.025 C 
BRANCH   6   8
HETATM    8  C   UNL     1     -42.319  54.179 -53.562  1.00  0.00     0.004 A 
HETATM    9  C   UNL     1     -40.976  54.001 -53.863  1.00  0.00     0.033 A 
HETATM   10  C   UNL     1     -40.205  54.108 -55.124  1.00  0.00     0.070 C 
HETATM   11  N   UNL     1     -40.372  53.647 -52.687  1.00  0.00    -0.282 N 
HETATM   12  H   UNL     1     -39.397  53.414 -52.522  1.00  0.00     0.189 HD
HETATM   13  N   UNL     1     -41.207  53.631 -51.643  1.00  0.00    -0.179 NA
HETATM   14  C   UNL     1     -42.404  53.903 -52.166  1.00  0.00     0.060 A 
HETATM   15  C   UNL     1     -43.604  53.905 -51.290  1.00  0.00     0.073 C 
ENDBRANCH   6   8
ENDBRANCH   3   6
ENDBRANCH   1   2
BRANCH   1  16
HETATM   16  C   UNL     1     -44.588  58.767 -52.606  1.00  0.00     0.238 C 
BRANCH  16  17
HETATM   17  N   UNL     1     -45.031  60.227 -52.569  1.00  0.00    -0.061 N 
HETATM   18  H   UNL     1     -44.146  60.738 -52.365  1.00  0.00     0.280 HD
HETATM   19  C   UNL     1     -45.995  60.670 -51.496  1.00  0.00     0.236 C 
HETATM   20  C   UNL     1     -47.184  61.212 -52.260  1.00  0.00     0.029 C 
HETATM   21  C   UNL     1     -46.544  61.838 -53.482  1.00  0.00     0.029 C 
HETATM   22  C   UNL     1     -45.502  60.810 -53.881  1.00  0.00     0.236 C 
ENDBRANCH  16  17
BRANCH  16  23
HETATM   23  C   UNL     1     -43.178  58.545 -52.066  1.00  0.00    -0.024 A 
HETATM   24  C   UNL     1     -42.881  57.546 -51.122  1.00  0.00     0.033 A 
HETATM   25  C   UNL     1     -41.571  57.350 -50.678  1.00  0.00     0.034 A 
HETATM   26 CL   UNL     1     -41.243  56.106 -49.538  1.00  0.00    -0.084 Cl
HETATM   27  C   UNL     1     -40.535  58.147 -51.154  1.00  0.00     0.024 A 
HETATM   28  C   UNL     1     -40.812  59.154 -52.074  1.00  0.00     0.002 A 
HETATM   29  C   UNL     1     -42.121  59.354 -52.522  1.00  0.00     0.009 A 
ENDBRANCH  16  23
ENDBRANCH   1  16
TORSDOF 6
ENDMDL
MODEL 8
REMARK VINA RESULT:      -6.7      2.532      3.380
REMARK  6 active torsions:
REMARK  status: ('A' for Active; 'I' for Inactive)
REMARK    1  A    between atoms: C_8  and  C_9 
REMARK    2  A    between atoms: C_9  and  C_10 
REMARK       I    between atoms: C_10  and  N_11 
REMARK    3  A    between atoms: N_11  and  C_12 
REMARK    4  A    between atoms: C_12  and  C_13 
REMARK    5  A    between atoms: C_13  and  N_14 
REMARK    6  A    between atoms: C_13  and  C_20 
ROOT
HETATM    1  C   UNL     1     -43.822  55.400 -54.301  1.00  0.00     0.160 C 
ENDROOT
BRANCH   1   2
HETATM    2  N   UNL     1     -44.024  56.295 -55.442  1.00  0.00    -0.358 N 
HETATM    3  C   UNL     1     -44.791  57.443 -55.414  1.00  0.00     0.226 C 
HETATM    4  O   UNL     1     -45.529  57.691 -54.460  1.00  0.00    -0.273 OA
HETATM    5  H   UNL     1     -43.292  56.282 -56.149  1.00  0.00     0.162 HD
BRANCH   3   6
HETATM    6  C   UNL     1     -44.653  58.335 -56.655  1.00  0.00     0.111 C 
HETATM    7  C   UNL     1     -45.961  59.052 -56.980  1.00  0.00     0.025 C 
BRANCH   6   8
HETATM    8  C   UNL     1     -43.504  59.291 -56.486  1.00  0.00     0.004 A 
HETATM    9  C   UNL     1     -43.363  60.338 -55.586  1.00  0.00     0.033 A 
HETATM   10  C   UNL     1     -44.249  60.884 -54.531  1.00  0.00     0.070 C 
HETATM   11  N   UNL     1     -42.139  60.893 -55.845  1.00  0.00    -0.282 N 
HETATM   12  H   UNL     1     -41.702  61.695 -55.400  1.00  0.00     0.189 HD
HETATM   13  N   UNL     1     -41.458  60.258 -56.803  1.00  0.00    -0.179 NA
HETATM   14  C   UNL     1     -42.294  59.312 -57.238  1.00  0.00     0.060 A 
HETATM   15  C   UNL     1     -41.888  58.438 -58.369  1.00  0.00     0.073 C 
ENDBRANCH   6   8
ENDBRANCH   3   6
ENDBRANCH   1   2
BRANCH   1  16
HETATM   16  C   UNL     1     -42.990  55.959 -53.094  1.00  0.00     0.238 C 
BRANCH  16  17
HETATM   17  N   UNL     1     -42.458  57.356 -53.402  1.00  0.00    -0.061 N 
HETATM   18  H   UNL     1     -43.079  57.682 -54.173  1.00  0.00     0.280 HD
HETATM   19  C   UNL     1     -41.056  57.500 -53.942  1.00  0.00     0.236 C 
HETATM   20  C   UNL     1     -40.352  58.378 -52.930  1.00  0.00     0.029 C 
HETATM   21  C   UNL     1     -41.451  59.316 -52.474  1.00  0.00     0.029 C 
HETATM   22  C   UNL     1     -42.641  58.390 -52.315  1.00  0.00     0.236 C 
ENDBRANCH  16  17
BRANCH  16  23
HETATM   23  C   UNL     1     -41.915  54.991 -52.610  1.00  0.00    -0.024 A 
HETATM   24  C   UNL     1     -41.345  55.078 -51.327  1.00  0.00     0.033 A 
HETATM   25  C   UNL     1     -40.389  54.150 -50.907  1.00  0.00     0.034 A 
HETATM   26 CL   UNL     1     -39.729  54.277 -49.325  1.00  0.00    -0.084 Cl
HETATM   27  C   UNL     1     -39.973  53.128 -51.753  1.00  0.00     0.024 A 
HETATM   28  C   UNL     1     -40.510  53.037 -53.034  1.00  0.00     0.002 A 
HETATM   29  C   UNL     1     -41.469  53.962 -53.460  1.00  0.00     0.009 A 
ENDBRANCH  16  23
ENDBRANCH   1  16
TORSDOF 6
ENDMDL
MODEL 9
REMARK VINA RESULT:      -6.6     15.464     18.458
REMARK  6 active torsions:
REMARK  status: ('A' for Active; 'I' for Inactive)
REMARK    1  A    between atoms: C_8  and  C_9 
REMARK    2  A    between atoms: C_9  and  C_10 
REMARK       I    between atoms: C_10  and  N_11 
REMARK    3  A    between atoms: N_11  and  C_12 
REMARK    4  A    between atoms: C_12  and  C_13 
REMARK    5  A    between atoms: C_13  and  N_14 
REMARK    6  A    between atoms: C_13  and  C_20 
ROOT
HETATM    1  C   UNL     1     -34.414  37.669 -55.592  1.00  0.00     0.160 C 
ENDROOT
BRANCH   1   2
HETATM    2  N   UNL     1     -35.296  38.154 -54.529  1.00  0.00    -0.358 N 
HETATM    3  C   UNL     1     -34.972  38.172 -53.187  1.00  0.00     0.226 C 
HETATM    4  O   UNL     1     -33.973  37.588 -52.766  1.00  0.00    -0.273 OA
HETATM    5  H   UNL     1     -35.998  38.834 -54.813  1.00  0.00     0.162 HD
BRANCH   3   6
HETATM    6  C   UNL     1     -35.958  38.945 -52.301  1.00  0.00     0.111 C 
HETATM    7  C   UNL     1     -35.913  38.461 -50.854  1.00  0.00     0.025 C 
BRANCH   6   8
HETATM    8  C   UNL     1     -35.712  40.425 -52.416  1.00  0.00     0.004 A 
HETATM    9  C   UNL     1     -34.646  41.174 -51.936  1.00  0.00     0.033 A 
HETATM   10  C   UNL     1     -33.433  40.818 -51.163  1.00  0.00     0.070 C 
HETATM   11  N   UNL     1     -34.901  42.468 -52.304  1.00  0.00    -0.282 N 
HETATM   12  H   UNL     1     -34.353  43.300 -52.109  1.00  0.00     0.189 HD
HETATM   13  N   UNL     1     -36.018  42.606 -53.024  1.00  0.00    -0.179 NA
HETATM   14  C   UNL     1     -36.550  41.382 -53.058  1.00  0.00     0.060 A 
HETATM   15  C   UNL     1     -37.857  41.168 -53.733  1.00  0.00     0.073 C 
ENDBRANCH   6   8
ENDBRANCH   3   6
ENDBRANCH   1   2
BRANCH   1  16
HETATM   16  C   UNL     1     -33.651  38.750 -56.434  1.00  0.00     0.238 C 
BRANCH  16  17
HETATM   17  N   UNL     1     -32.306  39.085 -55.796  1.00  0.00    -0.061 N 
HETATM   18  H   UNL     1     -32.572  39.675 -54.980  1.00  0.00     0.280 HD
HETATM   19  C   UNL     1     -31.317  39.917 -56.574  1.00  0.00     0.236 C 
HETATM   20  C   UNL     1     -30.088  39.039 -56.680  1.00  0.00     0.029 C 
HETATM   21  C   UNL     1     -30.092  38.292 -55.362  1.00  0.00     0.029 C 
HETATM   22  C   UNL     1     -31.553  37.925 -55.187  1.00  0.00     0.236 C 
ENDBRANCH  16  17
BRANCH  16  23
HETATM   23  C   UNL     1     -34.502  39.978 -56.742  1.00  0.00    -0.024 A 
HETATM   24  C   UNL     1     -35.518  39.967 -57.714  1.00  0.00     0.033 A 
HETATM   25  C   UNL     1     -36.300  41.102 -57.942  1.00  0.00     0.034 A 
HETATM   26 CL   UNL     1     -37.546  41.045 -59.125  1.00  0.00    -0.084 Cl
HETATM   27  C   UNL     1     -36.082  42.270 -57.220  1.00  0.00     0.024 A 
HETATM   28  C   UNL     1     -35.067  42.307 -56.267  1.00  0.00     0.002 A 
HETATM   29  C   UNL     1     -34.282  41.174 -56.034  1.00  0.00     0.009 A 
ENDBRANCH  16  23
ENDBRANCH   1  16
TORSDOF 6
ENDMDL
MODEL 10
REMARK VINA RESULT:      -6.6      2.924      7.489
REMARK  6 active torsions:
REMARK  status: ('A' for Active; 'I' for Inactive)
REMARK    1  A    between atoms: C_8  and  C_9 
REMARK    2  A    between atoms: C_9  and  C_10 
REMARK       I    between atoms: C_10  and  N_11 
REMARK    3  A    between atoms: N_11  and  C_12 
REMARK    4  A    between atoms: C_12  and  C_13 
REMARK    5  A    between atoms: C_13  and  N_14 
REMARK    6  A    between atoms: C_13  and  C_20 
ROOT
HETATM    1  C   UNL     1     -43.328  58.128 -56.306  1.00  0.00     0.160 C 
ENDROOT
BRANCH   1   2
HETATM    2  N   UNL     1     -43.335  56.735 -55.857  1.00  0.00    -0.358 N 
HETATM    3  C   UNL     1     -42.890  56.304 -54.623  1.00  0.00     0.226 C 
HETATM    4  O   UNL     1     -42.264  57.056 -53.876  1.00  0.00    -0.273 OA
HETATM    5  H   UNL     1     -44.022  56.130 -56.303  1.00  0.00     0.162 HD
BRANCH   3   6
HETATM    6  C   UNL     1     -43.223  54.842 -54.297  1.00  0.00     0.111 C 
HETATM    7  C   UNL     1     -43.423  54.015 -55.565  1.00  0.00     0.025 C 
BRANCH   6   8
HETATM    8  C   UNL     1     -42.172  54.257 -53.394  1.00  0.00     0.004 A 
HETATM    9  C   UNL     1     -40.867  53.890 -53.693  1.00  0.00     0.033 A 
HETATM   10  C   UNL     1     -40.075  53.920 -54.946  1.00  0.00     0.070 C 
HETATM   11  N   UNL     1     -40.334  53.413 -52.526  1.00  0.00    -0.282 N 
HETATM   12  H   UNL     1     -39.406  53.033 -52.363  1.00  0.00     0.189 HD
HETATM   13  N   UNL     1     -41.172  53.490 -51.488  1.00  0.00    -0.179 NA
HETATM   14  C   UNL     1     -42.310  53.953 -52.009  1.00  0.00     0.060 A 
HETATM   15  C   UNL     1     -43.507  54.106 -51.140  1.00  0.00     0.073 C 
ENDBRANCH   6   8
ENDBRANCH   3   6
ENDBRANCH   1   2
BRANCH   1  16
HETATM   16  C   UNL     1     -43.280  58.378 -57.854  1.00  0.00     0.238 C 
BRANCH  16  17
HETATM   17  N   UNL     1     -43.147  59.867 -58.160  1.00  0.00    -0.061 N 
HETATM   18  H   UNL     1     -44.067  60.104 -58.589  1.00  0.00     0.280 HD
HETATM   19  C   UNL     1     -42.118  60.316 -59.168  1.00  0.00     0.236 C 
HETATM   20  C   UNL     1     -41.222  61.261 -58.396  1.00  0.00     0.029 C 
HETATM   21  C   UNL     1     -42.186  61.935 -57.442  1.00  0.00     0.029 C 
HETATM   22  C   UNL     1     -43.049  60.784 -56.962  1.00  0.00     0.236 C 
ENDBRANCH  16  17
BRANCH  16  23
HETATM   23  C   UNL     1     -44.424  57.702 -58.604  1.00  0.00    -0.024 A 
HETATM   24  C   UNL     1     -44.208  56.688 -59.554  1.00  0.00     0.033 A 
HETATM   25  C   UNL     1     -45.284  56.069 -60.194  1.00  0.00     0.034 A 
HETATM   26 CL   UNL     1     -44.981  54.819 -61.335  1.00  0.00    -0.084 Cl
HETATM   27  C   UNL     1     -46.591  56.450 -59.912  1.00  0.00     0.024 A 
HETATM   28  C   UNL     1     -46.825  57.466 -58.990  1.00  0.00     0.002 A 
HETATM   29  C   UNL     1     -45.752  58.089 -58.346  1.00  0.00     0.009 A 
ENDBRANCH  16  23
ENDBRANCH   1  16
TORSDOF 6
ENDMDL
