MODEL 1
REMARK VINA RESULT:      -7.8      0.000      0.000
REMARK  6 active torsions:
REMARK  status: ('A' for Active; 'I' for Inactive)
REMARK    1  A    between atoms: C_2  and  O_3 
REMARK    2  A    between atoms: O_3  and  C_4 
REMARK    3  A    between atoms: C_4  and  C_5 
REMARK    4  A    between atoms: C_8  and  C_9 
REMARK    5  A    between atoms: C_9  and  N_10 
REMARK    6  A    between atoms: N_10  and  C_11 
ROOT
HETATM    1  N   UNL     1     -43.475  55.002 -55.934  1.00  0.00    -0.220 N 
HETATM    2  H   UNL     1     -43.970  54.152 -56.165  1.00  0.00     0.178 HD
ENDROOT
BRANCH   1   3
HETATM    3  C   UNL     1     -43.650  55.445 -54.566  1.00  0.00     0.176 C 
BRANCH   3   4
HETATM    4  C   UNL     1     -42.704  54.693 -53.663  1.00  0.00    -0.040 A 
HETATM    5  C   UNL     1     -42.907  54.682 -52.276  1.00  0.00     0.009 A 
HETATM    6  C   UNL     1     -42.046  53.970 -51.439  1.00  0.00     0.010 A 
HETATM    7  C   UNL     1     -40.957  53.265 -51.970  1.00  0.00    -0.035 A 
HETATM    8  C   UNL     1     -40.746  53.287 -53.354  1.00  0.00     0.010 A 
HETATM    9  C   UNL     1     -41.608  54.000 -54.193  1.00  0.00     0.009 A 
BRANCH   7  10
HETATM   10  C   UNL     1     -40.060  52.463 -51.064  1.00  0.00     0.206 C 
BRANCH  10  11
HETATM   11  O   UNL     1     -39.191  51.685 -51.882  1.00  0.00    -0.382 OA
BRANCH  11  12
HETATM   12  C   UNL     1     -39.185  50.295 -51.557  1.00  0.00     0.113 C 
HETATM   13  C   UNL     1     -39.677  49.461 -52.737  1.00  0.00     0.039 C 
HETATM   14  C   UNL     1     -40.115  50.115 -50.361  1.00  0.00     0.039 C 
ENDBRANCH  11  12
ENDBRANCH  10  11
ENDBRANCH   7  10
ENDBRANCH   3   4
ENDBRANCH   1   3
BRANCH   1  15
HETATM   15  C   UNL     1     -43.223  55.889 -56.936  1.00  0.00     0.704 A 
HETATM   16  N   UNL     1     -42.758  57.077 -56.716  1.00  0.00    -0.064 NA
HETATM   17  C   UNL     1     -42.532  57.929 -57.809  1.00  0.00     0.091 A 
HETATM   18  C   UNL     1     -42.783  57.544 -59.126  1.00  0.00     0.062 A 
HETATM   19  C   UNL     1     -42.038  59.214 -57.573  1.00  0.00     0.033 A 
HETATM   20  C   UNL     1     -43.300  56.184 -59.338  1.00  0.00     0.272 A 
HETATM   21  C   UNL     1     -42.551  58.412 -60.199  1.00  0.00     0.019 A 
HETATM   22  O   UNL     1     -43.540  55.742 -60.456  1.00  0.00    -0.267 OA
HETATM   23  N   UNL     1     -43.494  55.441 -58.201  1.00  0.00    -0.154 N 
HETATM   24  H   UNL     1     -43.820  54.501 -58.345  1.00  0.00     0.187 HD
HETATM   25  C   UNL     1     -42.059  59.691 -59.947  1.00  0.00     0.001 A 
HETATM   26  C   UNL     1     -41.802  60.092 -58.636  1.00  0.00     0.002 A 
ENDBRANCH   1  15
TORSDOF 6
ENDMDL
MODEL 2
REMARK VINA RESULT:      -7.6      2.199      8.647
REMARK  6 active torsions:
REMARK  status: ('A' for Active; 'I' for Inactive)
REMARK    1  A    between atoms: C_2  and  O_3 
REMARK    2  A    between atoms: O_3  and  C_4 
REMARK    3  A    between atoms: C_4  and  C_5 
REMARK    4  A    between atoms: C_8  and  C_9 
REMARK    5  A    between atoms: C_9  and  N_10 
REMARK    6  A    between atoms: N_10  and  C_11 
ROOT
HETATM    1  N   UNL     1     -41.087  55.573 -54.011  1.00  0.00    -0.220 N 
HETATM    2  H   UNL     1     -40.413  56.325 -53.988  1.00  0.00     0.178 HD
ENDROOT
BRANCH   1   3
HETATM    3  C   UNL     1     -42.470  56.007 -54.008  1.00  0.00     0.176 C 
BRANCH   3   4
HETATM    4  C   UNL     1     -42.918  56.285 -55.422  1.00  0.00    -0.040 A 
HETATM    5  C   UNL     1     -43.747  57.380 -55.700  1.00  0.00     0.009 A 
HETATM    6  C   UNL     1     -44.146  57.652 -57.009  1.00  0.00     0.010 A 
HETATM    7  C   UNL     1     -43.737  56.827 -58.066  1.00  0.00    -0.035 A 
HETATM    8  C   UNL     1     -42.921  55.724 -57.787  1.00  0.00     0.010 A 
HETATM    9  C   UNL     1     -42.520  55.451 -56.476  1.00  0.00     0.009 A 
BRANCH   7  10
HETATM   10  C   UNL     1     -44.136  57.154 -59.481  1.00  0.00     0.206 C 
BRANCH  10  11
HETATM   11  O   UNL     1     -43.794  56.043 -60.303  1.00  0.00    -0.382 OA
BRANCH  11  12
HETATM   12  C   UNL     1     -44.924  55.344 -60.828  1.00  0.00     0.113 C 
HETATM   13  C   UNL     1     -46.198  56.165 -60.652  1.00  0.00     0.039 C 
HETATM   14  C   UNL     1     -45.031  54.033 -60.057  1.00  0.00     0.039 C 
ENDBRANCH  11  12
ENDBRANCH  10  11
ENDBRANCH   7  10
ENDBRANCH   3   4
ENDBRANCH   1   3
BRANCH   1  15
HETATM   15  C   UNL     1     -40.724  54.371 -53.484  1.00  0.00     0.704 A 
HETATM   16  N   UNL     1     -40.591  53.304 -54.206  1.00  0.00    -0.064 NA
HETATM   17  C   UNL     1     -40.218  52.104 -53.579  1.00  0.00     0.091 A 
HETATM   18  C   UNL     1     -39.979  52.016 -52.207  1.00  0.00     0.062 A 
HETATM   19  C   UNL     1     -40.080  50.951 -54.355  1.00  0.00     0.033 A 
HETATM   20  C   UNL     1     -40.131  53.250 -51.422  1.00  0.00     0.272 A 
HETATM   21  C   UNL     1     -39.611  50.808 -51.605  1.00  0.00     0.019 A 
HETATM   22  O   UNL     1     -39.931  53.284 -50.213  1.00  0.00    -0.267 OA
HETATM   23  N   UNL     1     -40.509  54.361 -52.133  1.00  0.00    -0.154 N 
HETATM   24  H   UNL     1     -40.585  55.212 -51.603  1.00  0.00     0.187 HD
HETATM   25  C   UNL     1     -39.478  49.666 -52.393  1.00  0.00     0.001 A 
HETATM   26  C   UNL     1     -39.712  49.737 -53.767  1.00  0.00     0.002 A 
ENDBRANCH   1  15
TORSDOF 6
ENDMDL
MODEL 3
REMARK VINA RESULT:      -7.3     14.997     16.630
REMARK  6 active torsions:
REMARK  status: ('A' for Active; 'I' for Inactive)
REMARK    1  A    between atoms: C_2  and  O_3 
REMARK    2  A    between atoms: O_3  and  C_4 
REMARK    3  A    between atoms: C_4  and  C_5 
REMARK    4  A    between atoms: C_8  and  C_9 
REMARK    5  A    between atoms: C_9  and  N_10 
REMARK    6  A    between atoms: N_10  and  C_11 
ROOT
HETATM    1  N   UNL     1     -36.631  40.247 -59.271  1.00  0.00    -0.220 N 
HETATM    2  H   UNL     1     -36.149  39.713 -58.562  1.00  0.00     0.178 HD
ENDROOT
BRANCH   1   3
HETATM    3  C   UNL     1     -36.927  41.615 -58.894  1.00  0.00     0.176 C 
BRANCH   3   4
HETATM    4  C   UNL     1     -36.609  41.819 -57.433  1.00  0.00    -0.040 A 
HETATM    5  C   UNL     1     -37.583  41.576 -56.455  1.00  0.00     0.009 A 
HETATM    6  C   UNL     1     -37.285  41.744 -55.102  1.00  0.00     0.010 A 
HETATM    7  C   UNL     1     -36.013  42.172 -54.699  1.00  0.00    -0.035 A 
HETATM    8  C   UNL     1     -35.044  42.430 -55.676  1.00  0.00     0.010 A 
HETATM    9  C   UNL     1     -35.341  42.261 -57.032  1.00  0.00     0.009 A 
BRANCH   7  10
HETATM   10  C   UNL     1     -35.688  42.308 -53.234  1.00  0.00     0.206 C 
BRANCH  10  11
HETATM   11  O   UNL     1     -36.387  41.285 -52.532  1.00  0.00    -0.382 OA
BRANCH  11  12
HETATM   12  C   UNL     1     -35.593  40.607 -51.558  1.00  0.00     0.113 C 
HETATM   13  C   UNL     1     -36.446  40.169 -50.372  1.00  0.00     0.039 C 
HETATM   14  C   UNL     1     -34.519  41.589 -51.101  1.00  0.00     0.039 C 
ENDBRANCH  11  12
ENDBRANCH  10  11
ENDBRANCH   7  10
ENDBRANCH   3   4
ENDBRANCH   1   3
BRANCH   1  15
HETATM   15  C   UNL     1     -37.417  39.575 -60.157  1.00  0.00     0.704 A 
HETATM   16  N   UNL     1     -38.544  39.034 -59.820  1.00  0.00    -0.064 NA
HETATM   17  C   UNL     1     -39.288  38.354 -60.798  1.00  0.00     0.091 A 
HETATM   18  C   UNL     1     -38.863  38.243 -62.122  1.00  0.00     0.062 A 
HETATM   19  C   UNL     1     -40.501  37.765 -60.435  1.00  0.00     0.033 A 
HETATM   20  C   UNL     1     -37.584  38.877 -62.469  1.00  0.00     0.272 A 
HETATM   21  C   UNL     1     -39.622  37.558 -63.078  1.00  0.00     0.019 A 
HETATM   22  O   UNL     1     -37.127  38.849 -63.607  1.00  0.00    -0.267 OA
HETATM   23  N   UNL     1     -36.935  39.504 -61.436  1.00  0.00    -0.154 N 
HETATM   24  H   UNL     1     -36.074  39.965 -61.678  1.00  0.00     0.187 HD
HETATM   25  C   UNL     1     -40.829  36.974 -62.700  1.00  0.00     0.001 A 
HETATM   26  C   UNL     1     -41.269  37.077 -61.380  1.00  0.00     0.002 A 
ENDBRANCH   1  15
TORSDOF 6
ENDMDL
MODEL 4
REMARK VINA RESULT:      -7.3     14.859     17.749
REMARK  6 active torsions:
REMARK  status: ('A' for Active; 'I' for Inactive)
REMARK    1  A    between atoms: C_2  and  O_3 
REMARK    2  A    between atoms: O_3  and  C_4 
REMARK    3  A    between atoms: C_4  and  C_5 
REMARK    4  A    between atoms: C_8  and  C_9 
REMARK    5  A    between atoms: C_9  and  N_10 
REMARK    6  A    between atoms: N_10  and  C_11 
ROOT
HETATM    1  N   UNL     1     -36.479  42.285 -54.756  1.00  0.00    -0.220 N 
HETATM    2  H   UNL     1     -36.678  43.268 -54.636  1.00  0.00     0.178 HD
ENDROOT
BRANCH   1   3
HETATM    3  C   UNL     1     -37.633  41.476 -55.090  1.00  0.00     0.176 C 
BRANCH   3   4
HETATM    4  C   UNL     1     -37.596  41.117 -56.555  1.00  0.00    -0.040 A 
HETATM    5  C   UNL     1     -37.076  42.021 -57.492  1.00  0.00     0.009 A 
HETATM    6  C   UNL     1     -37.022  41.684 -58.846  1.00  0.00     0.010 A 
HETATM    7  C   UNL     1     -37.497  40.444 -59.292  1.00  0.00    -0.035 A 
HETATM    8  C   UNL     1     -38.029  39.547 -58.359  1.00  0.00     0.010 A 
HETATM    9  C   UNL     1     -38.084  39.882 -57.003  1.00  0.00     0.009 A 
BRANCH   7  10
HETATM   10  C   UNL     1     -37.392  40.072 -60.749  1.00  0.00     0.206 C 
BRANCH  10  11
HETATM   11  O   UNL     1     -37.684  38.684 -60.870  1.00  0.00    -0.382 OA
BRANCH  11  12
HETATM   12  C   UNL     1     -36.941  38.025 -61.896  1.00  0.00     0.113 C 
HETATM   13  C   UNL     1     -35.441  38.161 -61.651  1.00  0.00     0.039 C 
HETATM   14  C   UNL     1     -37.322  38.689 -63.215  1.00  0.00     0.039 C 
ENDBRANCH  11  12
ENDBRANCH  10  11
ENDBRANCH   7  10
ENDBRANCH   3   4
ENDBRANCH   1   3
BRANCH   1  15
HETATM   15  C   UNL     1     -35.420  41.759 -54.080  1.00  0.00     0.704 A 
HETATM   16  N   UNL     1     -35.418  41.610 -52.793  1.00  0.00    -0.064 NA
HETATM   17  C   UNL     1     -34.281  41.063 -52.176  1.00  0.00     0.091 A 
HETATM   18  C   UNL     1     -33.153  40.667 -52.897  1.00  0.00     0.062 A 
HETATM   19  C   UNL     1     -34.274  40.908 -50.789  1.00  0.00     0.033 A 
HETATM   20  C   UNL     1     -33.197  40.843 -54.356  1.00  0.00     0.272 A 
HETATM   21  C   UNL     1     -32.031  40.127 -52.259  1.00  0.00     0.019 A 
HETATM   22  O   UNL     1     -32.265  40.515 -55.081  1.00  0.00    -0.267 OA
HETATM   23  N   UNL     1     -34.350  41.396 -54.851  1.00  0.00    -0.154 N 
HETATM   24  H   UNL     1     -34.394  41.490 -55.852  1.00  0.00     0.187 HD
HETATM   25  C   UNL     1     -32.039  39.979 -50.873  1.00  0.00     0.001 A 
HETATM   26  C   UNL     1     -33.159  40.369 -50.138  1.00  0.00     0.002 A 
ENDBRANCH   1  15
TORSDOF 6
ENDMDL
MODEL 5
REMARK VINA RESULT:      -7.3      1.866      2.584
REMARK  6 active torsions:
REMARK  status: ('A' for Active; 'I' for Inactive)
REMARK    1  A    between atoms: C_2  and  O_3 
REMARK    2  A    between atoms: O_3  and  C_4 
REMARK    3  A    between atoms: C_4  and  C_5 
REMARK    4  A    between atoms: C_8  and  C_9 
REMARK    5  A    between atoms: C_9  and  N_10 
REMARK    6  A    between atoms: N_10  and  C_11 
ROOT
HETATM    1  N   UNL     1     -43.327  57.984 -53.980  1.00  0.00    -0.220 N 
HETATM    2  H   UNL     1     -42.767  58.549 -53.358  1.00  0.00     0.178 HD
ENDROOT
BRANCH   1   3
HETATM    3  C   UNL     1     -43.961  56.844 -53.348  1.00  0.00     0.176 C 
BRANCH   3   4
HETATM    4  C   UNL     1     -42.908  55.942 -52.754  1.00  0.00    -0.040 A 
HETATM    5  C   UNL     1     -42.074  56.406 -51.727  1.00  0.00     0.009 A 
HETATM    6  C   UNL     1     -41.113  55.567 -51.162  1.00  0.00     0.010 A 
HETATM    7  C   UNL     1     -40.955  54.252 -51.619  1.00  0.00    -0.035 A 
HETATM    8  C   UNL     1     -41.778  53.792 -52.655  1.00  0.00     0.010 A 
HETATM    9  C   UNL     1     -42.741  54.631 -53.222  1.00  0.00     0.009 A 
BRANCH   7  10
HETATM   10  C   UNL     1     -39.946  53.340 -50.972  1.00  0.00     0.206 C 
BRANCH  10  11
HETATM   11  O   UNL     1     -40.389  51.998 -51.147  1.00  0.00    -0.382 OA
BRANCH  11  12
HETATM   12  C   UNL     1     -39.397  51.129 -51.694  1.00  0.00     0.113 C 
HETATM   13  C   UNL     1     -39.601  50.951 -53.195  1.00  0.00     0.039 C 
HETATM   14  C   UNL     1     -39.539  49.789 -50.980  1.00  0.00     0.039 C 
ENDBRANCH  11  12
ENDBRANCH  10  11
ENDBRANCH   7  10
ENDBRANCH   3   4
ENDBRANCH   1   3
BRANCH   1  15
HETATM   15  C   UNL     1     -42.994  57.963 -55.301  1.00  0.00     0.704 A 
HETATM   16  N   UNL     1     -43.260  56.957 -56.072  1.00  0.00    -0.064 NA
HETATM   17  C   UNL     1     -42.876  57.019 -57.422  1.00  0.00     0.091 A 
HETATM   18  C   UNL     1     -42.224  58.125 -57.967  1.00  0.00     0.062 A 
HETATM   19  C   UNL     1     -43.156  55.932 -58.253  1.00  0.00     0.033 A 
HETATM   20  C   UNL     1     -41.949  59.251 -57.064  1.00  0.00     0.272 A 
HETATM   21  C   UNL     1     -41.850  58.162 -59.315  1.00  0.00     0.019 A 
HETATM   22  O   UNL     1     -41.394  60.275 -57.446  1.00  0.00    -0.267 OA
HETATM   23  N   UNL     1     -42.356  59.081 -55.765  1.00  0.00    -0.154 N 
HETATM   24  H   UNL     1     -42.195  59.862 -55.152  1.00  0.00     0.187 HD
HETATM   25  C   UNL     1     -42.135  57.069 -60.132  1.00  0.00     0.001 A 
HETATM   26  C   UNL     1     -42.787  55.955 -59.602  1.00  0.00     0.002 A 
ENDBRANCH   1  15
TORSDOF 6
ENDMDL
MODEL 6
REMARK VINA RESULT:      -7.2      5.400      8.992
REMARK  6 active torsions:
REMARK  status: ('A' for Active; 'I' for Inactive)
REMARK    1  A    between atoms: C_2  and  O_3 
REMARK    2  A    between atoms: O_3  and  C_4 
REMARK    3  A    between atoms: C_4  and  C_5 
REMARK    4  A    between atoms: C_8  and  C_9 
REMARK    5  A    between atoms: C_9  and  N_10 
REMARK    6  A    between atoms: N_10  and  C_11 
ROOT
HETATM    1  N   UNL     1     -42.097  56.698 -52.271  1.00  0.00    -0.220 N 
HETATM    2  H   UNL     1     -41.648  57.454 -51.775  1.00  0.00     0.178 HD
ENDROOT
BRANCH   1   3
HETATM    3  C   UNL     1     -43.534  56.834 -52.398  1.00  0.00     0.176 C 
BRANCH   3   4
HETATM    4  C   UNL     1     -43.996  58.063 -51.655  1.00  0.00    -0.040 A 
HETATM    5  C   UNL     1     -45.326  58.174 -51.228  1.00  0.00     0.009 A 
HETATM    6  C   UNL     1     -45.752  59.301 -50.522  1.00  0.00     0.010 A 
HETATM    7  C   UNL     1     -44.860  60.345 -50.240  1.00  0.00    -0.035 A 
HETATM    8  C   UNL     1     -43.535  60.241 -50.679  1.00  0.00     0.010 A 
HETATM    9  C   UNL     1     -43.108  59.113 -51.385  1.00  0.00     0.009 A 
BRANCH   7  10
HETATM   10  C   UNL     1     -45.318  61.536 -49.439  1.00  0.00     0.206 C 
BRANCH  10  11
HETATM   11  O   UNL     1     -46.145  61.063 -48.382  1.00  0.00    -0.382 OA
BRANCH  11  12
HETATM   12  C   UNL     1     -45.451  60.866 -47.149  1.00  0.00     0.113 C 
HETATM   13  C   UNL     1     -46.256  59.974 -46.210  1.00  0.00     0.039 C 
HETATM   14  C   UNL     1     -45.254  62.245 -46.527  1.00  0.00     0.039 C 
ENDBRANCH  11  12
ENDBRANCH  10  11
ENDBRANCH   7  10
ENDBRANCH   3   4
ENDBRANCH   1   3
BRANCH   1  15
HETATM   15  C   UNL     1     -41.504  55.472 -52.244  1.00  0.00     0.704 A 
HETATM   16  N   UNL     1     -41.442  54.703 -53.285  1.00  0.00    -0.064 NA
HETATM   17  C   UNL     1     -40.816  53.452 -53.166  1.00  0.00     0.091 A 
HETATM   18  C   UNL     1     -40.252  53.005 -51.971  1.00  0.00     0.062 A 
HETATM   19  C   UNL     1     -40.755  52.619 -54.285  1.00  0.00     0.033 A 
HETATM   20  C   UNL     1     -40.334  53.909 -50.814  1.00  0.00     0.272 A 
HETATM   21  C   UNL     1     -39.636  51.753 -51.877  1.00  0.00     0.019 A 
HETATM   22  O   UNL     1     -39.858  53.618 -49.722  1.00  0.00    -0.267 OA
HETATM   23  N   UNL     1     -40.976  55.100 -51.038  1.00  0.00    -0.154 N 
HETATM   24  H   UNL     1     -41.007  55.732 -50.256  1.00  0.00     0.187 HD
HETATM   25  C   UNL     1     -39.583  50.932 -53.002  1.00  0.00     0.001 A 
HETATM   26  C   UNL     1     -40.141  51.365 -54.206  1.00  0.00     0.002 A 
ENDBRANCH   1  15
TORSDOF 6
ENDMDL
MODEL 7
REMARK VINA RESULT:      -7.1      1.874      2.744
REMARK  6 active torsions:
REMARK  status: ('A' for Active; 'I' for Inactive)
REMARK    1  A    between atoms: C_2  and  O_3 
REMARK    2  A    between atoms: O_3  and  C_4 
REMARK    3  A    between atoms: C_4  and  C_5 
REMARK    4  A    between atoms: C_8  and  C_9 
REMARK    5  A    between atoms: C_9  and  N_10 
REMARK    6  A    between atoms: N_10  and  C_11 
ROOT
HETATM    1  N   UNL     1     -42.245  55.988 -56.970  1.00  0.00    -0.220 N 
HETATM    2  H   UNL     1     -41.252  55.824 -57.058  1.00  0.00     0.178 HD
ENDROOT
BRANCH   1   3
HETATM    3  C   UNL     1     -42.978  54.907 -56.343  1.00  0.00     0.176 C 
BRANCH   3   4
HETATM    4  C   UNL     1     -42.254  54.457 -55.098  1.00  0.00    -0.040 A 
HETATM    5  C   UNL     1     -42.939  54.351 -53.879  1.00  0.00     0.009 A 
HETATM    6  C   UNL     1     -42.277  53.916 -52.730  1.00  0.00     0.010 A 
HETATM    7  C   UNL     1     -40.914  53.590 -52.772  1.00  0.00    -0.035 A 
HETATM    8  C   UNL     1     -40.226  53.709 -53.986  1.00  0.00     0.010 A 
HETATM    9  C   UNL     1     -40.889  54.145 -55.137  1.00  0.00     0.009 A 
BRANCH   7  10
HETATM   10  C   UNL     1     -40.219  53.078 -51.537  1.00  0.00     0.206 C 
BRANCH  10  11
HETATM   11  O   UNL     1     -41.000  53.451 -50.407  1.00  0.00    -0.382 OA
BRANCH  11  12
HETATM   12  C   UNL     1     -40.368  54.414 -49.562  1.00  0.00     0.113 C 
HETATM   13  C   UNL     1     -40.339  53.931 -48.116  1.00  0.00     0.039 C 
HETATM   14  C   UNL     1     -41.180  55.700 -49.672  1.00  0.00     0.039 C 
ENDBRANCH  11  12
ENDBRANCH  10  11
ENDBRANCH   7  10
ENDBRANCH   3   4
ENDBRANCH   1   3
BRANCH   1  15
HETATM   15  C   UNL     1     -42.841  56.812 -57.875  1.00  0.00     0.704 A 
HETATM   16  N   UNL     1     -42.181  57.692 -58.559  1.00  0.00    -0.064 NA
HETATM   17  C   UNL     1     -42.877  58.505 -59.468  1.00  0.00     0.091 A 
HETATM   18  C   UNL     1     -44.254  58.400 -59.668  1.00  0.00     0.062 A 
HETATM   19  C   UNL     1     -42.168  59.458 -60.202  1.00  0.00     0.033 A 
HETATM   20  C   UNL     1     -44.968  57.384 -58.881  1.00  0.00     0.272 A 
HETATM   21  C   UNL     1     -44.926  59.223 -60.578  1.00  0.00     0.019 A 
HETATM   22  O   UNL     1     -46.175  57.201 -58.990  1.00  0.00    -0.267 OA
HETATM   23  N   UNL     1     -44.193  56.653 -58.016  1.00  0.00    -0.154 N 
HETATM   24  H   UNL     1     -44.674  55.938 -57.497  1.00  0.00     0.187 HD
HETATM   25  C   UNL     1     -44.204  60.170 -61.302  1.00  0.00     0.001 A 
HETATM   26  C   UNL     1     -42.827  60.288 -61.115  1.00  0.00     0.002 A 
ENDBRANCH   1  15
TORSDOF 6
ENDMDL
MODEL 8
REMARK VINA RESULT:      -7.0      2.222      2.919
REMARK  6 active torsions:
REMARK  status: ('A' for Active; 'I' for Inactive)
REMARK    1  A    between atoms: C_2  and  O_3 
REMARK    2  A    between atoms: O_3  and  C_4 
REMARK    3  A    between atoms: C_4  and  C_5 
REMARK    4  A    between atoms: C_8  and  C_9 
REMARK    5  A    between atoms: C_9  and  N_10 
REMARK    6  A    between atoms: N_10  and  C_11 
ROOT
HETATM    1  N   UNL     1     -42.755  56.828 -56.852  1.00  0.00    -0.220 N 
HETATM    2  H   UNL     1     -41.844  56.433 -57.038  1.00  0.00     0.178 HD
ENDROOT
BRANCH   1   3
HETATM    3  C   UNL     1     -43.110  56.885 -55.448  1.00  0.00     0.176 C 
BRANCH   3   4
HETATM    4  C   UNL     1     -42.381  55.800 -54.695  1.00  0.00    -0.040 A 
HETATM    5  C   UNL     1     -41.705  56.096 -53.504  1.00  0.00     0.009 A 
HETATM    6  C   UNL     1     -41.047  55.091 -52.794  1.00  0.00     0.010 A 
HETATM    7  C   UNL     1     -41.039  53.771 -53.267  1.00  0.00    -0.035 A 
HETATM    8  C   UNL     1     -41.702  53.478 -54.465  1.00  0.00     0.010 A 
HETATM    9  C   UNL     1     -42.362  54.484 -55.176  1.00  0.00     0.009 A 
BRANCH   7  10
HETATM   10  C   UNL     1     -40.364  52.685 -52.471  1.00  0.00     0.206 C 
BRANCH  10  11
HETATM   11  O   UNL     1     -39.666  51.842 -53.381  1.00  0.00    -0.382 OA
BRANCH  11  12
HETATM   12  C   UNL     1     -40.035  50.465 -53.291  1.00  0.00     0.113 C 
HETATM   13  C   UNL     1     -39.473  49.835 -52.020  1.00  0.00     0.039 C 
HETATM   14  C   UNL     1     -39.460  49.771 -54.521  1.00  0.00     0.039 C 
ENDBRANCH  11  12
ENDBRANCH  10  11
ENDBRANCH   7  10
ENDBRANCH   3   4
ENDBRANCH   1   3
BRANCH   1  15
HETATM   15  C   UNL     1     -43.710  56.716 -57.817  1.00  0.00     0.704 A 
HETATM   16  N   UNL     1     -44.519  57.684 -58.114  1.00  0.00    -0.064 NA
HETATM   17  C   UNL     1     -45.478  57.481 -59.119  1.00  0.00     0.091 A 
HETATM   18  C   UNL     1     -45.591  56.278 -59.817  1.00  0.00     0.062 A 
HETATM   19  C   UNL     1     -46.355  58.520 -59.436  1.00  0.00     0.033 A 
HETATM   20  C   UNL     1     -44.650  55.206 -59.459  1.00  0.00     0.272 A 
HETATM   21  C   UNL     1     -46.557  56.099 -60.813  1.00  0.00     0.019 A 
HETATM   22  O   UNL     1     -44.656  54.117 -60.020  1.00  0.00    -0.267 OA
HETATM   23  N   UNL     1     -43.763  55.508 -58.456  1.00  0.00    -0.154 N 
HETATM   24  H   UNL     1     -43.100  54.787 -58.230  1.00  0.00     0.187 HD
HETATM   25  C   UNL     1     -47.425  57.145 -61.117  1.00  0.00     0.001 A 
HETATM   26  C   UNL     1     -47.325  58.355 -60.430  1.00  0.00     0.002 A 
ENDBRANCH   1  15
TORSDOF 6
ENDMDL
MODEL 9
REMARK VINA RESULT:      -7.0     14.936     17.534
REMARK  6 active torsions:
REMARK  status: ('A' for Active; 'I' for Inactive)
REMARK    1  A    between atoms: C_2  and  O_3 
REMARK    2  A    between atoms: O_3  and  C_4 
REMARK    3  A    between atoms: C_4  and  C_5 
REMARK    4  A    between atoms: C_8  and  C_9 
REMARK    5  A    between atoms: C_9  and  N_10 
REMARK    6  A    between atoms: N_10  and  C_11 
ROOT
HETATM    1  N   UNL     1     -34.816  41.150 -51.589  1.00  0.00    -0.220 N 
HETATM    2  H   UNL     1     -34.088  41.664 -51.112  1.00  0.00     0.178 HD
ENDROOT
BRANCH   1   3
HETATM    3  C   UNL     1     -35.255  39.954 -50.900  1.00  0.00     0.176 C 
BRANCH   3   4
HETATM    4  C   UNL     1     -34.213  39.536 -49.892  1.00  0.00    -0.040 A 
HETATM    5  C   UNL     1     -34.501  38.542 -48.946  1.00  0.00     0.009 A 
HETATM    6  C   UNL     1     -33.533  38.139 -48.025  1.00  0.00     0.010 A 
HETATM    7  C   UNL     1     -32.262  38.730 -48.021  1.00  0.00    -0.035 A 
HETATM    8  C   UNL     1     -31.980  39.734 -48.955  1.00  0.00     0.010 A 
HETATM    9  C   UNL     1     -32.948  40.138 -49.879  1.00  0.00     0.009 A 
BRANCH   7  10
HETATM   10  C   UNL     1     -31.210  38.257 -47.052  1.00  0.00     0.206 C 
BRANCH  10  11
HETATM   11  O   UNL     1     -30.110  39.158 -47.124  1.00  0.00    -0.382 OA
BRANCH  11  12
HETATM   12  C   UNL     1     -29.790  39.778 -45.877  1.00  0.00     0.113 C 
HETATM   13  C   UNL     1     -30.766  39.341 -44.789  1.00  0.00     0.039 C 
HETATM   14  C   UNL     1     -29.884  41.285 -46.095  1.00  0.00     0.039 C 
ENDBRANCH  11  12
ENDBRANCH  10  11
ENDBRANCH   7  10
ENDBRANCH   3   4
ENDBRANCH   1   3
BRANCH   1  15
HETATM   15  C   UNL     1     -34.887  41.250 -52.945  1.00  0.00     0.704 A 
HETATM   16  N   UNL     1     -35.969  41.600 -53.564  1.00  0.00    -0.064 NA
HETATM   17  C   UNL     1     -35.956  41.672 -54.966  1.00  0.00     0.091 A 
HETATM   18  C   UNL     1     -34.817  41.386 -55.721  1.00  0.00     0.062 A 
HETATM   19  C   UNL     1     -37.124  42.042 -55.635  1.00  0.00     0.033 A 
HETATM   20  C   UNL     1     -33.605  41.003 -54.984  1.00  0.00     0.272 A 
HETATM   21  C   UNL     1     -34.829  41.463 -57.118  1.00  0.00     0.019 A 
HETATM   22  O   UNL     1     -32.549  40.745 -55.551  1.00  0.00    -0.267 OA
HETATM   23  N   UNL     1     -33.733  40.953 -53.619  1.00  0.00    -0.154 N 
HETATM   24  H   UNL     1     -32.897  40.719 -53.111  1.00  0.00     0.187 HD
HETATM   25  C   UNL     1     -36.003  41.833 -57.771  1.00  0.00     0.001 A 
HETATM   26  C   UNL     1     -37.150  42.123 -57.031  1.00  0.00     0.002 A 
ENDBRANCH   1  15
TORSDOF 6
ENDMDL
MODEL 10
REMARK VINA RESULT:      -7.0     14.698     18.012
REMARK  6 active torsions:
REMARK  status: ('A' for Active; 'I' for Inactive)
REMARK    1  A    between atoms: C_2  and  O_3 
REMARK    2  A    between atoms: O_3  and  C_4 
REMARK    3  A    between atoms: C_4  and  C_5 
REMARK    4  A    between atoms: C_8  and  C_9 
REMARK    5  A    between atoms: C_9  and  N_10 
REMARK    6  A    between atoms: N_10  and  C_11 
ROOT
HETATM    1  N   UNL     1     -35.822  42.605 -56.013  1.00  0.00    -0.220 N 
HETATM    2  H   UNL     1     -35.730  43.599 -55.857  1.00  0.00     0.178 HD
ENDROOT
BRANCH   1   3
HETATM    3  C   UNL     1     -37.191  42.133 -56.079  1.00  0.00     0.176 C 
BRANCH   3   4
HETATM    4  C   UNL     1     -37.412  41.398 -57.378  1.00  0.00    -0.040 A 
HETATM    5  C   UNL     1     -37.061  41.992 -58.597  1.00  0.00     0.009 A 
HETATM    6  C   UNL     1     -37.246  41.306 -59.799  1.00  0.00     0.010 A 
HETATM    7  C   UNL     1     -37.798  40.018 -59.807  1.00  0.00    -0.035 A 
HETATM    8  C   UNL     1     -38.164  39.430 -58.590  1.00  0.00     0.010 A 
HETATM    9  C   UNL     1     -37.978  40.116 -57.387  1.00  0.00     0.009 A 
BRANCH   7  10
HETATM   10  C   UNL     1     -37.952  39.268 -61.105  1.00  0.00     0.206 C 
BRANCH  10  11
HETATM   11  O   UNL     1     -39.017  38.336 -60.950  1.00  0.00    -0.382 OA
BRANCH  11  12
HETATM   12  C   UNL     1     -39.263  37.543 -62.113  1.00  0.00     0.113 C 
HETATM   13  C   UNL     1     -38.189  37.784 -63.170  1.00  0.00     0.039 C 
HETATM   14  C   UNL     1     -40.631  37.953 -62.648  1.00  0.00     0.039 C 
ENDBRANCH  11  12
ENDBRANCH  10  11
ENDBRANCH   7  10
ENDBRANCH   3   4
ENDBRANCH   1   3
BRANCH   1  15
HETATM   15  C   UNL     1     -34.816  41.793 -55.586  1.00  0.00     0.704 A 
HETATM   16  N   UNL     1     -33.907  41.330 -56.383  1.00  0.00    -0.064 NA
HETATM   17  C   UNL     1     -32.908  40.494 -55.858  1.00  0.00     0.091 A 
HETATM   18  C   UNL     1     -32.852  40.147 -54.508  1.00  0.00     0.062 A 
HETATM   19  C   UNL     1     -31.930  39.989 -56.718  1.00  0.00     0.033 A 
HETATM   20  C   UNL     1     -33.895  40.699 -53.632  1.00  0.00     0.272 A 
HETATM   21  C   UNL     1     -31.848  39.310 -54.009  1.00  0.00     0.019 A 
HETATM   22  O   UNL     1     -33.930  40.467 -52.429  1.00  0.00    -0.267 OA
HETATM   23  N   UNL     1     -34.828  41.494 -54.251  1.00  0.00    -0.154 N 
HETATM   24  H   UNL     1     -35.525  41.897 -53.648  1.00  0.00     0.187 HD
HETATM   25  C   UNL     1     -30.880  38.812 -54.880  1.00  0.00     0.001 A 
HETATM   26  C   UNL     1     -30.920  39.151 -56.233  1.00  0.00     0.002 A 
ENDBRANCH   1  15
TORSDOF 6
ENDMDL
