MODEL 1
REMARK VINA RESULT:      -8.2      0.000      0.000
REMARK  3 active torsions:
REMARK  status: ('A' for Active; 'I' for Inactive)
REMARK    1  A    between atoms: C_4  and  N_5 
REMARK       I    between atoms: N_5  and  C_6 
REMARK    2  A    between atoms: C_6  and  C_7 
REMARK    3  A    between atoms: C_7  and  C_8 
ROOT
HETATM    1  C   UNL     1     -41.213  57.238 -52.611  1.00  0.00     0.286 C 
HETATM    2  N   UNL     1     -42.543  56.968 -51.894  1.00  0.00    -0.056 N 
HETATM    3  H   UNL     1     -43.007  56.159 -52.348  1.00  0.00     0.278 HD
HETATM    4  H   UNL     1     -42.350  56.688 -50.925  1.00  0.00     0.278 HD
HETATM    5  C   UNL     1     -43.523  58.114 -51.918  1.00  0.00     0.209 C 
HETATM    6  C   UNL     1     -42.813  59.402 -51.463  1.00  0.00     0.115 C 
HETATM    7  N   UNL     1     -41.653  59.679 -52.293  1.00  0.00    -0.353 N 
HETATM    8  C   UNL     1     -40.765  58.709 -52.676  1.00  0.00     0.249 C 
HETATM    9  O   UNL     1     -39.648  59.023 -53.076  1.00  0.00    -0.271 OA
HETATM   10  C   UNL     1     -44.712  57.784 -51.020  1.00  0.00     0.035 C 
HETATM   11  C   UNL     1     -45.699  58.950 -50.997  1.00  0.00     0.002 C 
HETATM   12  C   UNL     1     -45.026  60.267 -50.608  1.00  0.00     0.002 C 
HETATM   13  C   UNL     1     -43.800  60.571 -51.472  1.00  0.00     0.027 C 
HETATM   14  H   UNL     1     -41.252  60.615 -52.292  1.00  0.00     0.163 HD
ENDROOT
BRANCH   1  15
HETATM   15  C   UNL     1     -41.137  56.558 -53.981  1.00  0.00     0.146 C 
BRANCH  15  16
HETATM   16  C   UNL     1     -42.282  55.615 -54.186  1.00  0.00     0.224 C 
HETATM   17  N   UNL     1     -42.269  54.282 -53.975  1.00  0.00    -0.327 N 
HETATM   18  H   UNL     1     -43.176  53.886 -54.218  1.00  0.00     0.169 HD
HETATM   19  O   UNL     1     -43.294  56.099 -54.724  1.00  0.00    -0.273 OA
BRANCH  17  20
HETATM   20  C   UNL     1     -41.343  53.325 -53.515  1.00  0.00     0.035 A 
HETATM   21  C   UNL     1     -40.883  52.210 -54.209  1.00  0.00     0.036 A 
HETATM   22  C   UNL     1     -39.971  51.310 -53.623  1.00  0.00    -0.060 A 
HETATM   23  C   UNL     1     -39.460  50.127 -54.396  1.00  0.00     0.048 C 
HETATM   24  C   UNL     1     -39.497  51.549 -52.331  1.00  0.00     0.007 A 
HETATM   25  C   UNL     1     -39.937  52.665 -51.629  1.00  0.00     0.003 A 
HETATM   26  C   UNL     1     -40.850  53.542 -52.217  1.00  0.00     0.029 A 
ENDBRANCH  17  20
ENDBRANCH  15  16
ENDBRANCH   1  15
TORSDOF 3
ENDMDL
MODEL 2
REMARK VINA RESULT:      -8.2      2.460      7.464
REMARK  3 active torsions:
REMARK  status: ('A' for Active; 'I' for Inactive)
REMARK    1  A    between atoms: C_4  and  N_5 
REMARK       I    between atoms: N_5  and  C_6 
REMARK    2  A    between atoms: C_6  and  C_7 
REMARK    3  A    between atoms: C_7  and  C_8 
ROOT
HETATM    1  C   UNL     1     -40.750  54.105 -50.947  1.00  0.00     0.286 C 
HETATM    2  N   UNL     1     -40.454  53.750 -52.410  1.00  0.00    -0.056 N 
HETATM    3  H   UNL     1     -41.144  54.235 -53.015  1.00  0.00     0.278 HD
HETATM    4  H   UNL     1     -39.531  54.123 -52.665  1.00  0.00     0.278 HD
HETATM    5  C   UNL     1     -40.529  52.281 -52.736  1.00  0.00     0.209 C 
HETATM    6  C   UNL     1     -39.693  51.488 -51.715  1.00  0.00     0.115 C 
HETATM    7  N   UNL     1     -40.138  51.754 -50.358  1.00  0.00    -0.353 N 
HETATM    8  C   UNL     1     -40.443  53.012 -49.909  1.00  0.00     0.249 C 
HETATM    9  O   UNL     1     -40.484  53.240 -48.704  1.00  0.00    -0.271 OA
HETATM   10  C   UNL     1     -40.036  52.050 -54.162  1.00  0.00     0.035 C 
HETATM   11  C   UNL     1     -40.065  50.561 -54.499  1.00  0.00     0.002 C 
HETATM   12  C   UNL     1     -39.295  49.723 -53.477  1.00  0.00     0.002 C 
HETATM   13  C   UNL     1     -39.751  49.994 -52.042  1.00  0.00     0.027 C 
HETATM   14  H   UNL     1     -39.873  51.113 -49.613  1.00  0.00     0.163 HD
ENDROOT
BRANCH   1  15
HETATM   15  C   UNL     1     -42.150  54.694 -50.758  1.00  0.00     0.146 C 
BRANCH  15  16
HETATM   16  C   UNL     1     -42.648  55.334 -52.017  1.00  0.00     0.224 C 
HETATM   17  N   UNL     1     -42.605  56.649 -52.317  1.00  0.00    -0.327 N 
HETATM   18  H   UNL     1     -43.034  56.809 -53.227  1.00  0.00     0.169 HD
HETATM   19  O   UNL     1     -43.273  54.590 -52.793  1.00  0.00    -0.273 OA
BRANCH  17  20
HETATM   20  C   UNL     1     -42.129  57.826 -51.707  1.00  0.00     0.035 A 
HETATM   21  C   UNL     1     -40.808  58.116 -51.375  1.00  0.00     0.036 A 
HETATM   22  C   UNL     1     -40.464  59.325 -50.739  1.00  0.00    -0.060 A 
HETATM   23  C   UNL     1     -39.030  59.638 -50.415  1.00  0.00     0.048 C 
HETATM   24  C   UNL     1     -41.457  60.265 -50.457  1.00  0.00     0.007 A 
HETATM   25  C   UNL     1     -42.779  59.997 -50.792  1.00  0.00     0.003 A 
HETATM   26  C   UNL     1     -43.108  58.789 -51.411  1.00  0.00     0.029 A 
ENDBRANCH  17  20
ENDBRANCH  15  16
ENDBRANCH   1  15
TORSDOF 3
ENDMDL
MODEL 3
REMARK VINA RESULT:      -8.0      2.007      3.084
REMARK  3 active torsions:
REMARK  status: ('A' for Active; 'I' for Inactive)
REMARK    1  A    between atoms: C_4  and  N_5 
REMARK       I    between atoms: N_5  and  C_6 
REMARK    2  A    between atoms: C_6  and  C_7 
REMARK    3  A    between atoms: C_7  and  C_8 
ROOT
HETATM    1  C   UNL     1     -43.611  56.515 -52.748  1.00  0.00     0.286 C 
HETATM    2  N   UNL     1     -42.468  57.303 -53.403  1.00  0.00    -0.056 N 
HETATM    3  H   UNL     1     -42.106  56.756 -54.207  1.00  0.00     0.278 HD
HETATM    4  H   UNL     1     -42.844  58.177 -53.792  1.00  0.00     0.278 HD
HETATM    5  C   UNL     1     -41.298  57.597 -52.500  1.00  0.00     0.209 C 
HETATM    6  C   UNL     1     -41.812  58.210 -51.183  1.00  0.00     0.115 C 
HETATM    7  N   UNL     1     -42.772  57.330 -50.539  1.00  0.00    -0.353 N 
HETATM    8  C   UNL     1     -43.764  56.682 -51.226  1.00  0.00     0.249 C 
HETATM    9  O   UNL     1     -44.735  56.234 -50.625  1.00  0.00    -0.271 OA
HETATM   10  C   UNL     1     -40.329  58.536 -53.212  1.00  0.00     0.035 C 
HETATM   11  C   UNL     1     -39.155  58.880 -52.298  1.00  0.00     0.002 C 
HETATM   12  C   UNL     1     -39.618  59.438 -50.952  1.00  0.00     0.002 C 
HETATM   13  C   UNL     1     -40.632  58.524 -50.261  1.00  0.00     0.027 C 
HETATM   14  H   UNL     1     -42.987  57.466 -49.553  1.00  0.00     0.163 HD
ENDROOT
BRANCH   1  15
HETATM   15  C   UNL     1     -43.621  55.042 -53.164  1.00  0.00     0.146 C 
BRANCH  15  16
HETATM   16  C   UNL     1     -42.926  54.840 -54.476  1.00  0.00     0.224 C 
HETATM   17  N   UNL     1     -41.862  54.043 -54.704  1.00  0.00    -0.327 N 
HETATM   18  H   UNL     1     -41.580  54.115 -55.679  1.00  0.00     0.169 HD
HETATM   19  O   UNL     1     -43.295  55.581 -55.403  1.00  0.00    -0.273 OA
BRANCH  17  20
HETATM   20  C   UNL     1     -41.063  53.158 -53.953  1.00  0.00     0.035 A 
HETATM   21  C   UNL     1     -40.637  51.889 -54.338  1.00  0.00     0.036 A 
HETATM   22  C   UNL     1     -39.860  51.089 -53.478  1.00  0.00    -0.060 A 
HETATM   23  C   UNL     1     -39.381  49.734 -53.919  1.00  0.00     0.048 C 
HETATM   24  C   UNL     1     -39.484  51.580 -52.226  1.00  0.00     0.007 A 
HETATM   25  C   UNL     1     -39.890  52.849 -51.831  1.00  0.00     0.003 A 
HETATM   26  C   UNL     1     -40.671  53.628 -52.688  1.00  0.00     0.029 A 
ENDBRANCH  17  20
ENDBRANCH  15  16
ENDBRANCH   1  15
TORSDOF 3
ENDMDL
MODEL 4
REMARK VINA RESULT:      -7.9      2.732      4.177
REMARK  3 active torsions:
REMARK  status: ('A' for Active; 'I' for Inactive)
REMARK    1  A    between atoms: C_4  and  N_5 
REMARK       I    between atoms: N_5  and  C_6 
REMARK    2  A    between atoms: C_6  and  C_7 
REMARK    3  A    between atoms: C_7  and  C_8 
ROOT
HETATM    1  C   UNL     1     -41.473  55.673 -50.705  1.00  0.00     0.286 C 
HETATM    2  N   UNL     1     -42.143  54.740 -51.722  1.00  0.00    -0.056 N 
HETATM    3  H   UNL     1     -41.774  53.780 -51.586  1.00  0.00     0.278 HD
HETATM    4  H   UNL     1     -43.151  54.696 -51.523  1.00  0.00     0.278 HD
HETATM    5  C   UNL     1     -41.916  55.105 -53.167  1.00  0.00     0.209 C 
HETATM    6  C   UNL     1     -42.237  56.596 -53.373  1.00  0.00     0.115 C 
HETATM    7  N   UNL     1     -41.444  57.428 -52.484  1.00  0.00    -0.353 N 
HETATM    8  C   UNL     1     -41.242  57.123 -51.165  1.00  0.00     0.249 C 
HETATM    9  O   UNL     1     -40.868  57.993 -50.384  1.00  0.00    -0.271 OA
HETATM   10  C   UNL     1     -42.780  54.218 -54.057  1.00  0.00     0.035 C 
HETATM   11  C   UNL     1     -42.596  54.599 -55.525  1.00  0.00     0.002 C 
HETATM   12  C   UNL     1     -42.847  56.087 -55.770  1.00  0.00     0.002 C 
HETATM   13  C   UNL     1     -42.020  56.977 -54.840  1.00  0.00     0.027 C 
HETATM   14  H   UNL     1     -41.345  58.421 -52.688  1.00  0.00     0.163 HD
ENDROOT
BRANCH   1  15
HETATM   15  C   UNL     1     -40.211  55.061 -50.092  1.00  0.00     0.146 C 
BRANCH  15  16
HETATM   16  C   UNL     1     -40.546  53.939 -49.158  1.00  0.00     0.224 C 
HETATM   17  N   UNL     1     -40.534  52.622 -49.453  1.00  0.00    -0.327 N 
HETATM   18  H   UNL     1     -40.827  52.084 -48.639  1.00  0.00     0.169 HD
HETATM   19  O   UNL     1     -41.001  54.273 -48.051  1.00  0.00    -0.273 OA
BRANCH  17  20
HETATM   20  C   UNL     1     -40.224  51.824 -50.572  1.00  0.00     0.035 A 
HETATM   21  C   UNL     1     -40.108  52.250 -51.893  1.00  0.00     0.036 A 
HETATM   22  C   UNL     1     -39.818  51.342 -52.929  1.00  0.00    -0.060 A 
HETATM   23  C   UNL     1     -39.666  51.821 -54.346  1.00  0.00     0.048 C 
HETATM   24  C   UNL     1     -39.618  49.992 -52.631  1.00  0.00     0.007 A 
HETATM   25  C   UNL     1     -39.718  49.552 -51.317  1.00  0.00     0.003 A 
HETATM   26  C   UNL     1     -40.018  50.461 -50.300  1.00  0.00     0.029 A 
ENDBRANCH  17  20
ENDBRANCH  15  16
ENDBRANCH   1  15
TORSDOF 3
ENDMDL
MODEL 5
REMARK VINA RESULT:      -7.9     15.767     17.818
REMARK  3 active torsions:
REMARK  status: ('A' for Active; 'I' for Inactive)
REMARK    1  A    between atoms: C_4  and  N_5 
REMARK       I    between atoms: N_5  and  C_6 
REMARK    2  A    between atoms: C_6  and  C_7 
REMARK    3  A    between atoms: C_7  and  C_8 
ROOT
HETATM    1  C   UNL     1     -34.159  40.555 -54.953  1.00  0.00     0.286 C 
HETATM    2  N   UNL     1     -34.845  40.227 -53.620  1.00  0.00    -0.056 N 
HETATM    3  H   UNL     1     -35.714  40.789 -53.547  1.00  0.00     0.278 HD
HETATM    4  H   UNL     1     -35.136  39.241 -53.627  1.00  0.00     0.278 HD
HETATM    5  C   UNL     1     -34.021  40.517 -52.392  1.00  0.00     0.209 C 
HETATM    6  C   UNL     1     -32.626  39.886 -52.553  1.00  0.00     0.115 C 
HETATM    7  N   UNL     1     -31.972  40.369 -53.757  1.00  0.00    -0.353 N 
HETATM    8  C   UNL     1     -32.621  40.495 -54.956  1.00  0.00     0.249 C 
HETATM    9  O   UNL     1     -31.977  40.576 -55.998  1.00  0.00    -0.271 OA
HETATM   10  C   UNL     1     -34.740  39.977 -51.159  1.00  0.00     0.035 C 
HETATM   11  C   UNL     1     -33.902  40.224 -49.906  1.00  0.00     0.002 C 
HETATM   12  C   UNL     1     -32.484  39.667 -50.041  1.00  0.00     0.002 C 
HETATM   13  C   UNL     1     -31.783  40.164 -51.306  1.00  0.00     0.027 C 
HETATM   14  H   UNL     1     -30.964  40.259 -53.854  1.00  0.00     0.163 HD
ENDROOT
BRANCH   1  15
HETATM   15  C   UNL     1     -34.680  41.851 -55.578  1.00  0.00     0.146 C 
BRANCH  15  16
HETATM   16  C   UNL     1     -36.112  42.095 -55.213  1.00  0.00     0.224 C 
HETATM   17  N   UNL     1     -37.184  41.916 -56.014  1.00  0.00    -0.327 N 
HETATM   18  H   UNL     1     -38.033  42.181 -55.517  1.00  0.00     0.169 HD
HETATM   19  O   UNL     1     -36.306  42.635 -54.110  1.00  0.00    -0.273 OA
BRANCH  17  20
HETATM   20  C   UNL     1     -37.419  41.466 -57.328  1.00  0.00     0.035 A 
HETATM   21  C   UNL     1     -38.020  40.267 -57.703  1.00  0.00     0.036 A 
HETATM   22  C   UNL     1     -38.174  39.921 -59.060  1.00  0.00    -0.060 A 
HETATM   23  C   UNL     1     -38.852  38.638 -59.450  1.00  0.00     0.048 C 
HETATM   24  C   UNL     1     -37.740  40.803 -60.052  1.00  0.00     0.007 A 
HETATM   25  C   UNL     1     -37.149  42.009 -59.695  1.00  0.00     0.003 A 
HETATM   26  C   UNL     1     -36.992  42.335 -58.346  1.00  0.00     0.029 A 
ENDBRANCH  17  20
ENDBRANCH  15  16
ENDBRANCH   1  15
TORSDOF 3
ENDMDL
MODEL 6
REMARK VINA RESULT:      -7.9      3.414      6.856
REMARK  3 active torsions:
REMARK  status: ('A' for Active; 'I' for Inactive)
REMARK    1  A    between atoms: C_4  and  N_5 
REMARK       I    between atoms: N_5  and  C_6 
REMARK    2  A    between atoms: C_6  and  C_7 
REMARK    3  A    between atoms: C_7  and  C_8 
ROOT
HETATM    1  C   UNL     1     -40.749  54.644 -51.399  1.00  0.00     0.286 C 
HETATM    2  N   UNL     1     -40.473  54.072 -52.796  1.00  0.00    -0.056 N 
HETATM    3  H   UNL     1     -41.149  54.486 -53.464  1.00  0.00     0.278 HD
HETATM    4  H   UNL     1     -39.539  54.373 -53.102  1.00  0.00     0.278 HD
HETATM    5  C   UNL     1     -40.597  52.574 -52.906  1.00  0.00     0.209 C 
HETATM    6  C   UNL     1     -39.781  51.910 -51.781  1.00  0.00     0.115 C 
HETATM    7  N   UNL     1     -40.211  52.384 -50.476  1.00  0.00    -0.353 N 
HETATM    8  C   UNL     1     -40.472  53.702 -50.213  1.00  0.00     0.249 C 
HETATM    9  O   UNL     1     -40.499  54.103 -49.054  1.00  0.00    -0.271 OA
HETATM   10  C   UNL     1     -40.118  52.124 -54.283  1.00  0.00     0.035 C 
HETATM   11  C   UNL     1     -40.197  50.603 -54.402  1.00  0.00     0.002 C 
HETATM   12  C   UNL     1     -39.450  49.898 -53.270  1.00  0.00     0.002 C 
HETATM   13  C   UNL     1     -39.889  50.387 -51.889  1.00  0.00     0.027 C 
HETATM   14  H   UNL     1     -39.962  51.849 -49.646  1.00  0.00     0.163 HD
ENDROOT
BRANCH   1  15
HETATM   15  C   UNL     1     -42.129  55.299 -51.296  1.00  0.00     0.146 C 
BRANCH  15  16
HETATM   16  C   UNL     1     -43.202  54.396 -51.824  1.00  0.00     0.224 C 
HETATM   17  N   UNL     1     -43.746  54.436 -53.058  1.00  0.00    -0.327 N 
HETATM   18  H   UNL     1     -44.470  53.725 -53.138  1.00  0.00     0.169 HD
HETATM   19  O   UNL     1     -43.720  53.628 -50.994  1.00  0.00    -0.273 OA
BRANCH  17  20
HETATM   20  C   UNL     1     -43.570  55.194 -54.233  1.00  0.00     0.035 A 
HETATM   21  C   UNL     1     -43.900  56.534 -54.418  1.00  0.00     0.036 A 
HETATM   22  C   UNL     1     -43.697  57.171 -55.657  1.00  0.00    -0.060 A 
HETATM   23  C   UNL     1     -44.029  58.626 -55.833  1.00  0.00     0.048 C 
HETATM   24  C   UNL     1     -43.130  56.459 -56.716  1.00  0.00     0.007 A 
HETATM   25  C   UNL     1     -42.783  55.124 -56.545  1.00  0.00     0.003 A 
HETATM   26  C   UNL     1     -43.002  54.500 -55.315  1.00  0.00     0.029 A 
ENDBRANCH  17  20
ENDBRANCH  15  16
ENDBRANCH   1  15
TORSDOF 3
ENDMDL
MODEL 7
REMARK VINA RESULT:      -7.8      2.278      3.506
REMARK  3 active torsions:
REMARK  status: ('A' for Active; 'I' for Inactive)
REMARK    1  A    between atoms: C_4  and  N_5 
REMARK       I    between atoms: N_5  and  C_6 
REMARK    2  A    between atoms: C_6  and  C_7 
REMARK    3  A    between atoms: C_7  and  C_8 
ROOT
HETATM    1  C   UNL     1     -42.189  55.233 -53.214  1.00  0.00     0.286 C 
HETATM    2  N   UNL     1     -42.334  56.701 -52.792  1.00  0.00    -0.056 N 
HETATM    3  H   UNL     1     -42.270  56.758 -51.758  1.00  0.00     0.278 HD
HETATM    4  H   UNL     1     -41.539  57.236 -53.163  1.00  0.00     0.278 HD
HETATM    5  C   UNL     1     -43.632  57.354 -53.194  1.00  0.00     0.209 C 
HETATM    6  C   UNL     1     -43.888  57.101 -54.692  1.00  0.00     0.115 C 
HETATM    7  N   UNL     1     -43.896  55.678 -54.985  1.00  0.00    -0.353 N 
HETATM    8  C   UNL     1     -42.976  54.806 -54.466  1.00  0.00     0.249 C 
HETATM    9  O   UNL     1     -42.807  53.708 -54.987  1.00  0.00    -0.271 OA
HETATM   10  C   UNL     1     -43.569  58.846 -52.883  1.00  0.00     0.035 C 
HETATM   11  C   UNL     1     -44.860  59.535 -53.321  1.00  0.00     0.002 C 
HETATM   12  C   UNL     1     -45.188  59.263 -54.789  1.00  0.00     0.002 C 
HETATM   13  C   UNL     1     -45.198  57.768 -55.115  1.00  0.00     0.027 C 
HETATM   14  H   UNL     1     -44.313  55.352 -55.855  1.00  0.00     0.163 HD
ENDROOT
BRANCH   1  15
HETATM   15  C   UNL     1     -42.405  54.264 -52.048  1.00  0.00     0.146 C 
BRANCH  15  16
HETATM   16  C   UNL     1     -41.247  54.286 -51.099  1.00  0.00     0.224 C 
HETATM   17  N   UNL     1     -40.341  53.302 -50.918  1.00  0.00    -0.327 N 
HETATM   18  H   UNL     1     -39.677  53.573 -50.195  1.00  0.00     0.169 HD
HETATM   19  O   UNL     1     -41.203  55.253 -50.319  1.00  0.00    -0.273 OA
BRANCH  17  20
HETATM   20  C   UNL     1     -40.087  52.028 -51.464  1.00  0.00     0.035 A 
HETATM   21  C   UNL     1     -39.910  51.719 -52.810  1.00  0.00     0.036 A 
HETATM   22  C   UNL     1     -39.688  50.394 -53.231  1.00  0.00    -0.060 A 
HETATM   23  C   UNL     1     -39.468  50.079 -54.685  1.00  0.00     0.048 C 
HETATM   24  C   UNL     1     -39.617  49.370 -52.284  1.00  0.00     0.007 A 
HETATM   25  C   UNL     1     -39.779  49.662 -50.936  1.00  0.00     0.003 A 
HETATM   26  C   UNL     1     -40.011  50.979 -50.532  1.00  0.00     0.029 A 
ENDBRANCH  17  20
ENDBRANCH  15  16
ENDBRANCH   1  15
TORSDOF 3
ENDMDL
MODEL 8
REMARK VINA RESULT:      -7.6      3.217      4.746
REMARK  3 active torsions:
REMARK  status: ('A' for Active; 'I' for Inactive)
REMARK    1  A    between atoms: C_4  and  N_5 
REMARK       I    between atoms: N_5  and  C_6 
REMARK    2  A    between atoms: C_6  and  C_7 
REMARK    3  A    between atoms: C_7  and  C_8 
ROOT
HETATM    1  C   UNL     1     -42.901  57.671 -55.029  1.00  0.00     0.286 C 
HETATM    2  N   UNL     1     -43.533  56.737 -56.071  1.00  0.00    -0.056 N 
HETATM    3  H   UNL     1     -43.526  55.769 -55.697  1.00  0.00     0.278 HD
HETATM    4  H   UNL     1     -44.520  56.993 -56.195  1.00  0.00     0.278 HD
HETATM    5  C   UNL     1     -42.832  56.705 -57.405  1.00  0.00     0.209 C 
HETATM    6  C   UNL     1     -42.614  58.146 -57.902  1.00  0.00     0.115 C 
HETATM    7  N   UNL     1     -41.868  58.925 -56.928  1.00  0.00    -0.353 N 
HETATM    8  C   UNL     1     -42.124  58.877 -55.584  1.00  0.00     0.249 C 
HETATM    9  O   UNL     1     -41.720  59.774 -54.850  1.00  0.00    -0.271 OA
HETATM   10  C   UNL     1     -43.660  55.892 -58.395  1.00  0.00     0.035 C 
HETATM   11  C   UNL     1     -42.988  55.880 -59.766  1.00  0.00     0.002 C 
HETATM   12  C   UNL     1     -42.697  57.292 -60.276  1.00  0.00     0.002 C 
HETATM   13  C   UNL     1     -41.913  58.126 -59.262  1.00  0.00     0.027 C 
HETATM   14  H   UNL     1     -41.419  59.790 -57.223  1.00  0.00     0.163 HD
ENDROOT
BRANCH   1  15
HETATM   15  C   UNL     1     -42.096  56.911 -53.972  1.00  0.00     0.146 C 
BRANCH  15  16
HETATM   16  C   UNL     1     -42.994  56.244 -52.976  1.00  0.00     0.224 C 
HETATM   17  N   UNL     1     -42.771  55.065 -52.359  1.00  0.00    -0.327 N 
HETATM   18  H   UNL     1     -43.556  54.840 -51.751  1.00  0.00     0.169 HD
HETATM   19  O   UNL     1     -44.106  56.776 -52.809  1.00  0.00    -0.273 OA
BRANCH  17  20
HETATM   20  C   UNL     1     -41.751  54.093 -52.343  1.00  0.00     0.035 A 
HETATM   21  C   UNL     1     -41.429  53.206 -53.368  1.00  0.00     0.036 A 
HETATM   22  C   UNL     1     -40.398  52.259 -53.215  1.00  0.00    -0.060 A 
HETATM   23  C   UNL     1     -40.042  51.328 -54.341  1.00  0.00     0.048 C 
HETATM   24  C   UNL     1     -39.665  52.220 -52.028  1.00  0.00     0.007 A 
HETATM   25  C   UNL     1     -39.964  53.105 -51.000  1.00  0.00     0.003 A 
HETATM   26  C   UNL     1     -40.997  54.032 -51.159  1.00  0.00     0.029 A 
ENDBRANCH  17  20
ENDBRANCH  15  16
ENDBRANCH   1  15
TORSDOF 3
ENDMDL
MODEL 9
REMARK VINA RESULT:      -7.5      3.043      6.717
REMARK  3 active torsions:
REMARK  status: ('A' for Active; 'I' for Inactive)
REMARK    1  A    between atoms: C_4  and  N_5 
REMARK       I    between atoms: N_5  and  C_6 
REMARK    2  A    between atoms: C_6  and  C_7 
REMARK    3  A    between atoms: C_7  and  C_8 
ROOT
HETATM    1  C   UNL     1     -41.419  56.109 -53.611  1.00  0.00     0.286 C 
HETATM    2  N   UNL     1     -40.805  54.924 -54.369  1.00  0.00    -0.056 N 
HETATM    3  H   UNL     1     -41.327  54.791 -55.256  1.00  0.00     0.278 HD
HETATM    4  H   UNL     1     -39.839  55.159 -54.632  1.00  0.00     0.278 HD
HETATM    5  C   UNL     1     -40.837  53.611 -53.631  1.00  0.00     0.209 C 
HETATM    6  C   UNL     1     -40.274  53.809 -52.211  1.00  0.00     0.115 C 
HETATM    7  N   UNL     1     -41.012  54.838 -51.498  1.00  0.00    -0.353 N 
HETATM    8  C   UNL     1     -41.382  56.023 -52.075  1.00  0.00     0.249 C 
HETATM    9  O   UNL     1     -41.692  56.979 -51.371  1.00  0.00    -0.271 OA
HETATM   10  C   UNL     1     -40.036  52.570 -54.408  1.00  0.00     0.035 C 
HETATM   11  C   UNL     1     -40.021  51.241 -53.656  1.00  0.00     0.002 C 
HETATM   12  C   UNL     1     -39.525  51.398 -52.219  1.00  0.00     0.002 C 
HETATM   13  C   UNL     1     -40.290  52.480 -51.454  1.00  0.00     0.027 C 
HETATM   14  H   UNL     1     -40.938  54.889 -50.483  1.00  0.00     0.163 HD
ENDROOT
BRANCH   1  15
HETATM   15  C   UNL     1     -42.812  56.477 -54.129  1.00  0.00     0.146 C 
BRANCH  15  16
HETATM   16  C   UNL     1     -43.352  55.420 -55.042  1.00  0.00     0.224 C 
HETATM   17  N   UNL     1     -43.368  55.459 -56.390  1.00  0.00    -0.327 N 
HETATM   18  H   UNL     1     -43.815  54.619 -56.754  1.00  0.00     0.169 HD
HETATM   19  O   UNL     1     -43.955  54.484 -54.489  1.00  0.00    -0.273 OA
BRANCH  17  20
HETATM   20  C   UNL     1     -42.933  56.343 -57.397  1.00  0.00     0.035 A 
HETATM   21  C   UNL     1     -42.496  57.654 -57.222  1.00  0.00     0.036 A 
HETATM   22  C   UNL     1     -42.110  58.447 -58.320  1.00  0.00    -0.060 A 
HETATM   23  C   UNL     1     -41.611  59.849 -58.112  1.00  0.00     0.048 C 
HETATM   24  C   UNL     1     -42.141  57.908 -59.607  1.00  0.00     0.007 A 
HETATM   25  C   UNL     1     -42.563  56.598 -59.799  1.00  0.00     0.003 A 
HETATM   26  C   UNL     1     -42.954  55.825 -58.703  1.00  0.00     0.029 A 
ENDBRANCH  17  20
ENDBRANCH  15  16
ENDBRANCH   1  15
TORSDOF 3
ENDMDL
MODEL 10
REMARK VINA RESULT:      -7.2      4.074      7.378
REMARK  3 active torsions:
REMARK  status: ('A' for Active; 'I' for Inactive)
REMARK    1  A    between atoms: C_4  and  N_5 
REMARK       I    between atoms: N_5  and  C_6 
REMARK    2  A    between atoms: C_6  and  C_7 
REMARK    3  A    between atoms: C_7  and  C_8 
ROOT
HETATM    1  C   UNL     1     -42.093  56.857 -55.071  1.00  0.00     0.286 C 
HETATM    2  N   UNL     1     -41.117  55.717 -55.392  1.00  0.00    -0.056 N 
HETATM    3  H   UNL     1     -41.272  55.414 -56.372  1.00  0.00     0.278 HD
HETATM    4  H   UNL     1     -40.155  56.078 -55.348  1.00  0.00     0.278 HD
HETATM    5  C   UNL     1     -41.255  54.496 -54.519  1.00  0.00     0.209 C 
HETATM    6  C   UNL     1     -41.258  54.924 -53.040  1.00  0.00     0.115 C 
HETATM    7  N   UNL     1     -42.315  55.886 -52.778  1.00  0.00    -0.353 N 
HETATM    8  C   UNL     1     -42.592  56.932 -53.617  1.00  0.00     0.249 C 
HETATM    9  O   UNL     1     -43.240  57.891 -53.209  1.00  0.00    -0.271 OA
HETATM   10  C   UNL     1     -40.116  53.527 -54.818  1.00  0.00     0.035 C 
HETATM   11  C   UNL     1     -40.213  52.299 -53.915  1.00  0.00     0.002 C 
HETATM   12  C   UNL     1     -40.279  52.677 -52.435  1.00  0.00     0.002 C 
HETATM   13  C   UNL     1     -41.386  53.691 -52.143  1.00  0.00     0.027 C 
HETATM   14  H   UNL     1     -42.611  56.050 -51.818  1.00  0.00     0.163 HD
ENDROOT
BRANCH   1  15
HETATM   15  C   UNL     1     -43.246  56.943 -56.074  1.00  0.00     0.146 C 
BRANCH  15  16
HETATM   16  C   UNL     1     -42.910  56.237 -57.352  1.00  0.00     0.224 C 
HETATM   17  N   UNL     1     -42.507  56.814 -58.503  1.00  0.00    -0.327 N 
HETATM   18  H   UNL     1     -42.371  56.101 -59.217  1.00  0.00     0.169 HD
HETATM   19  O   UNL     1     -43.155  55.018 -57.378  1.00  0.00    -0.273 OA
BRANCH  17  20
HETATM   20  C   UNL     1     -42.231  58.120 -58.955  1.00  0.00     0.035 A 
HETATM   21  C   UNL     1     -41.954  59.233 -58.165  1.00  0.00     0.036 A 
HETATM   22  C   UNL     1     -41.720  60.497 -58.742  1.00  0.00    -0.060 A 
HETATM   23  C   UNL     1     -41.392  61.683 -57.880  1.00  0.00     0.048 C 
HETATM   24  C   UNL     1     -41.740  60.637 -60.132  1.00  0.00     0.007 A 
HETATM   25  C   UNL     1     -42.003  59.534 -60.935  1.00  0.00     0.003 A 
HETATM   26  C   UNL     1     -42.245  58.289 -60.350  1.00  0.00     0.029 A 
ENDBRANCH  17  20
ENDBRANCH  15  16
ENDBRANCH   1  15
TORSDOF 3
ENDMDL
