MODEL 1
REMARK VINA RESULT:      -9.0      0.000      0.000
REMARK  7 active torsions:
REMARK  status: ('A' for Active; 'I' for Inactive)
REMARK    1  A    between atoms: C_5  and  C_6 
REMARK    2  A    between atoms: C_10  and  C_11 
REMARK       I    between atoms: C_11  and  N_12 
REMARK    3  A    between atoms: N_12  and  N_13 
REMARK       I    between atoms: N_13  and  C_14 
REMARK       I    between atoms: C_14  and  N_15 
REMARK    4  A    between atoms: N_15  and  C_16 
REMARK    5  A    between atoms: C_16  and  C_17 
REMARK    6  A    between atoms: C_17  and  C_18 
REMARK    7  A    between atoms: C_21  and  O_22 
ROOT
HETATM    1  C   UNL     1     -42.466  58.082 -50.976  1.00  0.00     0.288 C 
HETATM    2  N   UNL     1     -43.738  58.603 -50.890  1.00  0.00    -0.261 N 
HETATM    3  O   UNL     1     -41.474  58.728 -50.643  1.00  0.00    -0.264 OA
HETATM    4  H   UNL     1     -44.586  58.075 -51.073  1.00  0.00     0.190 HD
ENDROOT
BRANCH   2   5
HETATM    5  N   UNL     1     -43.906  59.945 -50.516  1.00  0.00    -0.249 N 
HETATM    6  C   UNL     1     -45.112  60.284 -49.939  1.00  0.00     0.335 C 
HETATM    7  N   UNL     1     -45.159  61.610 -49.599  1.00  0.00    -0.337 N 
HETATM    8  O   UNL     1     -46.035  59.490 -49.793  1.00  0.00    -0.246 OA
HETATM    9  H   UNL     1     -44.484  62.214 -50.046  1.00  0.00     0.164 HD
HETATM   10  H   UNL     1     -43.067  60.395 -50.156  1.00  0.00     0.192 HD
BRANCH   7  11
HETATM   11  C   UNL     1     -46.340  62.223 -49.000  1.00  0.00     0.086 C 
HETATM   12  C   UNL     1     -46.733  63.499 -49.753  1.00  0.00     0.032 C 
BRANCH  11  13
HETATM   13  C   UNL     1     -46.106  62.559 -47.511  1.00  0.00     0.063 C 
BRANCH  13  14
HETATM   14  C   UNL     1     -46.112  61.390 -46.547  1.00  0.00    -0.056 A 
HETATM   15  C   UNL     1     -47.238  60.551 -46.489  1.00  0.00     0.010 A 
HETATM   16  C   UNL     1     -47.270  59.452 -45.628  1.00  0.00     0.037 A 
HETATM   17  C   UNL     1     -46.166  59.180 -44.829  1.00  0.00     0.065 A 
HETATM   18  C   UNL     1     -45.036  59.986 -44.883  1.00  0.00     0.037 A 
HETATM   19  C   UNL     1     -45.005  61.083 -45.745  1.00  0.00     0.010 A 
BRANCH  17  20
HETATM   20  O   UNL     1     -46.152  58.119 -43.974  1.00  0.00    -0.361 OA
HETATM   21  H   UNL     1     -45.270  57.715 -43.994  1.00  0.00     0.217 HD
ENDBRANCH  17  20
ENDBRANCH  13  14
ENDBRANCH  11  13
ENDBRANCH   7  11
ENDBRANCH   2   5
BRANCH   1  22
HETATM   22  C   UNL     1     -42.381  56.751 -51.509  1.00  0.00     0.121 A 
HETATM   23  N   UNL     1     -43.455  55.906 -51.515  1.00  0.00    -0.272 N 
HETATM   24  N   UNL     1     -43.182  54.671 -51.955  1.00  0.00    -0.174 NA
HETATM   25  H   UNL     1     -44.395  56.116 -51.192  1.00  0.00     0.189 HD
HETATM   26  C   UNL     1     -41.881  54.707 -52.284  1.00  0.00     0.089 A 
HETATM   27  C   UNL     1     -41.349  56.005 -52.045  1.00  0.00     0.071 A 
BRANCH  26  28
HETATM   28  C   UNL     1     -41.169  53.520 -52.761  1.00  0.00    -0.006 A 
HETATM   29  C   UNL     1     -40.256  52.844 -51.942  1.00  0.00     0.014 A 
HETATM   30  C   UNL     1     -39.621  51.680 -52.391  1.00  0.00     0.007 A 
HETATM   31  C   UNL     1     -39.883  51.176 -53.669  1.00  0.00    -0.062 A 
HETATM   32  C   UNL     1     -39.245  49.898 -54.129  1.00  0.00     0.048 C 
HETATM   33  C   UNL     1     -40.794  51.848 -54.490  1.00  0.00     0.007 A 
HETATM   34  C   UNL     1     -41.424  53.013 -54.043  1.00  0.00     0.014 A 
ENDBRANCH  26  28
ENDBRANCH   1  22
TORSDOF 7
ENDMDL
MODEL 2
REMARK VINA RESULT:      -8.5      6.484     10.405
REMARK  7 active torsions:
REMARK  status: ('A' for Active; 'I' for Inactive)
REMARK    1  A    between atoms: C_5  and  C_6 
REMARK    2  A    between atoms: C_10  and  C_11 
REMARK       I    between atoms: C_11  and  N_12 
REMARK    3  A    between atoms: N_12  and  N_13 
REMARK       I    between atoms: N_13  and  C_14 
REMARK       I    between atoms: C_14  and  N_15 
REMARK    4  A    between atoms: N_15  and  C_16 
REMARK    5  A    between atoms: C_16  and  C_17 
REMARK    6  A    between atoms: C_17  and  C_18 
REMARK    7  A    between atoms: C_21  and  O_22 
ROOT
HETATM    1  C   UNL     1     -43.362  56.519 -56.876  1.00  0.00     0.288 C 
HETATM    2  N   UNL     1     -44.076  56.719 -55.715  1.00  0.00    -0.261 N 
HETATM    3  O   UNL     1     -42.908  55.417 -57.180  1.00  0.00    -0.264 OA
HETATM    4  H   UNL     1     -44.539  57.590 -55.471  1.00  0.00     0.190 HD
ENDROOT
BRANCH   2   5
HETATM    5  N   UNL     1     -44.199  55.667 -54.795  1.00  0.00    -0.249 N 
HETATM    6  C   UNL     1     -43.277  55.626 -53.769  1.00  0.00     0.335 C 
HETATM    7  N   UNL     1     -43.502  54.572 -52.924  1.00  0.00    -0.337 N 
HETATM    8  O   UNL     1     -42.351  56.423 -53.665  1.00  0.00    -0.246 OA
HETATM    9  H   UNL     1     -44.079  53.824 -53.281  1.00  0.00     0.164 HD
HETATM   10  H   UNL     1     -45.157  55.397 -54.581  1.00  0.00     0.192 HD
BRANCH   7  11
HETATM   11  C   UNL     1     -42.645  54.292 -51.777  1.00  0.00     0.086 C 
HETATM   12  C   UNL     1     -42.844  55.342 -50.678  1.00  0.00     0.032 C 
BRANCH  11  13
HETATM   13  C   UNL     1     -41.155  54.252 -52.183  1.00  0.00     0.063 C 
BRANCH  13  14
HETATM   14  C   UNL     1     -40.616  52.911 -52.635  1.00  0.00    -0.056 A 
HETATM   15  C   UNL     1     -39.995  52.067 -51.698  1.00  0.00     0.010 A 
HETATM   16  C   UNL     1     -39.505  50.815 -52.075  1.00  0.00     0.037 A 
HETATM   17  C   UNL     1     -39.647  50.395 -53.392  1.00  0.00     0.065 A 
HETATM   18  C   UNL     1     -40.273  51.206 -54.331  1.00  0.00     0.037 A 
HETATM   19  C   UNL     1     -40.764  52.456 -53.952  1.00  0.00     0.010 A 
BRANCH  17  20
HETATM   20  O   UNL     1     -39.184  49.182 -53.805  1.00  0.00    -0.361 OA
HETATM   21  H   UNL     1     -38.461  49.324 -54.437  1.00  0.00     0.217 HD
ENDBRANCH  17  20
ENDBRANCH  13  14
ENDBRANCH  11  13
ENDBRANCH   7  11
ENDBRANCH   2   5
BRANCH   1  22
HETATM   22  C   UNL     1     -43.162  57.689 -57.685  1.00  0.00     0.121 A 
HETATM   23  N   UNL     1     -43.972  57.976 -58.748  1.00  0.00    -0.272 N 
HETATM   24  N   UNL     1     -43.590  59.048 -59.457  1.00  0.00    -0.174 NA
HETATM   25  H   UNL     1     -44.783  57.448 -59.056  1.00  0.00     0.189 HD
HETATM   26  C   UNL     1     -42.501  59.507 -58.819  1.00  0.00     0.089 A 
HETATM   27  C   UNL     1     -42.218  58.696 -57.683  1.00  0.00     0.071 A 
BRANCH  26  28
HETATM   28  C   UNL     1     -41.737  60.652 -59.316  1.00  0.00    -0.006 A 
HETATM   29  C   UNL     1     -40.953  61.429 -58.454  1.00  0.00     0.014 A 
HETATM   30  C   UNL     1     -40.185  62.489 -58.951  1.00  0.00     0.007 A 
HETATM   31  C   UNL     1     -40.193  62.795 -60.315  1.00  0.00    -0.062 A 
HETATM   32  C   UNL     1     -39.328  63.895 -60.855  1.00  0.00     0.048 C 
HETATM   33  C   UNL     1     -40.975  62.021 -61.179  1.00  0.00     0.007 A 
HETATM   34  C   UNL     1     -41.745  60.966 -60.682  1.00  0.00     0.014 A 
ENDBRANCH  26  28
ENDBRANCH   1  22
TORSDOF 7
ENDMDL
MODEL 3
REMARK VINA RESULT:      -8.3      7.202     10.760
REMARK  7 active torsions:
REMARK  status: ('A' for Active; 'I' for Inactive)
REMARK    1  A    between atoms: C_5  and  C_6 
REMARK    2  A    between atoms: C_10  and  C_11 
REMARK       I    between atoms: C_11  and  N_12 
REMARK    3  A    between atoms: N_12  and  N_13 
REMARK       I    between atoms: N_13  and  C_14 
REMARK       I    between atoms: C_14  and  N_15 
REMARK    4  A    between atoms: N_15  and  C_16 
REMARK    5  A    between atoms: C_16  and  C_17 
REMARK    6  A    between atoms: C_17  and  C_18 
REMARK    7  A    between atoms: C_21  and  O_22 
ROOT
HETATM    1  C   UNL     1     -43.627  57.242 -56.766  1.00  0.00     0.288 C 
HETATM    2  N   UNL     1     -44.284  56.592 -55.746  1.00  0.00    -0.261 N 
HETATM    3  O   UNL     1     -42.535  57.784 -56.596  1.00  0.00    -0.264 OA
HETATM    4  H   UNL     1     -45.142  56.061 -55.866  1.00  0.00     0.190 HD
ENDROOT
BRANCH   2   5
HETATM    5  N   UNL     1     -43.755  56.639 -54.447  1.00  0.00    -0.249 N 
HETATM    6  C   UNL     1     -43.220  55.469 -53.950  1.00  0.00     0.335 C 
HETATM    7  N   UNL     1     -42.718  55.636 -52.687  1.00  0.00    -0.337 N 
HETATM    8  O   UNL     1     -43.236  54.408 -54.564  1.00  0.00    -0.246 OA
HETATM    9  H   UNL     1     -43.040  56.446 -52.177  1.00  0.00     0.164 HD
HETATM   10  H   UNL     1     -43.288  57.512 -54.209  1.00  0.00     0.192 HD
BRANCH   7  11
HETATM   11  C   UNL     1     -42.125  54.538 -51.930  1.00  0.00     0.086 C 
HETATM   12  C   UNL     1     -42.072  54.872 -50.436  1.00  0.00     0.032 C 
BRANCH  11  13
HETATM   13  C   UNL     1     -40.701  54.212 -52.433  1.00  0.00     0.063 C 
BRANCH  13  14
HETATM   14  C   UNL     1     -40.326  52.746 -52.490  1.00  0.00    -0.056 A 
HETATM   15  C   UNL     1     -40.301  52.090 -53.733  1.00  0.00     0.010 A 
HETATM   16  C   UNL     1     -39.938  50.744 -53.826  1.00  0.00     0.037 A 
HETATM   17  C   UNL     1     -39.586  50.051 -52.675  1.00  0.00     0.065 A 
HETATM   18  C   UNL     1     -39.587  50.685 -51.438  1.00  0.00     0.037 A 
HETATM   19  C   UNL     1     -39.947  52.031 -51.347  1.00  0.00     0.010 A 
BRANCH  17  20
HETATM   20  O   UNL     1     -39.226  48.738 -52.717  1.00  0.00    -0.361 OA
HETATM   21  H   UNL     1     -40.031  48.196 -52.744  1.00  0.00     0.217 HD
ENDBRANCH  17  20
ENDBRANCH  13  14
ENDBRANCH  11  13
ENDBRANCH   7  11
ENDBRANCH   2   5
BRANCH   1  22
HETATM   22  C   UNL     1     -44.315  57.268 -58.026  1.00  0.00     0.121 A 
HETATM   23  N   UNL     1     -43.651  57.140 -59.213  1.00  0.00    -0.272 N 
HETATM   24  N   UNL     1     -44.426  57.284 -60.297  1.00  0.00    -0.174 NA
HETATM   25  H   UNL     1     -42.654  56.987 -59.339  1.00  0.00     0.189 HD
HETATM   26  C   UNL     1     -45.660  57.485 -59.807  1.00  0.00     0.089 A 
HETATM   27  C   UNL     1     -45.636  57.453 -58.384  1.00  0.00     0.071 A 
BRANCH  26  28
HETATM   28  C   UNL     1     -46.806  57.748 -60.679  1.00  0.00    -0.006 A 
HETATM   29  C   UNL     1     -47.493  56.702 -61.308  1.00  0.00     0.014 A 
HETATM   30  C   UNL     1     -48.620  56.963 -62.097  1.00  0.00     0.007 A 
HETATM   31  C   UNL     1     -49.074  58.273 -62.277  1.00  0.00    -0.062 A 
HETATM   32  C   UNL     1     -50.313  58.547 -63.077  1.00  0.00     0.048 C 
HETATM   33  C   UNL     1     -48.390  59.320 -61.651  1.00  0.00     0.007 A 
HETATM   34  C   UNL     1     -47.262  59.060 -60.867  1.00  0.00     0.014 A 
ENDBRANCH  26  28
ENDBRANCH   1  22
TORSDOF 7
ENDMDL
MODEL 4
REMARK VINA RESULT:      -8.2      2.267      2.643
REMARK  7 active torsions:
REMARK  status: ('A' for Active; 'I' for Inactive)
REMARK    1  A    between atoms: C_5  and  C_6 
REMARK    2  A    between atoms: C_10  and  C_11 
REMARK       I    between atoms: C_11  and  N_12 
REMARK    3  A    between atoms: N_12  and  N_13 
REMARK       I    between atoms: N_13  and  C_14 
REMARK       I    between atoms: C_14  and  N_15 
REMARK    4  A    between atoms: N_15  and  C_16 
REMARK    5  A    between atoms: C_16  and  C_17 
REMARK    6  A    between atoms: C_17  and  C_18 
REMARK    7  A    between atoms: C_21  and  O_22 
ROOT
HETATM    1  C   UNL     1     -41.522  58.535 -50.695  1.00  0.00     0.288 C 
HETATM    2  N   UNL     1     -42.393  59.211 -51.521  1.00  0.00    -0.261 N 
HETATM    3  O   UNL     1     -40.835  59.118 -49.857  1.00  0.00    -0.264 OA
HETATM    4  H   UNL     1     -43.038  58.760 -52.164  1.00  0.00     0.190 HD
ENDROOT
BRANCH   2   5
HETATM    5  N   UNL     1     -42.423  60.613 -51.487  1.00  0.00    -0.249 N 
HETATM    6  C   UNL     1     -43.478  61.198 -50.820  1.00  0.00     0.335 C 
HETATM    7  N   UNL     1     -43.396  62.565 -50.835  1.00  0.00    -0.337 N 
HETATM    8  O   UNL     1     -44.392  60.556 -50.314  1.00  0.00    -0.246 OA
HETATM    9  H   UNL     1     -42.792  62.972 -51.535  1.00  0.00     0.164 HD
HETATM   10  H   UNL     1     -41.510  61.057 -51.410  1.00  0.00     0.192 HD
BRANCH   7  11
HETATM   11  C   UNL     1     -44.410  63.417 -50.223  1.00  0.00     0.086 C 
HETATM   12  C   UNL     1     -44.554  64.734 -50.992  1.00  0.00     0.032 C 
BRANCH  11  13
HETATM   13  C   UNL     1     -44.073  63.721 -48.746  1.00  0.00     0.063 C 
BRANCH  13  14
HETATM   14  C   UNL     1     -45.228  63.678 -47.768  1.00  0.00    -0.056 A 
HETATM   15  C   UNL     1     -45.281  64.615 -46.722  1.00  0.00     0.010 A 
HETATM   16  C   UNL     1     -46.343  64.618 -45.815  1.00  0.00     0.037 A 
HETATM   17  C   UNL     1     -47.366  63.689 -45.959  1.00  0.00     0.065 A 
HETATM   18  C   UNL     1     -47.343  62.764 -46.996  1.00  0.00     0.037 A 
HETATM   19  C   UNL     1     -46.282  62.764 -47.904  1.00  0.00     0.010 A 
BRANCH  17  20
HETATM   20  O   UNL     1     -48.421  63.654 -45.098  1.00  0.00    -0.361 OA
HETATM   21  H   UNL     1     -48.285  64.328 -44.412  1.00  0.00     0.217 HD
ENDBRANCH  17  20
ENDBRANCH  13  14
ENDBRANCH  11  13
ENDBRANCH   7  11
ENDBRANCH   2   5
BRANCH   1  22
HETATM   22  C   UNL     1     -41.452  57.116 -50.902  1.00  0.00     0.121 A 
HETATM   23  N   UNL     1     -41.731  56.227 -49.902  1.00  0.00    -0.272 N 
HETATM   24  N   UNL     1     -41.523  54.945 -50.231  1.00  0.00    -0.174 NA
HETATM   25  H   UNL     1     -42.034  56.449 -48.958  1.00  0.00     0.189 HD
HETATM   26  C   UNL     1     -41.119  54.984 -51.511  1.00  0.00     0.089 A 
HETATM   27  C   UNL     1     -41.091  56.328 -51.978  1.00  0.00     0.071 A 
BRANCH  26  28
HETATM   28  C   UNL     1     -40.730  53.774 -52.238  1.00  0.00    -0.006 A 
HETATM   29  C   UNL     1     -39.928  52.795 -51.637  1.00  0.00     0.014 A 
HETATM   30  C   UNL     1     -39.606  51.618 -52.324  1.00  0.00     0.007 A 
HETATM   31  C   UNL     1     -40.073  51.404 -53.625  1.00  0.00    -0.062 A 
HETATM   32  C   UNL     1     -39.774  50.119 -54.339  1.00  0.00     0.048 C 
HETATM   33  C   UNL     1     -40.874  52.379 -54.228  1.00  0.00     0.007 A 
HETATM   34  C   UNL     1     -41.191  53.556 -53.543  1.00  0.00     0.014 A 
ENDBRANCH  26  28
ENDBRANCH   1  22
TORSDOF 7
ENDMDL
MODEL 5
REMARK VINA RESULT:      -8.1      1.884      2.402
REMARK  7 active torsions:
REMARK  status: ('A' for Active; 'I' for Inactive)
REMARK    1  A    between atoms: C_5  and  C_6 
REMARK    2  A    between atoms: C_10  and  C_11 
REMARK       I    between atoms: C_11  and  N_12 
REMARK    3  A    between atoms: N_12  and  N_13 
REMARK       I    between atoms: N_13  and  C_14 
REMARK       I    between atoms: C_14  and  N_15 
REMARK    4  A    between atoms: N_15  and  C_16 
REMARK    5  A    between atoms: C_16  and  C_17 
REMARK    6  A    between atoms: C_17  and  C_18 
REMARK    7  A    between atoms: C_21  and  O_22 
ROOT
HETATM    1  C   UNL     1     -42.297  59.695 -51.682  1.00  0.00     0.288 C 
HETATM    2  N   UNL     1     -42.748  59.494 -50.396  1.00  0.00    -0.261 N 
HETATM    3  O   UNL     1     -42.162  60.822 -52.156  1.00  0.00    -0.264 OA
HETATM    4  H   UNL     1     -42.791  58.587 -49.941  1.00  0.00     0.190 HD
ENDROOT
BRANCH   2   5
HETATM    5  N   UNL     1     -43.173  60.595 -49.637  1.00  0.00    -0.249 N 
HETATM    6  C   UNL     1     -44.532  60.822 -49.576  1.00  0.00     0.335 C 
HETATM    7  N   UNL     1     -44.832  61.907 -48.797  1.00  0.00    -0.337 N 
HETATM    8  O   UNL     1     -45.354  60.147 -50.185  1.00  0.00    -0.246 OA
HETATM    9  H   UNL     1     -44.078  62.554 -48.615  1.00  0.00     0.164 HD
HETATM   10  H   UNL     1     -42.626  60.769 -48.797  1.00  0.00     0.192 HD
BRANCH   7  11
HETATM   11  C   UNL     1     -46.200  62.373 -48.598  1.00  0.00     0.086 C 
HETATM   12  C   UNL     1     -46.281  63.898 -48.724  1.00  0.00     0.032 C 
BRANCH  11  13
HETATM   13  C   UNL     1     -46.746  61.944 -47.217  1.00  0.00     0.063 C 
BRANCH  13  14
HETATM   14  C   UNL     1     -45.778  62.021 -46.056  1.00  0.00    -0.056 A 
HETATM   15  C   UNL     1     -45.648  63.227 -45.346  1.00  0.00     0.010 A 
HETATM   16  C   UNL     1     -44.781  63.329 -44.255  1.00  0.00     0.037 A 
HETATM   17  C   UNL     1     -44.047  62.216 -43.863  1.00  0.00     0.065 A 
HETATM   18  C   UNL     1     -44.171  61.009 -44.540  1.00  0.00     0.037 A 
HETATM   19  C   UNL     1     -45.041  60.909 -45.627  1.00  0.00     0.010 A 
BRANCH  17  20
HETATM   20  O   UNL     1     -43.188  62.268 -42.806  1.00  0.00    -0.361 OA
HETATM   21  H   UNL     1     -42.373  61.797 -43.044  1.00  0.00     0.217 HD
ENDBRANCH  17  20
ENDBRANCH  13  14
ENDBRANCH  11  13
ENDBRANCH   7  11
ENDBRANCH   2   5
BRANCH   1  22
HETATM   22  C   UNL     1     -42.026  58.502 -52.434  1.00  0.00     0.121 A 
HETATM   23  N   UNL     1     -42.506  58.324 -53.701  1.00  0.00    -0.272 N 
HETATM   24  N   UNL     1     -42.246  57.118 -54.224  1.00  0.00    -0.174 NA
HETATM   25  H   UNL     1     -43.051  58.988 -54.243  1.00  0.00     0.189 HD
HETATM   26  C   UNL     1     -41.539  56.482 -53.276  1.00  0.00     0.089 A 
HETATM   27  C   UNL     1     -41.354  57.329 -52.148  1.00  0.00     0.071 A 
BRANCH  26  28
HETATM   28  C   UNL     1     -41.103  55.094 -53.436  1.00  0.00    -0.006 A 
HETATM   29  C   UNL     1     -40.694  54.601 -54.682  1.00  0.00     0.014 A 
HETATM   30  C   UNL     1     -40.229  53.287 -54.812  1.00  0.00     0.007 A 
HETATM   31  C   UNL     1     -40.172  52.441 -53.700  1.00  0.00    -0.062 A 
HETATM   32  C   UNL     1     -39.622  51.051 -53.828  1.00  0.00     0.048 C 
HETATM   33  C   UNL     1     -40.580  52.928 -52.454  1.00  0.00     0.007 A 
HETATM   34  C   UNL     1     -41.049  54.239 -52.326  1.00  0.00     0.014 A 
ENDBRANCH  26  28
ENDBRANCH   1  22
TORSDOF 7
ENDMDL
MODEL 6
REMARK VINA RESULT:      -8.0      1.767      2.365
REMARK  7 active torsions:
REMARK  status: ('A' for Active; 'I' for Inactive)
REMARK    1  A    between atoms: C_5  and  C_6 
REMARK    2  A    between atoms: C_10  and  C_11 
REMARK       I    between atoms: C_11  and  N_12 
REMARK    3  A    between atoms: N_12  and  N_13 
REMARK       I    between atoms: N_13  and  C_14 
REMARK       I    between atoms: C_14  and  N_15 
REMARK    4  A    between atoms: N_15  and  C_16 
REMARK    5  A    between atoms: C_16  and  C_17 
REMARK    6  A    between atoms: C_17  and  C_18 
REMARK    7  A    between atoms: C_21  and  O_22 
ROOT
HETATM    1  C   UNL     1     -43.998  57.486 -51.358  1.00  0.00     0.288 C 
HETATM    2  N   UNL     1     -43.610  58.672 -51.940  1.00  0.00    -0.261 N 
HETATM    3  O   UNL     1     -45.085  57.362 -50.795  1.00  0.00    -0.264 OA
HETATM    4  H   UNL     1     -42.762  58.791 -52.486  1.00  0.00     0.190 HD
ENDROOT
BRANCH   2   5
HETATM    5  N   UNL     1     -44.424  59.806 -51.797  1.00  0.00    -0.249 N 
HETATM    6  C   UNL     1     -43.814  60.958 -51.347  1.00  0.00     0.335 C 
HETATM    7  N   UNL     1     -44.695  62.002 -51.263  1.00  0.00    -0.337 N 
HETATM    8  O   UNL     1     -42.631  61.012 -51.028  1.00  0.00    -0.246 OA
HETATM    9  H   UNL     1     -45.676  61.763 -51.245  1.00  0.00     0.164 HD
HETATM   10  H   UNL     1     -45.150  59.901 -52.504  1.00  0.00     0.192 HD
BRANCH   7  11
HETATM   11  C   UNL     1     -44.301  63.323 -50.783  1.00  0.00     0.086 C 
HETATM   12  C   UNL     1     -43.067  63.831 -51.534  1.00  0.00     0.032 C 
BRANCH  11  13
HETATM   13  C   UNL     1     -44.006  63.306 -49.266  1.00  0.00     0.063 C 
BRANCH  13  14
HETATM   14  C   UNL     1     -45.030  62.617 -48.388  1.00  0.00    -0.056 A 
HETATM   15  C   UNL     1     -44.680  61.429 -47.724  1.00  0.00     0.010 A 
HETATM   16  C   UNL     1     -45.592  60.779 -46.889  1.00  0.00     0.037 A 
HETATM   17  C   UNL     1     -46.857  61.324 -46.705  1.00  0.00     0.065 A 
HETATM   18  C   UNL     1     -47.218  62.507 -47.338  1.00  0.00     0.037 A 
HETATM   19  C   UNL     1     -46.304  63.157 -48.169  1.00  0.00     0.010 A 
BRANCH  17  20
HETATM   20  O   UNL     1     -47.779  60.725 -45.900  1.00  0.00    -0.361 OA
HETATM   21  H   UNL     1     -47.815  59.780 -46.120  1.00  0.00     0.217 HD
ENDBRANCH  17  20
ENDBRANCH  13  14
ENDBRANCH  11  13
ENDBRANCH   7  11
ENDBRANCH   2   5
BRANCH   1  22
HETATM   22  C   UNL     1     -43.036  56.422 -51.427  1.00  0.00     0.121 A 
HETATM   23  N   UNL     1     -41.915  56.412 -50.645  1.00  0.00    -0.272 N 
HETATM   24  N   UNL     1     -41.074  55.401 -50.903  1.00  0.00    -0.174 NA
HETATM   25  H   UNL     1     -41.659  57.097 -49.940  1.00  0.00     0.189 HD
HETATM   26  C   UNL     1     -41.676  54.696 -51.873  1.00  0.00     0.089 A 
HETATM   27  C   UNL     1     -42.926  55.289 -52.209  1.00  0.00     0.071 A 
BRANCH  26  28
HETATM   28  C   UNL     1     -41.046  53.525 -52.486  1.00  0.00    -0.006 A 
HETATM   29  C   UNL     1     -40.143  52.730 -51.769  1.00  0.00     0.014 A 
HETATM   30  C   UNL     1     -39.588  51.583 -52.347  1.00  0.00     0.007 A 
HETATM   31  C   UNL     1     -39.920  51.215 -53.655  1.00  0.00    -0.062 A 
HETATM   32  C   UNL     1     -39.368  49.956 -54.256  1.00  0.00     0.048 C 
HETATM   33  C   UNL     1     -40.822  52.006 -54.375  1.00  0.00     0.007 A 
HETATM   34  C   UNL     1     -41.372  53.155 -53.798  1.00  0.00     0.014 A 
ENDBRANCH  26  28
ENDBRANCH   1  22
TORSDOF 7
ENDMDL
MODEL 7
REMARK VINA RESULT:      -8.0      5.981      8.772
REMARK  7 active torsions:
REMARK  status: ('A' for Active; 'I' for Inactive)
REMARK    1  A    between atoms: C_5  and  C_6 
REMARK    2  A    between atoms: C_10  and  C_11 
REMARK       I    between atoms: C_11  and  N_12 
REMARK    3  A    between atoms: N_12  and  N_13 
REMARK       I    between atoms: N_13  and  C_14 
REMARK       I    between atoms: C_14  and  N_15 
REMARK    4  A    between atoms: N_15  and  C_16 
REMARK    5  A    between atoms: C_16  and  C_17 
REMARK    6  A    between atoms: C_17  and  C_18 
REMARK    7  A    between atoms: C_21  and  O_22 
ROOT
HETATM    1  C   UNL     1     -41.339  58.701 -53.659  1.00  0.00     0.288 C 
HETATM    2  N   UNL     1     -42.439  59.011 -54.427  1.00  0.00    -0.261 N 
HETATM    3  O   UNL     1     -40.476  59.536 -53.391  1.00  0.00    -0.264 OA
HETATM    4  H   UNL     1     -43.214  58.377 -54.599  1.00  0.00     0.190 HD
ENDROOT
BRANCH   2   5
HETATM    5  N   UNL     1     -42.529  60.281 -55.017  1.00  0.00    -0.249 N 
HETATM    6  C   UNL     1     -42.059  60.404 -56.308  1.00  0.00     0.335 C 
HETATM    7  N   UNL     1     -42.213  61.677 -56.787  1.00  0.00    -0.337 N 
HETATM    8  O   UNL     1     -41.533  59.482 -56.922  1.00  0.00    -0.246 OA
HETATM    9  H   UNL     1     -42.359  62.403 -56.100  1.00  0.00     0.164 HD
HETATM   10  H   UNL     1     -43.362  60.810 -54.765  1.00  0.00     0.192 HD
BRANCH   7  11
HETATM   11  C   UNL     1     -41.765  62.071 -58.119  1.00  0.00     0.086 C 
HETATM   12  C   UNL     1     -41.350  63.546 -58.141  1.00  0.00     0.032 C 
BRANCH  11  13
HETATM   13  C   UNL     1     -42.866  61.833 -59.176  1.00  0.00     0.063 C 
BRANCH  13  14
HETATM   14  C   UNL     1     -43.091  60.398 -59.604  1.00  0.00    -0.056 A 
HETATM   15  C   UNL     1     -42.036  59.682 -60.194  1.00  0.00     0.010 A 
HETATM   16  C   UNL     1     -42.201  58.350 -60.582  1.00  0.00     0.037 A 
HETATM   17  C   UNL     1     -43.423  57.724 -60.368  1.00  0.00     0.065 A 
HETATM   18  C   UNL     1     -44.475  58.409 -59.770  1.00  0.00     0.037 A 
HETATM   19  C   UNL     1     -44.308  59.739 -59.381  1.00  0.00     0.010 A 
BRANCH  17  20
HETATM   20  O   UNL     1     -43.631  56.427 -60.729  1.00  0.00    -0.361 OA
HETATM   21  H   UNL     1     -43.226  56.278 -61.599  1.00  0.00     0.217 HD
ENDBRANCH  17  20
ENDBRANCH  13  14
ENDBRANCH  11  13
ENDBRANCH   7  11
ENDBRANCH   2   5
BRANCH   1  22
HETATM   22  C   UNL     1     -41.258  57.336 -53.221  1.00  0.00     0.121 A 
HETATM   23  N   UNL     1     -41.395  56.992 -51.905  1.00  0.00    -0.272 N 
HETATM   24  N   UNL     1     -41.195  55.692 -51.653  1.00  0.00    -0.174 NA
HETATM   25  H   UNL     1     -41.592  57.618 -51.130  1.00  0.00     0.189 HD
HETATM   26  C   UNL     1     -40.945  55.147 -52.854  1.00  0.00     0.089 A 
HETATM   27  C   UNL     1     -41.005  56.143 -53.869  1.00  0.00     0.071 A 
BRANCH  26  28
HETATM   28  C   UNL     1     -40.612  53.729 -53.008  1.00  0.00    -0.006 A 
HETATM   29  C   UNL     1     -40.776  53.075 -54.236  1.00  0.00     0.014 A 
HETATM   30  C   UNL     1     -40.404  51.734 -54.384  1.00  0.00     0.007 A 
HETATM   31  C   UNL     1     -39.870  51.021 -53.306  1.00  0.00    -0.062 A 
HETATM   32  C   UNL     1     -39.420  49.601 -53.480  1.00  0.00     0.048 C 
HETATM   33  C   UNL     1     -39.704  51.670 -52.078  1.00  0.00     0.007 A 
HETATM   34  C   UNL     1     -40.080  53.009 -51.929  1.00  0.00     0.014 A 
ENDBRANCH  26  28
ENDBRANCH   1  22
TORSDOF 7
ENDMDL
MODEL 8
REMARK VINA RESULT:      -8.0      7.790     10.493
REMARK  7 active torsions:
REMARK  status: ('A' for Active; 'I' for Inactive)
REMARK    1  A    between atoms: C_5  and  C_6 
REMARK    2  A    between atoms: C_10  and  C_11 
REMARK       I    between atoms: C_11  and  N_12 
REMARK    3  A    between atoms: N_12  and  N_13 
REMARK       I    between atoms: N_13  and  C_14 
REMARK       I    between atoms: C_14  and  N_15 
REMARK    4  A    between atoms: N_15  and  C_16 
REMARK    5  A    between atoms: C_16  and  C_17 
REMARK    6  A    between atoms: C_17  and  C_18 
REMARK    7  A    between atoms: C_21  and  O_22 
ROOT
HETATM    1  C   UNL     1     -42.619  56.048 -57.171  1.00  0.00     0.288 C 
HETATM    2  N   UNL     1     -41.971  57.111 -57.759  1.00  0.00    -0.261 N 
HETATM    3  O   UNL     1     -43.692  55.624 -57.596  1.00  0.00    -0.264 OA
HETATM    4  H   UNL     1     -41.046  57.436 -57.493  1.00  0.00     0.190 HD
ENDROOT
BRANCH   2   5
HETATM    5  N   UNL     1     -42.600  57.805 -58.804  1.00  0.00    -0.249 N 
HETATM    6  C   UNL     1     -42.343  59.157 -58.897  1.00  0.00     0.335 C 
HETATM    7  N   UNL     1     -42.992  59.727 -59.960  1.00  0.00    -0.337 N 
HETATM    8  O   UNL     1     -41.646  59.766 -58.093  1.00  0.00    -0.246 OA
HETATM    9  H   UNL     1     -43.766  59.206 -60.347  1.00  0.00     0.164 HD
HETATM   10  H   UNL     1     -42.689  57.280 -59.672  1.00  0.00     0.192 HD
BRANCH   7  11
HETATM   11  C   UNL     1     -42.907  61.153 -60.256  1.00  0.00     0.086 C 
HETATM   12  C   UNL     1     -44.285  61.721 -60.607  1.00  0.00     0.032 C 
BRANCH  11  13
HETATM   13  C   UNL     1     -41.928  61.429 -61.419  1.00  0.00     0.063 C 
BRANCH  13  14
HETATM   14  C   UNL     1     -40.726  62.293 -61.098  1.00  0.00    -0.056 A 
HETATM   15  C   UNL     1     -39.962  62.828 -62.149  1.00  0.00     0.010 A 
HETATM   16  C   UNL     1     -38.859  63.646 -61.890  1.00  0.00     0.037 A 
HETATM   17  C   UNL     1     -38.525  63.943 -60.575  1.00  0.00     0.065 A 
HETATM   18  C   UNL     1     -39.277  63.439 -59.521  1.00  0.00     0.037 A 
HETATM   19  C   UNL     1     -40.379  62.624 -59.781  1.00  0.00     0.010 A 
BRANCH  17  20
HETATM   20  O   UNL     1     -37.458  64.736 -60.275  1.00  0.00    -0.361 OA
HETATM   21  H   UNL     1     -37.132  64.497 -59.392  1.00  0.00     0.217 HD
ENDBRANCH  17  20
ENDBRANCH  13  14
ENDBRANCH  11  13
ENDBRANCH   7  11
ENDBRANCH   2   5
BRANCH   1  22
HETATM   22  C   UNL     1     -41.970  55.494 -56.016  1.00  0.00     0.121 A 
HETATM   23  N   UNL     1     -41.162  56.249 -55.212  1.00  0.00    -0.272 N 
HETATM   24  N   UNL     1     -40.556  55.558 -54.236  1.00  0.00    -0.174 NA
HETATM   25  H   UNL     1     -40.961  57.239 -55.310  1.00  0.00     0.189 HD
HETATM   26  C   UNL     1     -41.005  54.301 -54.381  1.00  0.00     0.089 A 
HETATM   27  C   UNL     1     -41.918  54.226 -55.470  1.00  0.00     0.071 A 
BRANCH  26  28
HETATM   28  C   UNL     1     -40.532  53.207 -53.531  1.00  0.00    -0.006 A 
HETATM   29  C   UNL     1     -40.491  53.337 -52.137  1.00  0.00     0.014 A 
HETATM   30  C   UNL     1     -40.086  52.266 -51.332  1.00  0.00     0.007 A 
HETATM   31  C   UNL     1     -39.709  51.048 -51.908  1.00  0.00    -0.062 A 
HETATM   32  C   UNL     1     -39.329  49.882 -51.043  1.00  0.00     0.048 C 
HETATM   33  C   UNL     1     -39.749  50.913 -53.299  1.00  0.00     0.007 A 
HETATM   34  C   UNL     1     -40.149  51.985 -54.103  1.00  0.00     0.014 A 
ENDBRANCH  26  28
ENDBRANCH   1  22
TORSDOF 7
ENDMDL
MODEL 9
REMARK VINA RESULT:      -7.9      6.105      9.193
REMARK  7 active torsions:
REMARK  status: ('A' for Active; 'I' for Inactive)
REMARK    1  A    between atoms: C_5  and  C_6 
REMARK    2  A    between atoms: C_10  and  C_11 
REMARK       I    between atoms: C_11  and  N_12 
REMARK    3  A    between atoms: N_12  and  N_13 
REMARK       I    between atoms: N_13  and  C_14 
REMARK       I    between atoms: C_14  and  N_15 
REMARK    4  A    between atoms: N_15  and  C_16 
REMARK    5  A    between atoms: C_16  and  C_17 
REMARK    6  A    between atoms: C_17  and  C_18 
REMARK    7  A    between atoms: C_21  and  O_22 
ROOT
HETATM    1  C   UNL     1     -41.888  58.194 -54.187  1.00  0.00     0.288 C 
HETATM    2  N   UNL     1     -42.979  58.038 -55.012  1.00  0.00    -0.261 N 
HETATM    3  O   UNL     1     -41.178  59.198 -54.230  1.00  0.00    -0.264 OA
HETATM    4  H   UNL     1     -43.638  57.267 -54.949  1.00  0.00     0.190 HD
ENDROOT
BRANCH   2   5
HETATM    5  N   UNL     1     -43.231  58.995 -56.007  1.00  0.00    -0.249 N 
HETATM    6  C   UNL     1     -42.732  58.731 -57.265  1.00  0.00     0.335 C 
HETATM    7  N   UNL     1     -43.052  59.719 -58.157  1.00  0.00    -0.337 N 
HETATM    8  O   UNL     1     -42.053  57.744 -57.526  1.00  0.00    -0.246 OA
HETATM    9  H   UNL     1     -43.330  60.608 -57.765  1.00  0.00     0.164 HD
HETATM   10  H   UNL     1     -44.142  59.445 -55.944  1.00  0.00     0.192 HD
BRANCH   7  11
HETATM   11  C   UNL     1     -42.614  59.689 -59.549  1.00  0.00     0.086 C 
HETATM   12  C   UNL     1     -42.151  61.077 -60.005  1.00  0.00     0.032 C 
BRANCH  11  13
HETATM   13  C   UNL     1     -43.740  59.192 -60.483  1.00  0.00     0.063 C 
BRANCH  13  14
HETATM   14  C   UNL     1     -44.187  57.758 -60.295  1.00  0.00    -0.056 A 
HETATM   15  C   UNL     1     -43.222  56.737 -60.245  1.00  0.00     0.010 A 
HETATM   16  C   UNL     1     -43.597  55.405 -60.052  1.00  0.00     0.037 A 
HETATM   17  C   UNL     1     -44.941  55.091 -59.895  1.00  0.00     0.065 A 
HETATM   18  C   UNL     1     -45.910  56.087 -59.924  1.00  0.00     0.037 A 
HETATM   19  C   UNL     1     -45.534  57.417 -60.114  1.00  0.00     0.010 A 
BRANCH  17  20
HETATM   20  O   UNL     1     -45.354  53.806 -59.705  1.00  0.00    -0.361 OA
HETATM   21  H   UNL     1     -44.572  53.242 -59.592  1.00  0.00     0.217 HD
ENDBRANCH  17  20
ENDBRANCH  13  14
ENDBRANCH  11  13
ENDBRANCH   7  11
ENDBRANCH   2   5
BRANCH   1  22
HETATM   22  C   UNL     1     -41.622  57.096 -53.301  1.00  0.00     0.121 A 
HETATM   23  N   UNL     1     -41.441  57.280 -51.959  1.00  0.00    -0.272 N 
HETATM   24  N   UNL     1     -41.104  56.168 -51.291  1.00  0.00    -0.174 NA
HETATM   25  H   UNL     1     -41.501  58.158 -51.452  1.00  0.00     0.189 HD
HETATM   26  C   UNL     1     -41.093  55.202 -52.224  1.00  0.00     0.089 A 
HETATM   27  C   UNL     1     -41.441  55.740 -53.494  1.00  0.00     0.071 A 
BRANCH  26  28
HETATM   28  C   UNL     1     -40.710  53.825 -51.908  1.00  0.00    -0.006 A 
HETATM   29  C   UNL     1     -40.217  52.964 -52.897  1.00  0.00     0.014 A 
HETATM   30  C   UNL     1     -39.805  51.666 -52.572  1.00  0.00     0.007 A 
HETATM   31  C   UNL     1     -39.886  51.204 -51.254  1.00  0.00    -0.062 A 
HETATM   32  C   UNL     1     -39.394  49.833 -50.896  1.00  0.00     0.048 C 
HETATM   33  C   UNL     1     -40.378  52.060 -50.263  1.00  0.00     0.007 A 
HETATM   34  C   UNL     1     -40.794  53.354 -50.590  1.00  0.00     0.014 A 
ENDBRANCH  26  28
ENDBRANCH   1  22
TORSDOF 7
ENDMDL
MODEL 10
REMARK VINA RESULT:      -7.9      1.522      1.816
REMARK  7 active torsions:
REMARK  status: ('A' for Active; 'I' for Inactive)
REMARK    1  A    between atoms: C_5  and  C_6 
REMARK    2  A    between atoms: C_10  and  C_11 
REMARK       I    between atoms: C_11  and  N_12 
REMARK    3  A    between atoms: N_12  and  N_13 
REMARK       I    between atoms: N_13  and  C_14 
REMARK       I    between atoms: C_14  and  N_15 
REMARK    4  A    between atoms: N_15  and  C_16 
REMARK    5  A    between atoms: C_16  and  C_17 
REMARK    6  A    between atoms: C_17  and  C_18 
REMARK    7  A    between atoms: C_21  and  O_22 
ROOT
HETATM    1  C   UNL     1     -42.026  58.541 -51.497  1.00  0.00     0.288 C 
HETATM    2  N   UNL     1     -42.234  59.025 -50.224  1.00  0.00    -0.261 N 
HETATM    3  O   UNL     1     -41.988  59.284 -52.477  1.00  0.00    -0.264 OA
HETATM    4  H   UNL     1     -42.187  58.459 -49.382  1.00  0.00     0.190 HD
ENDROOT
BRANCH   2   5
HETATM    5  N   UNL     1     -42.522  60.387 -50.046  1.00  0.00    -0.249 N 
HETATM    6  C   UNL     1     -43.850  60.755 -50.100  1.00  0.00     0.335 C 
HETATM    7  N   UNL     1     -44.014  62.099 -49.895  1.00  0.00    -0.337 N 
HETATM    8  O   UNL     1     -44.757  59.967 -50.343  1.00  0.00    -0.246 OA
HETATM    9  H   UNL     1     -43.196  62.678 -50.022  1.00  0.00     0.164 HD
HETATM   10  H   UNL     1     -41.926  60.863 -49.371  1.00  0.00     0.192 HD
BRANCH   7  11
HETATM   11  C   UNL     1     -45.324  62.742 -49.935  1.00  0.00     0.086 C 
HETATM   12  C   UNL     1     -45.191  64.260 -49.774  1.00  0.00     0.032 C 
BRANCH  11  13
HETATM   13  C   UNL     1     -46.256  62.190 -48.834  1.00  0.00     0.063 C 
BRANCH  13  14
HETATM   14  C   UNL     1     -45.721  62.227 -47.417  1.00  0.00    -0.056 A 
HETATM   15  C   UNL     1     -45.266  61.038 -46.822  1.00  0.00     0.010 A 
HETATM   16  C   UNL     1     -44.746  61.038 -45.525  1.00  0.00     0.037 A 
HETATM   17  C   UNL     1     -44.669  62.234 -44.822  1.00  0.00     0.065 A 
HETATM   18  C   UNL     1     -45.098  63.424 -45.398  1.00  0.00     0.037 A 
HETATM   19  C   UNL     1     -45.614  63.422 -46.694  1.00  0.00     0.010 A 
BRANCH  17  20
HETATM   20  O   UNL     1     -44.170  62.282 -43.555  1.00  0.00    -0.361 OA
HETATM   21  H   UNL     1     -43.851  61.398 -43.312  1.00  0.00     0.217 HD
ENDBRANCH  17  20
ENDBRANCH  13  14
ENDBRANCH  11  13
ENDBRANCH   7  11
ENDBRANCH   2   5
BRANCH   1  22
HETATM   22  C   UNL     1     -41.887  57.116 -51.599  1.00  0.00     0.121 A 
HETATM   23  N   UNL     1     -42.331  56.276 -50.616  1.00  0.00    -0.272 N 
HETATM   24  N   UNL     1     -42.037  54.985 -50.821  1.00  0.00    -0.174 NA
HETATM   25  H   UNL     1     -42.813  56.541 -49.762  1.00  0.00     0.189 HD
HETATM   26  C   UNL     1     -41.399  54.965 -52.002  1.00  0.00     0.089 A 
HETATM   27  C   UNL     1     -41.311  56.281 -52.537  1.00  0.00     0.071 A 
BRANCH  26  28
HETATM   28  C   UNL     1     -40.853  53.730 -52.566  1.00  0.00    -0.006 A 
HETATM   29  C   UNL     1     -40.030  52.888 -51.807  1.00  0.00     0.014 A 
HETATM   30  C   UNL     1     -39.556  51.683 -52.341  1.00  0.00     0.007 A 
HETATM   31  C   UNL     1     -39.892  51.303 -53.644  1.00  0.00    -0.062 A 
HETATM   32  C   UNL     1     -39.430  49.987 -54.196  1.00  0.00     0.048 C 
HETATM   33  C   UNL     1     -40.714  52.140 -54.405  1.00  0.00     0.007 A 
HETATM   34  C   UNL     1     -41.182  53.346 -53.874  1.00  0.00     0.014 A 
ENDBRANCH  26  28
ENDBRANCH   1  22
TORSDOF 7
ENDMDL
