MODEL 1
REMARK VINA RESULT:      -7.5      0.000      0.000
REMARK  4 active torsions:
REMARK  status: ('A' for Active; 'I' for Inactive)
REMARK    1  A    between atoms: C_5  and  N_6 
REMARK       I    between atoms: N_6  and  C_7 
REMARK    2  A    between atoms: C_7  and  C_8 
REMARK    3  A    between atoms: C_12  and  O_13 
REMARK    4  A    between atoms: C_19  and  C_20 
ROOT
HETATM    1  C   UNL     1     -41.397  52.458 -53.988  1.00  0.00     0.015 C 
HETATM    2  C   UNL     1     -41.659  53.927 -54.373  1.00  0.00    -0.040 C 
HETATM    3  C   UNL     1     -40.326  54.689 -54.246  1.00  0.00     0.015 C 
HETATM    4  C   UNL     1     -42.751  54.497 -53.439  1.00  0.00     0.039 C 
HETATM    5  C   UNL     1     -43.201  55.931 -53.782  1.00  0.00     0.122 C 
HETATM    6  C   UNL     1     -43.299  56.168 -55.260  1.00  0.00     0.007 A 
HETATM    7  C   UNL     1     -42.804  55.295 -56.212  1.00  0.00     0.047 A 
HETATM    8  N   UNL     1     -42.913  55.528 -57.538  1.00  0.00    -0.237 NA
HETATM    9  C   UNL     1     -43.509  56.669 -57.935  1.00  0.00     0.133 A 
HETATM   10  N   UNL     1     -44.024  57.572 -57.081  1.00  0.00    -0.244 NA
HETATM   11  C   UNL     1     -43.903  57.303 -55.767  1.00  0.00     0.130 A 
HETATM   12  C   UNL     1     -42.174  53.980 -55.827  1.00  0.00     0.069 C 
ENDROOT
BRANCH   5  13
HETATM   13  N   UNL     1     -42.336  56.921 -53.158  1.00  0.00    -0.347 N 
HETATM   14  C   UNL     1     -42.513  57.309 -51.851  1.00  0.00     0.270 C 
HETATM   15  O   UNL     1     -43.460  56.926 -51.172  1.00  0.00    -0.266 OA
HETATM   16  H   UNL     1     -41.510  57.225 -53.653  1.00  0.00     0.163 HD
BRANCH  14  17
HETATM   17  C   UNL     1     -41.504  58.184 -51.322  1.00  0.00     0.122 A 
HETATM   18  N   UNL     1     -41.663  58.796 -50.100  1.00  0.00    -0.270 N 
HETATM   19  H   UNL     1     -42.461  58.708 -49.476  1.00  0.00     0.189 HD
HETATM   20  N   UNL     1     -40.624  59.574 -49.736  1.00  0.00    -0.149 NA
HETATM   21  C   UNL     1     -39.804  59.441 -50.764  1.00  0.00     0.183 A 
HETATM   22  C   UNL     1     -40.270  58.608 -51.781  1.00  0.00     0.096 A 
BRANCH  21  23
HETATM   23  O   UNL     1     -38.662  60.112 -50.677  1.00  0.00    -0.344 OA
HETATM   24  H   UNL     1     -38.591  60.587 -51.524  1.00  0.00     0.219 HD
ENDBRANCH  21  23
ENDBRANCH  14  17
ENDBRANCH   5  13
BRANCH   9  25
HETATM   25  C   UNL     1     -43.710  56.896 -59.431  1.00  0.00     0.011 C 
HETATM   26  C   UNL     1     -42.362  57.310 -60.044  1.00  0.00     0.023 C 
HETATM   27  C   UNL     1     -44.208  55.609 -60.118  1.00  0.00     0.023 C 
HETATM   28  C   UNL     1     -44.747  58.005 -59.693  1.00  0.00     0.023 C 
ENDBRANCH   9  25
TORSDOF 4
ENDMDL
MODEL 2
REMARK VINA RESULT:      -7.4      3.290      7.159
REMARK  4 active torsions:
REMARK  status: ('A' for Active; 'I' for Inactive)
REMARK    1  A    between atoms: C_5  and  N_6 
REMARK       I    between atoms: N_6  and  C_7 
REMARK    2  A    between atoms: C_7  and  C_8 
REMARK    3  A    between atoms: C_12  and  O_13 
REMARK    4  A    between atoms: C_19  and  C_20 
ROOT
HETATM    1  C   UNL     1     -40.634  53.499 -53.369  1.00  0.00     0.015 C 
HETATM    2  C   UNL     1     -41.622  54.528 -53.954  1.00  0.00    -0.040 C 
HETATM    3  C   UNL     1     -42.843  53.755 -54.487  1.00  0.00     0.015 C 
HETATM    4  C   UNL     1     -40.903  55.326 -55.067  1.00  0.00     0.039 C 
HETATM    5  C   UNL     1     -41.736  56.475 -55.669  1.00  0.00     0.122 C 
HETATM    6  C   UNL     1     -42.540  57.210 -54.635  1.00  0.00     0.007 A 
HETATM    7  C   UNL     1     -42.716  56.761 -53.339  1.00  0.00     0.047 A 
HETATM    8  N   UNL     1     -43.437  57.447 -52.425  1.00  0.00    -0.237 NA
HETATM    9  C   UNL     1     -44.019  58.599 -52.811  1.00  0.00     0.133 A 
HETATM   10  N   UNL     1     -43.896  59.114 -54.048  1.00  0.00    -0.244 NA
HETATM   11  C   UNL     1     -43.165  58.406 -54.930  1.00  0.00     0.130 A 
HETATM   12  C   UNL     1     -42.047  55.506 -52.839  1.00  0.00     0.069 C 
ENDROOT
BRANCH   5  13
HETATM   13  N   UNL     1     -42.593  56.001 -56.745  1.00  0.00    -0.347 N 
HETATM   14  C   UNL     1     -42.665  56.659 -57.950  1.00  0.00     0.270 C 
HETATM   15  O   UNL     1     -42.099  57.728 -58.153  1.00  0.00    -0.266 OA
HETATM   16  H   UNL     1     -43.036  55.098 -56.650  1.00  0.00     0.163 HD
BRANCH  14  17
HETATM   17  C   UNL     1     -43.438  56.004 -58.969  1.00  0.00     0.122 A 
HETATM   18  N   UNL     1     -44.081  54.814 -58.719  1.00  0.00    -0.270 N 
HETATM   19  H   UNL     1     -44.079  54.295 -57.845  1.00  0.00     0.189 HD
HETATM   20  N   UNL     1     -44.777  54.335 -59.769  1.00  0.00    -0.149 NA
HETATM   21  C   UNL     1     -44.552  55.253 -60.694  1.00  0.00     0.183 A 
HETATM   22  C   UNL     1     -43.738  56.309 -60.285  1.00  0.00     0.096 A 
BRANCH  21  23
HETATM   23  O   UNL     1     -45.134  55.040 -61.867  1.00  0.00    -0.344 OA
HETATM   24  H   UNL     1     -46.055  54.812 -61.647  1.00  0.00     0.219 HD
ENDBRANCH  21  23
ENDBRANCH  14  17
ENDBRANCH   5  13
BRANCH   9  25
HETATM   25  C   UNL     1     -44.762  59.419 -51.759  1.00  0.00     0.011 C 
HETATM   26  C   UNL     1     -45.458  58.448 -50.790  1.00  0.00     0.023 C 
HETATM   27  C   UNL     1     -43.787  60.314 -50.970  1.00  0.00     0.023 C 
HETATM   28  C   UNL     1     -45.822  60.329 -52.409  1.00  0.00     0.023 C 
ENDBRANCH   9  25
TORSDOF 4
ENDMDL
MODEL 3
REMARK VINA RESULT:      -6.9      3.206      7.509
REMARK  4 active torsions:
REMARK  status: ('A' for Active; 'I' for Inactive)
REMARK    1  A    between atoms: C_5  and  N_6 
REMARK       I    between atoms: N_6  and  C_7 
REMARK    2  A    between atoms: C_7  and  C_8 
REMARK    3  A    between atoms: C_12  and  O_13 
REMARK    4  A    between atoms: C_19  and  C_20 
ROOT
HETATM    1  C   UNL     1     -42.607  60.423 -52.571  1.00  0.00     0.015 C 
HETATM    2  C   UNL     1     -42.377  58.945 -52.941  1.00  0.00    -0.040 C 
HETATM    3  C   UNL     1     -41.329  58.902 -54.069  1.00  0.00     0.015 C 
HETATM    4  C   UNL     1     -43.727  58.327 -53.373  1.00  0.00     0.039 C 
HETATM    5  C   UNL     1     -43.673  56.814 -53.665  1.00  0.00     0.122 C 
HETATM    6  C   UNL     1     -42.797  56.070 -52.700  1.00  0.00     0.007 A 
HETATM    7  C   UNL     1     -41.937  56.688 -51.811  1.00  0.00     0.047 A 
HETATM    8  N   UNL     1     -41.164  55.995 -50.946  1.00  0.00    -0.237 NA
HETATM    9  C   UNL     1     -41.229  54.649 -50.977  1.00  0.00     0.133 A 
HETATM   10  N   UNL     1     -42.039  53.964 -51.803  1.00  0.00    -0.244 NA
HETATM   11  C   UNL     1     -42.799  54.689 -52.646  1.00  0.00     0.130 A 
HETATM   12  C   UNL     1     -41.862  58.189 -51.697  1.00  0.00     0.069 C 
ENDROOT
BRANCH   5  13
HETATM   13  N   UNL     1     -43.265  56.553 -55.037  1.00  0.00    -0.347 N 
HETATM   14  C   UNL     1     -43.941  57.095 -56.104  1.00  0.00     0.270 C 
HETATM   15  O   UNL     1     -44.977  57.739 -55.971  1.00  0.00    -0.266 OA
HETATM   16  H   UNL     1     -42.389  56.077 -55.200  1.00  0.00     0.163 HD
BRANCH  14  17
HETATM   17  C   UNL     1     -43.347  56.872 -57.393  1.00  0.00     0.122 A 
HETATM   18  N   UNL     1     -43.718  55.799 -58.171  1.00  0.00    -0.270 N 
HETATM   19  H   UNL     1     -44.404  55.087 -57.935  1.00  0.00     0.189 HD
HETATM   20  N   UNL     1     -43.083  55.735 -59.358  1.00  0.00    -0.149 NA
HETATM   21  C   UNL     1     -42.295  56.797 -59.308  1.00  0.00     0.183 A 
HETATM   22  C   UNL     1     -42.394  57.545 -58.136  1.00  0.00     0.096 A 
BRANCH  21  23
HETATM   23  O   UNL     1     -41.533  56.995 -60.377  1.00  0.00    -0.344 OA
HETATM   24  H   UNL     1     -41.942  56.453 -61.074  1.00  0.00     0.219 HD
ENDBRANCH  21  23
ENDBRANCH  14  17
ENDBRANCH   5  13
BRANCH   9  25
HETATM   25  C   UNL     1     -40.422  53.865 -49.944  1.00  0.00     0.011 C 
HETATM   26  C   UNL     1     -40.492  52.372 -50.306  1.00  0.00     0.023 C 
HETATM   27  C   UNL     1     -38.950  54.320 -49.939  1.00  0.00     0.023 C 
HETATM   28  C   UNL     1     -40.987  54.069 -48.525  1.00  0.00     0.023 C 
ENDBRANCH   9  25
TORSDOF 4
ENDMDL
MODEL 4
REMARK VINA RESULT:      -6.9     15.872     18.331
REMARK  4 active torsions:
REMARK  status: ('A' for Active; 'I' for Inactive)
REMARK    1  A    between atoms: C_5  and  N_6 
REMARK       I    between atoms: N_6  and  C_7 
REMARK    2  A    between atoms: C_7  and  C_8 
REMARK    3  A    between atoms: C_12  and  O_13 
REMARK    4  A    between atoms: C_19  and  C_20 
ROOT
HETATM    1  C   UNL     1     -37.243  42.268 -58.900  1.00  0.00     0.015 C 
HETATM    2  C   UNL     1     -36.870  41.522 -57.604  1.00  0.00    -0.040 C 
HETATM    3  C   UNL     1     -37.854  40.349 -57.439  1.00  0.00     0.015 C 
HETATM    4  C   UNL     1     -36.942  42.517 -56.422  1.00  0.00     0.039 C 
HETATM    5  C   UNL     1     -36.481  41.937 -55.070  1.00  0.00     0.122 C 
HETATM    6  C   UNL     1     -35.289  41.036 -55.203  1.00  0.00     0.007 A 
HETATM    7  C   UNL     1     -34.809  40.572 -56.415  1.00  0.00     0.047 A 
HETATM    8  N   UNL     1     -33.727  39.768 -56.508  1.00  0.00    -0.237 NA
HETATM    9  C   UNL     1     -33.115  39.394 -55.367  1.00  0.00     0.133 A 
HETATM   10  N   UNL     1     -33.509  39.801 -54.147  1.00  0.00    -0.244 NA
HETATM   11  C   UNL     1     -34.586  40.607 -54.094  1.00  0.00     0.130 A 
HETATM   12  C   UNL     1     -35.422  41.000 -57.724  1.00  0.00     0.069 C 
ENDROOT
BRANCH   5  13
HETATM   13  N   UNL     1     -37.570  41.253 -54.388  1.00  0.00    -0.347 N 
HETATM   14  C   UNL     1     -37.844  41.483 -53.061  1.00  0.00     0.270 C 
HETATM   15  O   UNL     1     -37.135  42.191 -52.354  1.00  0.00    -0.266 OA
HETATM   16  H   UNL     1     -38.217  40.705 -54.937  1.00  0.00     0.163 HD
BRANCH  14  17
HETATM   17  C   UNL     1     -39.031  40.851 -52.555  1.00  0.00     0.122 A 
HETATM   18  N   UNL     1     -38.955  39.749 -51.735  1.00  0.00    -0.270 N 
HETATM   19  H   UNL     1     -38.107  39.285 -51.419  1.00  0.00     0.189 HD
HETATM   20  N   UNL     1     -40.152  39.280 -51.331  1.00  0.00    -0.149 NA
HETATM   21  C   UNL     1     -40.990  40.115 -51.922  1.00  0.00     0.183 A 
HETATM   22  C   UNL     1     -40.384  41.105 -52.694  1.00  0.00     0.096 A 
BRANCH  21  23
HETATM   23  O   UNL     1     -42.279  39.891 -51.693  1.00  0.00    -0.344 OA
HETATM   24  H   UNL     1     -42.714  40.738 -51.894  1.00  0.00     0.219 HD
ENDBRANCH  21  23
ENDBRANCH  14  17
ENDBRANCH   5  13
BRANCH   9  25
HETATM   25  C   UNL     1     -31.843  38.556 -55.473  1.00  0.00     0.011 C 
HETATM   26  C   UNL     1     -30.765  39.397 -56.178  1.00  0.00     0.023 C 
HETATM   27  C   UNL     1     -31.338  38.147 -54.076  1.00  0.00     0.023 C 
HETATM   28  C   UNL     1     -32.090  37.269 -56.284  1.00  0.00     0.023 C 
ENDBRANCH   9  25
TORSDOF 4
ENDMDL
MODEL 5
REMARK VINA RESULT:      -6.8      3.601      8.070
REMARK  4 active torsions:
REMARK  status: ('A' for Active; 'I' for Inactive)
REMARK    1  A    between atoms: C_5  and  N_6 
REMARK       I    between atoms: N_6  and  C_7 
REMARK    2  A    between atoms: C_7  and  C_8 
REMARK    3  A    between atoms: C_12  and  O_13 
REMARK    4  A    between atoms: C_19  and  C_20 
ROOT
HETATM    1  C   UNL     1     -42.052  61.254 -57.133  1.00  0.00     0.015 C 
HETATM    2  C   UNL     1     -42.543  59.837 -56.780  1.00  0.00    -0.040 C 
HETATM    3  C   UNL     1     -41.955  58.864 -57.819  1.00  0.00     0.015 C 
HETATM    4  C   UNL     1     -44.090  59.833 -56.786  1.00  0.00     0.039 C 
HETATM    5  C   UNL     1     -44.728  58.504 -56.336  1.00  0.00     0.122 C 
HETATM    6  C   UNL     1     -43.993  57.868 -55.192  1.00  0.00     0.007 A 
HETATM    7  C   UNL     1     -42.750  58.284 -54.753  1.00  0.00     0.047 A 
HETATM    8  N   UNL     1     -42.113  57.700 -53.714  1.00  0.00    -0.237 NA
HETATM    9  C   UNL     1     -42.716  56.660 -53.105  1.00  0.00     0.133 A 
HETATM   10  N   UNL     1     -43.926  56.192 -53.461  1.00  0.00    -0.244 NA
HETATM   11  C   UNL     1     -44.533  56.804 -54.496  1.00  0.00     0.130 A 
HETATM   12  C   UNL     1     -42.053  59.474 -55.362  1.00  0.00     0.069 C 
ENDROOT
BRANCH   5  13
HETATM   13  N   UNL     1     -44.853  57.573 -57.447  1.00  0.00    -0.347 N 
HETATM   14  C   UNL     1     -45.885  57.667 -58.351  1.00  0.00     0.270 C 
HETATM   15  O   UNL     1     -46.808  58.464 -58.218  1.00  0.00    -0.266 OA
HETATM   16  H   UNL     1     -44.093  56.935 -57.633  1.00  0.00     0.163 HD
BRANCH  14  17
HETATM   17  C   UNL     1     -45.807  56.776 -59.475  1.00  0.00     0.122 A 
HETATM   18  N   UNL     1     -46.873  56.614 -60.330  1.00  0.00    -0.270 N 
HETATM   19  H   UNL     1     -47.778  57.073 -60.265  1.00  0.00     0.189 HD
HETATM   20  N   UNL     1     -46.640  55.757 -61.344  1.00  0.00    -0.149 NA
HETATM   21  C   UNL     1     -45.396  55.376 -61.104  1.00  0.00     0.183 A 
HETATM   22  C   UNL     1     -44.815  55.952 -59.975  1.00  0.00     0.096 A 
BRANCH  21  23
HETATM   23  O   UNL     1     -44.886  54.510 -61.971  1.00  0.00    -0.344 OA
HETATM   24  H   UNL     1     -44.325  55.049 -62.556  1.00  0.00     0.219 HD
ENDBRANCH  21  23
ENDBRANCH  14  17
ENDBRANCH   5  13
BRANCH   9  25
HETATM   25  C   UNL     1     -42.040  56.052 -51.878  1.00  0.00     0.011 C 
HETATM   26  C   UNL     1     -41.193  57.143 -51.201  1.00  0.00     0.023 C 
HETATM   27  C   UNL     1     -43.088  55.527 -50.878  1.00  0.00     0.023 C 
HETATM   28  C   UNL     1     -41.126  54.875 -52.271  1.00  0.00     0.023 C 
ENDBRANCH   9  25
TORSDOF 4
ENDMDL
MODEL 6
REMARK VINA RESULT:      -6.8      3.079      3.743
REMARK  4 active torsions:
REMARK  status: ('A' for Active; 'I' for Inactive)
REMARK    1  A    between atoms: C_5  and  N_6 
REMARK       I    between atoms: N_6  and  C_7 
REMARK    2  A    between atoms: C_7  and  C_8 
REMARK    3  A    between atoms: C_12  and  O_13 
REMARK    4  A    between atoms: C_19  and  C_20 
ROOT
HETATM    1  C   UNL     1     -41.063  55.032 -50.513  1.00  0.00     0.015 C 
HETATM    2  C   UNL     1     -41.837  56.127 -51.274  1.00  0.00    -0.040 C 
HETATM    3  C   UNL     1     -41.110  57.464 -51.038  1.00  0.00     0.015 C 
HETATM    4  C   UNL     1     -43.294  56.153 -50.756  1.00  0.00     0.039 C 
HETATM    5  C   UNL     1     -44.221  57.127 -51.510  1.00  0.00     0.122 C 
HETATM    6  C   UNL     1     -43.964  57.145 -52.988  1.00  0.00     0.007 A 
HETATM    7  C   UNL     1     -42.863  56.555 -53.582  1.00  0.00     0.047 A 
HETATM    8  N   UNL     1     -42.658  56.577 -54.917  1.00  0.00    -0.237 NA
HETATM    9  C   UNL     1     -43.559  57.221 -55.686  1.00  0.00     0.133 A 
HETATM   10  N   UNL     1     -44.661  57.817 -55.196  1.00  0.00    -0.244 NA
HETATM   11  C   UNL     1     -44.834  57.768 -53.861  1.00  0.00     0.130 A 
HETATM   12  C   UNL     1     -41.852  55.778 -52.778  1.00  0.00     0.069 C 
ENDROOT
BRANCH   5  13
HETATM   13  N   UNL     1     -44.141  58.471 -50.957  1.00  0.00    -0.347 N 
HETATM   14  C   UNL     1     -45.250  59.111 -50.459  1.00  0.00     0.270 C 
HETATM   15  O   UNL     1     -46.379  58.638 -50.543  1.00  0.00    -0.266 OA
HETATM   16  H   UNL     1     -43.229  58.882 -50.814  1.00  0.00     0.163 HD
BRANCH  14  17
HETATM   17  C   UNL     1     -45.002  60.372 -49.817  1.00  0.00     0.122 A 
HETATM   18  N   UNL     1     -45.106  60.508 -48.451  1.00  0.00    -0.270 N 
HETATM   19  H   UNL     1     -45.359  59.781 -47.787  1.00  0.00     0.189 HD
HETATM   20  N   UNL     1     -44.827  61.746 -47.999  1.00  0.00    -0.149 NA
HETATM   21  C   UNL     1     -44.548  62.394 -49.118  1.00  0.00     0.183 A 
HETATM   22  C   UNL     1     -44.634  61.624 -50.278  1.00  0.00     0.096 A 
BRANCH  21  23
HETATM   23  O   UNL     1     -44.223  63.673 -48.974  1.00  0.00    -0.344 OA
HETATM   24  H   UNL     1     -43.262  63.701 -49.129  1.00  0.00     0.219 HD
ENDBRANCH  21  23
ENDBRANCH  14  17
ENDBRANCH   5  13
BRANCH   9  25
HETATM   25  C   UNL     1     -43.376  57.176 -57.201  1.00  0.00     0.011 C 
HETATM   26  C   UNL     1     -42.225  58.122 -57.579  1.00  0.00     0.023 C 
HETATM   27  C   UNL     1     -43.038  55.748 -57.670  1.00  0.00     0.023 C 
HETATM   28  C   UNL     1     -44.659  57.623 -57.930  1.00  0.00     0.023 C 
ENDBRANCH   9  25
TORSDOF 4
ENDMDL
MODEL 7
REMARK VINA RESULT:      -6.7      3.549      5.924
REMARK  4 active torsions:
REMARK  status: ('A' for Active; 'I' for Inactive)
REMARK    1  A    between atoms: C_5  and  N_6 
REMARK       I    between atoms: N_6  and  C_7 
REMARK    2  A    between atoms: C_7  and  C_8 
REMARK    3  A    between atoms: C_12  and  O_13 
REMARK    4  A    between atoms: C_19  and  C_20 
ROOT
HETATM    1  C   UNL     1     -45.369  56.487 -60.369  1.00  0.00     0.015 C 
HETATM    2  C   UNL     1     -44.198  57.042 -59.534  1.00  0.00    -0.040 C 
HETATM    3  C   UNL     1     -43.004  56.085 -59.708  1.00  0.00     0.015 C 
HETATM    4  C   UNL     1     -44.651  57.151 -58.060  1.00  0.00     0.039 C 
HETATM    5  C   UNL     1     -43.616  57.802 -57.120  1.00  0.00     0.122 C 
HETATM    6  C   UNL     1     -42.900  58.956 -57.759  1.00  0.00     0.007 A 
HETATM    7  C   UNL     1     -42.969  59.249 -59.109  1.00  0.00     0.047 A 
HETATM    8  N   UNL     1     -42.322  60.300 -59.659  1.00  0.00    -0.237 NA
HETATM    9  C   UNL     1     -41.566  61.071 -58.852  1.00  0.00     0.133 A 
HETATM   10  N   UNL     1     -41.445  60.864 -57.528  1.00  0.00    -0.244 NA
HETATM   11  C   UNL     1     -42.111  59.811 -57.015  1.00  0.00     0.130 A 
HETATM   12  C   UNL     1     -43.840  58.452 -60.048  1.00  0.00     0.069 C 
ENDROOT
BRANCH   5  13
HETATM   13  N   UNL     1     -42.666  56.821 -56.618  1.00  0.00    -0.347 N 
HETATM   14  C   UNL     1     -42.935  56.065 -55.502  1.00  0.00     0.270 C 
HETATM   15  O   UNL     1     -43.934  56.240 -54.811  1.00  0.00    -0.266 OA
HETATM   16  H   UNL     1     -41.856  56.599 -57.179  1.00  0.00     0.163 HD
BRANCH  14  17
HETATM   17  C   UNL     1     -41.975  55.039 -55.202  1.00  0.00     0.122 A 
HETATM   18  N   UNL     1     -40.633  55.231 -55.436  1.00  0.00    -0.270 N 
HETATM   19  H   UNL     1     -40.198  56.062 -55.826  1.00  0.00     0.189 HD
HETATM   20  N   UNL     1     -39.859  54.183 -55.088  1.00  0.00    -0.149 NA
HETATM   21  C   UNL     1     -40.751  53.320 -54.631  1.00  0.00     0.183 A 
HETATM   22  C   UNL     1     -42.071  53.766 -54.669  1.00  0.00     0.096 A 
BRANCH  21  23
HETATM   23  O   UNL     1     -40.260  52.164 -54.201  1.00  0.00    -0.344 OA
HETATM   24  H   UNL     1     -41.016  51.718 -53.778  1.00  0.00     0.219 HD
ENDBRANCH  21  23
ENDBRANCH  14  17
ENDBRANCH   5  13
BRANCH   9  25
HETATM   25  C   UNL     1     -40.902  62.307 -59.453  1.00  0.00     0.011 C 
HETATM   26  C   UNL     1     -41.791  63.527 -59.159  1.00  0.00     0.023 C 
HETATM   27  C   UNL     1     -39.507  62.534 -58.838  1.00  0.00     0.023 C 
HETATM   28  C   UNL     1     -40.730  62.162 -60.978  1.00  0.00     0.023 C 
ENDBRANCH   9  25
TORSDOF 4
ENDMDL
MODEL 8
REMARK VINA RESULT:      -6.6     17.012     19.700
REMARK  4 active torsions:
REMARK  status: ('A' for Active; 'I' for Inactive)
REMARK    1  A    between atoms: C_5  and  N_6 
REMARK       I    between atoms: N_6  and  C_7 
REMARK    2  A    between atoms: C_7  and  C_8 
REMARK    3  A    between atoms: C_12  and  O_13 
REMARK    4  A    between atoms: C_19  and  C_20 
ROOT
HETATM    1  C   UNL     1     -30.409  38.474 -55.768  1.00  0.00     0.015 C 
HETATM    2  C   UNL     1     -31.872  38.834 -55.445  1.00  0.00    -0.040 C 
HETATM    3  C   UNL     1     -32.777  37.919 -56.291  1.00  0.00     0.015 C 
HETATM    4  C   UNL     1     -32.094  40.331 -55.761  1.00  0.00     0.039 C 
HETATM    5  C   UNL     1     -33.489  40.864 -55.378  1.00  0.00     0.122 C 
HETATM    6  C   UNL     1     -33.986  40.304 -54.077  1.00  0.00     0.007 A 
HETATM    7  C   UNL     1     -33.387  39.245 -53.420  1.00  0.00     0.047 A 
HETATM    8  N   UNL     1     -33.848  38.764 -52.245  1.00  0.00    -0.237 NA
HETATM    9  C   UNL     1     -34.948  39.335 -51.714  1.00  0.00     0.133 A 
HETATM   10  N   UNL     1     -35.591  40.372 -52.280  1.00  0.00    -0.244 NA
HETATM   11  C   UNL     1     -35.098  40.828 -53.448  1.00  0.00     0.130 A 
HETATM   12  C   UNL     1     -32.126  38.603 -53.940  1.00  0.00     0.069 C 
ENDROOT
BRANCH   5  13
HETATM   13  N   UNL     1     -34.456  40.633 -56.440  1.00  0.00    -0.347 N 
HETATM   14  C   UNL     1     -35.223  41.653 -56.950  1.00  0.00     0.270 C 
HETATM   15  O   UNL     1     -35.214  42.785 -56.477  1.00  0.00    -0.266 OA
HETATM   16  H   UNL     1     -34.463  39.734 -56.902  1.00  0.00     0.163 HD
BRANCH  14  17
HETATM   17  C   UNL     1     -36.030  41.313 -58.089  1.00  0.00     0.122 A 
HETATM   18  N   UNL     1     -36.646  42.286 -58.841  1.00  0.00    -0.270 N 
HETATM   19  H   UNL     1     -36.607  43.290 -58.684  1.00  0.00     0.189 HD
HETATM   20  N   UNL     1     -37.354  41.809 -59.884  1.00  0.00    -0.149 NA
HETATM   21  C   UNL     1     -37.173  40.504 -59.768  1.00  0.00     0.183 A 
HETATM   22  C   UNL     1     -36.376  40.116 -58.692  1.00  0.00     0.096 A 
BRANCH  21  23
HETATM   23  O   UNL     1     -37.769  39.759 -60.691  1.00  0.00    -0.344 OA
HETATM   24  H   UNL     1     -38.600  39.470 -60.274  1.00  0.00     0.219 HD
ENDBRANCH  21  23
ENDBRANCH  14  17
ENDBRANCH   5  13
BRANCH   9  25
HETATM   25  C   UNL     1     -35.422  38.851 -50.346  1.00  0.00     0.011 C 
HETATM   26  C   UNL     1     -34.204  38.772 -49.411  1.00  0.00     0.023 C 
HETATM   27  C   UNL     1     -36.460  39.823 -49.751  1.00  0.00     0.023 C 
HETATM   28  C   UNL     1     -36.077  37.459 -50.443  1.00  0.00     0.023 C 
ENDBRANCH   9  25
TORSDOF 4
ENDMDL
MODEL 9
REMARK VINA RESULT:      -6.5      3.895      6.732
REMARK  4 active torsions:
REMARK  status: ('A' for Active; 'I' for Inactive)
REMARK    1  A    between atoms: C_5  and  N_6 
REMARK       I    between atoms: N_6  and  C_7 
REMARK    2  A    between atoms: C_7  and  C_8 
REMARK    3  A    between atoms: C_12  and  O_13 
REMARK    4  A    between atoms: C_19  and  C_20 
ROOT
HETATM    1  C   UNL     1     -44.008  60.741 -54.859  1.00  0.00     0.015 C 
HETATM    2  C   UNL     1     -43.778  59.942 -53.562  1.00  0.00    -0.040 C 
HETATM    3  C   UNL     1     -45.155  59.669 -52.928  1.00  0.00     0.015 C 
HETATM    4  C   UNL     1     -42.858  60.765 -52.630  1.00  0.00     0.039 C 
HETATM    5  C   UNL     1     -42.445  60.038 -51.335  1.00  0.00     0.122 C 
HETATM    6  C   UNL     1     -42.158  58.581 -51.555  1.00  0.00     0.007 A 
HETATM    7  C   UNL     1     -42.468  57.907 -52.722  1.00  0.00     0.047 A 
HETATM    8  N   UNL     1     -42.191  56.596 -52.899  1.00  0.00    -0.237 NA
HETATM    9  C   UNL     1     -41.609  55.928 -51.883  1.00  0.00     0.133 A 
HETATM   10  N   UNL     1     -41.268  56.504 -50.716  1.00  0.00    -0.244 NA
HETATM   11  C   UNL     1     -41.553  57.813 -50.579  1.00  0.00     0.130 A 
HETATM   12  C   UNL     1     -43.071  58.614 -53.909  1.00  0.00     0.069 C 
ENDROOT
BRANCH   5  13
HETATM   13  N   UNL     1     -43.440  60.213 -50.288  1.00  0.00    -0.347 N 
HETATM   14  C   UNL     1     -43.709  61.450 -49.751  1.00  0.00     0.270 C 
HETATM   15  O   UNL     1     -43.063  62.451 -50.043  1.00  0.00    -0.266 OA
HETATM   16  H   UNL     1     -44.038  59.434 -50.052  1.00  0.00     0.163 HD
BRANCH  14  17
HETATM   17  C   UNL     1     -44.811  61.500 -48.831  1.00  0.00     0.122 A 
HETATM   18  N   UNL     1     -45.328  60.351 -48.277  1.00  0.00    -0.270 N 
HETATM   19  H   UNL     1     -45.013  59.400 -48.448  1.00  0.00     0.189 HD
HETATM   20  N   UNL     1     -46.348  60.564 -47.422  1.00  0.00    -0.149 NA
HETATM   21  C   UNL     1     -46.466  61.881 -47.453  1.00  0.00     0.183 A 
HETATM   22  C   UNL     1     -45.563  62.530 -48.295  1.00  0.00     0.096 A 
BRANCH  21  23
HETATM   23  O   UNL     1     -47.417  62.390 -46.680  1.00  0.00    -0.344 OA
HETATM   24  H   UNL     1     -47.585  61.702 -46.012  1.00  0.00     0.219 HD
ENDBRANCH  21  23
ENDBRANCH  14  17
ENDBRANCH   5  13
BRANCH   9  25
HETATM   25  C   UNL     1     -41.218  54.470 -52.110  1.00  0.00     0.011 C 
HETATM   26  C   UNL     1     -42.481  53.603 -51.981  1.00  0.00     0.023 C 
HETATM   27  C   UNL     1     -40.609  54.277 -53.512  1.00  0.00     0.023 C 
HETATM   28  C   UNL     1     -40.177  54.005 -51.073  1.00  0.00     0.023 C 
ENDBRANCH   9  25
TORSDOF 4
ENDMDL
MODEL 10
REMARK VINA RESULT:      -6.3      3.619      6.991
REMARK  4 active torsions:
REMARK  status: ('A' for Active; 'I' for Inactive)
REMARK    1  A    between atoms: C_5  and  N_6 
REMARK       I    between atoms: N_6  and  C_7 
REMARK    2  A    between atoms: C_7  and  C_8 
REMARK    3  A    between atoms: C_12  and  O_13 
REMARK    4  A    between atoms: C_19  and  C_20 
ROOT
HETATM    1  C   UNL     1     -42.338  59.426 -56.013  1.00  0.00     0.015 C 
HETATM    2  C   UNL     1     -42.667  58.929 -54.592  1.00  0.00    -0.040 C 
HETATM    3  C   UNL     1     -41.344  58.507 -53.925  1.00  0.00     0.015 C 
HETATM    4  C   UNL     1     -43.669  57.756 -54.699  1.00  0.00     0.039 C 
HETATM    5  C   UNL     1     -44.181  57.228 -53.344  1.00  0.00     0.122 C 
HETATM    6  C   UNL     1     -44.434  58.326 -52.353  1.00  0.00     0.007 A 
HETATM    7  C   UNL     1     -44.022  59.633 -52.535  1.00  0.00     0.047 A 
HETATM    8  N   UNL     1     -44.271  60.606 -51.631  1.00  0.00    -0.237 NA
HETATM    9  C   UNL     1     -44.928  60.271 -50.503  1.00  0.00     0.133 A 
HETATM   10  N   UNL     1     -45.371  59.027 -50.245  1.00  0.00    -0.244 NA
HETATM   11  C   UNL     1     -45.110  58.086 -51.172  1.00  0.00     0.130 A 
HETATM   12  C   UNL     1     -43.330  60.076 -53.799  1.00  0.00     0.069 C 
ENDROOT
BRANCH   5  13
HETATM   13  N   UNL     1     -43.277  56.231 -52.787  1.00  0.00    -0.347 N 
HETATM   14  C   UNL     1     -43.169  54.974 -53.333  1.00  0.00     0.270 C 
HETATM   15  O   UNL     1     -43.893  54.586 -54.244  1.00  0.00    -0.266 OA
HETATM   16  H   UNL     1     -42.621  56.517 -52.074  1.00  0.00     0.163 HD
BRANCH  14  17
HETATM   17  C   UNL     1     -42.139  54.143 -52.774  1.00  0.00     0.122 A 
HETATM   18  N   UNL     1     -42.013  53.984 -51.414  1.00  0.00    -0.270 N 
HETATM   19  H   UNL     1     -42.592  54.412 -50.697  1.00  0.00     0.189 HD
HETATM   20  N   UNL     1     -41.010  53.162 -51.047  1.00  0.00    -0.149 NA
HETATM   21  C   UNL     1     -40.501  52.807 -52.215  1.00  0.00     0.183 A 
HETATM   22  C   UNL     1     -41.134  53.368 -53.324  1.00  0.00     0.096 A 
BRANCH  21  23
HETATM   23  O   UNL     1     -39.471  51.972 -52.161  1.00  0.00    -0.344 OA
HETATM   24  H   UNL     1     -39.659  51.305 -52.845  1.00  0.00     0.219 HD
ENDBRANCH  21  23
ENDBRANCH  14  17
ENDBRANCH   5  13
BRANCH   9  25
HETATM   25  C   UNL     1     -45.285  61.383 -49.520  1.00  0.00     0.011 C 
HETATM   26  C   UNL     1     -44.088  62.342 -49.416  1.00  0.00     0.023 C 
HETATM   27  C   UNL     1     -46.523  62.164 -50.001  1.00  0.00     0.023 C 
HETATM   28  C   UNL     1     -45.598  60.811 -48.123  1.00  0.00     0.023 C 
ENDBRANCH   9  25
TORSDOF 4
ENDMDL
