MODEL 1
REMARK VINA RESULT:      -8.1      0.000      0.000
REMARK  5 active torsions:
REMARK  status: ('A' for Active; 'I' for Inactive)
REMARK    1  A    between atoms: C_2  and  O_3 
REMARK    2  A    between atoms: O_3  and  C_4 
REMARK    3  A    between atoms: C_7  and  C_8 
REMARK       I    between atoms: C_8  and  N_9 
REMARK    4  A    between atoms: N_9  and  N_10 
REMARK    5  A    between atoms: C_11  and  C_12 
ROOT
HETATM    1  C   UNL     1     -43.479  56.173 -57.989  1.00  0.00     0.271 C 
HETATM    2  N   UNL     1     -43.310  54.982 -57.297  1.00  0.00    -0.243 N 
HETATM    3  O   UNL     1     -42.908  57.228 -57.727  1.00  0.00    -0.266 OA
HETATM    4  H   UNL     1     -43.889  54.176 -57.492  1.00  0.00     0.192 HD
ENDROOT
BRANCH   2   5
HETATM    5  N   UNL     1     -42.502  54.963 -56.195  1.00  0.00    -0.183 NA
HETATM    6  C   UNL     1     -42.992  54.409 -55.135  1.00  0.00     0.152 C 
BRANCH   6   7
HETATM    7  C   UNL     1     -42.207  54.389 -53.918  1.00  0.00     0.011 A 
HETATM    8  C   UNL     1     -41.295  53.376 -53.478  1.00  0.00     0.005 A 
HETATM    9  C   UNL     1     -40.786  53.782 -52.242  1.00  0.00     0.043 A 
HETATM   10  C   UNL     1     -40.848  52.149 -54.016  1.00  0.00     0.033 A 
HETATM   11  C   UNL     1     -39.859  53.027 -51.513  1.00  0.00     0.031 A 
HETATM   12  N   UNL     1     -41.362  54.996 -51.943  1.00  0.00    -0.364 N 
HETATM   13  C   UNL     1     -39.431  51.817 -52.066  1.00  0.00     0.021 A 
HETATM   14  C   UNL     1     -39.919  51.389 -53.298  1.00  0.00     0.012 A 
HETATM   15 BR   UNL     1     -39.311  49.749 -54.021  1.00  0.00    -0.051 Br
HETATM   16  H   UNL     1     -41.179  55.532 -51.106  1.00  0.00     0.165 HD
HETATM   17  C   UNL     1     -42.212  55.370 -52.945  1.00  0.00     0.102 A 
ENDBRANCH   6   7
ENDBRANCH   2   5
BRANCH   1  18
HETATM   18  C   UNL     1     -44.467  56.146 -59.108  1.00  0.00     0.033 A 
HETATM   19  C   UNL     1     -44.382  55.249 -60.177  1.00  0.00     0.020 A 
HETATM   20  C   UNL     1     -45.359  55.266 -61.180  1.00  0.00     0.038 A 
HETATM   21  C   UNL     1     -46.418  56.179 -61.136  1.00  0.00     0.068 A 
HETATM   22  C   UNL     1     -46.484  57.094 -60.088  1.00  0.00     0.038 A 
HETATM   23  C   UNL     1     -45.513  57.078 -59.080  1.00  0.00     0.020 A 
BRANCH  21  24
HETATM   24  O   UNL     1     -47.303  56.077 -62.172  1.00  0.00    -0.352 OA
BRANCH  24  25
HETATM   25  C   UNL     1     -48.502  56.846 -62.077  1.00  0.00     0.171 C 
HETATM   26  C   UNL     1     -48.792  57.438 -63.444  1.00  0.00     0.034 C 
ENDBRANCH  24  25
ENDBRANCH  21  24
ENDBRANCH   1  18
TORSDOF 5
ENDMDL
MODEL 2
REMARK VINA RESULT:      -7.4      3.940      9.742
REMARK  5 active torsions:
REMARK  status: ('A' for Active; 'I' for Inactive)
REMARK    1  A    between atoms: C_2  and  O_3 
REMARK    2  A    between atoms: O_3  and  C_4 
REMARK    3  A    between atoms: C_7  and  C_8 
REMARK       I    between atoms: C_8  and  N_9 
REMARK    4  A    between atoms: N_9  and  N_10 
REMARK    5  A    between atoms: C_11  and  C_12 
ROOT
HETATM    1  C   UNL     1     -42.629  54.660 -55.031  1.00  0.00     0.271 C 
HETATM    2  N   UNL     1     -42.103  55.134 -56.224  1.00  0.00    -0.243 N 
HETATM    3  O   UNL     1     -43.760  54.895 -54.616  1.00  0.00    -0.266 OA
HETATM    4  H   UNL     1     -41.128  54.997 -56.459  1.00  0.00     0.192 HD
ENDROOT
BRANCH   2   5
HETATM    5  N   UNL     1     -42.852  55.982 -56.991  1.00  0.00    -0.183 NA
HETATM    6  C   UNL     1     -42.799  55.797 -58.268  1.00  0.00     0.152 C 
BRANCH   6   7
HETATM    7  C   UNL     1     -43.536  56.685 -59.144  1.00  0.00     0.011 A 
HETATM    8  C   UNL     1     -43.307  58.080 -59.374  1.00  0.00     0.005 A 
HETATM    9  C   UNL     1     -44.274  58.517 -60.283  1.00  0.00     0.043 A 
HETATM   10  C   UNL     1     -42.363  59.016 -58.898  1.00  0.00     0.033 A 
HETATM   11  C   UNL     1     -44.352  59.839 -60.738  1.00  0.00     0.031 A 
HETATM   12  N   UNL     1     -45.058  57.430 -60.597  1.00  0.00    -0.364 N 
HETATM   13  C   UNL     1     -43.407  60.748 -60.253  1.00  0.00     0.021 A 
HETATM   14  C   UNL     1     -42.430  60.339 -59.350  1.00  0.00     0.012 A 
HETATM   15 BR   UNL     1     -41.160  61.595 -58.721  1.00  0.00    -0.051 Br
HETATM   16  H   UNL     1     -45.841  57.448 -61.236  1.00  0.00     0.165 HD
HETATM   17  C   UNL     1     -44.621  56.326 -59.922  1.00  0.00     0.102 A 
ENDBRANCH   6   7
ENDBRANCH   2   5
BRANCH   1  18
HETATM   18  C   UNL     1     -41.710  53.837 -54.190  1.00  0.00     0.033 A 
HETATM   19  C   UNL     1     -40.852  52.870 -54.724  1.00  0.00     0.020 A 
HETATM   20  C   UNL     1     -40.000  52.151 -53.876  1.00  0.00     0.038 A 
HETATM   21  C   UNL     1     -40.000  52.378 -52.496  1.00  0.00     0.068 A 
HETATM   22  C   UNL     1     -40.877  53.319 -51.962  1.00  0.00     0.038 A 
HETATM   23  C   UNL     1     -41.728  54.044 -52.804  1.00  0.00     0.020 A 
BRANCH  21  24
HETATM   24  O   UNL     1     -39.111  51.616 -51.792  1.00  0.00    -0.352 OA
BRANCH  24  25
HETATM   25  C   UNL     1     -39.464  50.251 -51.566  1.00  0.00     0.171 C 
HETATM   26  C   UNL     1     -40.196  50.168 -50.239  1.00  0.00     0.034 C 
ENDBRANCH  24  25
ENDBRANCH  21  24
ENDBRANCH   1  18
TORSDOF 5
ENDMDL
MODEL 3
REMARK VINA RESULT:      -7.2      2.779      3.449
REMARK  5 active torsions:
REMARK  status: ('A' for Active; 'I' for Inactive)
REMARK    1  A    between atoms: C_2  and  O_3 
REMARK    2  A    between atoms: O_3  and  C_4 
REMARK    3  A    between atoms: C_7  and  C_8 
REMARK       I    between atoms: C_8  and  N_9 
REMARK    4  A    between atoms: N_9  and  N_10 
REMARK    5  A    between atoms: C_11  and  C_12 
ROOT
HETATM    1  C   UNL     1     -42.877  55.734 -56.356  1.00  0.00     0.271 C 
HETATM    2  N   UNL     1     -42.496  56.315 -55.155  1.00  0.00    -0.243 N 
HETATM    3  O   UNL     1     -43.155  54.548 -56.508  1.00  0.00    -0.266 OA
HETATM    4  H   UNL     1     -42.173  57.273 -55.115  1.00  0.00     0.192 HD
ENDROOT
BRANCH   2   5
HETATM    5  N   UNL     1     -42.348  55.523 -54.050  1.00  0.00    -0.183 NA
HETATM    6  C   UNL     1     -41.202  55.578 -53.456  1.00  0.00     0.152 C 
BRANCH   6   7
HETATM    7  C   UNL     1     -40.961  54.734 -52.303  1.00  0.00     0.011 A 
HETATM    8  C   UNL     1     -40.540  53.365 -52.289  1.00  0.00     0.005 A 
HETATM    9  C   UNL     1     -40.457  52.968 -50.952  1.00  0.00     0.043 A 
HETATM   10  C   UNL     1     -40.218  52.422 -53.289  1.00  0.00     0.033 A 
HETATM   11  C   UNL     1     -40.073  51.679 -50.561  1.00  0.00     0.031 A 
HETATM   12  N   UNL     1     -40.808  54.054 -50.182  1.00  0.00    -0.364 N 
HETATM   13  C   UNL     1     -39.758  50.763 -51.569  1.00  0.00     0.021 A 
HETATM   14  C   UNL     1     -39.829  51.133 -52.909  1.00  0.00     0.012 A 
HETATM   15 BR   UNL     1     -39.387  49.869 -54.248  1.00  0.00    -0.051 Br
HETATM   16  H   UNL     1     -40.837  54.061 -49.172  1.00  0.00     0.165 HD
HETATM   17  C   UNL     1     -41.108  55.119 -50.983  1.00  0.00     0.102 A 
ENDBRANCH   6   7
ENDBRANCH   2   5
BRANCH   1  18
HETATM   18  C   UNL     1     -42.900  56.638 -57.543  1.00  0.00     0.033 A 
HETATM   19  C   UNL     1     -42.644  58.011 -57.459  1.00  0.00     0.020 A 
HETATM   20  C   UNL     1     -42.662  58.794 -58.620  1.00  0.00     0.038 A 
HETATM   21  C   UNL     1     -42.943  58.226 -59.866  1.00  0.00     0.068 A 
HETATM   22  C   UNL     1     -43.229  56.865 -59.945  1.00  0.00     0.038 A 
HETATM   23  C   UNL     1     -43.209  56.076 -58.789  1.00  0.00     0.020 A 
BRANCH  21  24
HETATM   24  O   UNL     1     -42.914  59.104 -60.914  1.00  0.00    -0.352 OA
BRANCH  24  25
HETATM   25  C   UNL     1     -42.819  60.492 -60.593  1.00  0.00     0.171 C 
HETATM   26  C   UNL     1     -41.666  61.080 -61.385  1.00  0.00     0.034 C 
ENDBRANCH  24  25
ENDBRANCH  21  24
ENDBRANCH   1  18
TORSDOF 5
ENDMDL
MODEL 4
REMARK VINA RESULT:      -7.2      3.202      4.096
REMARK  5 active torsions:
REMARK  status: ('A' for Active; 'I' for Inactive)
REMARK    1  A    between atoms: C_2  and  O_3 
REMARK    2  A    between atoms: O_3  and  C_4 
REMARK    3  A    between atoms: C_7  and  C_8 
REMARK       I    between atoms: C_8  and  N_9 
REMARK    4  A    between atoms: N_9  and  N_10 
REMARK    5  A    between atoms: C_11  and  C_12 
ROOT
HETATM    1  C   UNL     1     -42.822  55.449 -56.902  1.00  0.00     0.271 C 
HETATM    2  N   UNL     1     -41.816  55.601 -55.959  1.00  0.00    -0.243 N 
HETATM    3  O   UNL     1     -43.608  54.507 -56.949  1.00  0.00    -0.266 OA
HETATM    4  H   UNL     1     -41.131  56.342 -56.037  1.00  0.00     0.192 HD
ENDROOT
BRANCH   2   5
HETATM    5  N   UNL     1     -41.617  54.615 -55.033  1.00  0.00    -0.183 NA
HETATM    6  C   UNL     1     -40.484  53.996 -55.091  1.00  0.00     0.152 C 
BRANCH   6   7
HETATM    7  C   UNL     1     -40.221  52.911 -54.167  1.00  0.00     0.011 A 
HETATM    8  C   UNL     1     -40.312  52.934 -52.737  1.00  0.00     0.005 A 
HETATM    9  C   UNL     1     -39.951  51.665 -52.277  1.00  0.00     0.043 A 
HETATM   10  C   UNL     1     -40.672  53.914 -51.787  1.00  0.00     0.033 A 
HETATM   11  C   UNL     1     -39.926  51.325 -50.919  1.00  0.00     0.031 A 
HETATM   12  N   UNL     1     -39.656  50.900 -53.382  1.00  0.00    -0.364 N 
HETATM   13  C   UNL     1     -40.287  52.311 -49.997  1.00  0.00     0.021 A 
HETATM   14  C   UNL     1     -40.655  53.583 -50.428  1.00  0.00     0.012 A 
HETATM   15 BR   UNL     1     -41.147  54.892 -49.152  1.00  0.00    -0.051 Br
HETATM   16  H   UNL     1     -39.365  49.932 -53.354  1.00  0.00     0.165 HD
HETATM   17  C   UNL     1     -39.820  51.637 -54.521  1.00  0.00     0.102 A 
ENDBRANCH   6   7
ENDBRANCH   2   5
BRANCH   1  18
HETATM   18  C   UNL     1     -42.902  56.507 -57.952  1.00  0.00     0.033 A 
HETATM   19  C   UNL     1     -42.808  57.873 -57.664  1.00  0.00     0.020 A 
HETATM   20  C   UNL     1     -42.869  58.809 -58.703  1.00  0.00     0.038 A 
HETATM   21  C   UNL     1     -43.033  58.400 -60.031  1.00  0.00     0.068 A 
HETATM   22  C   UNL     1     -43.157  57.041 -60.313  1.00  0.00     0.038 A 
HETATM   23  C   UNL     1     -43.093  56.100 -59.279  1.00  0.00     0.020 A 
BRANCH  21  24
HETATM   24  O   UNL     1     -43.063  59.417 -60.943  1.00  0.00    -0.352 OA
BRANCH  24  25
HETATM   25  C   UNL     1     -41.805  59.923 -61.389  1.00  0.00     0.171 C 
HETATM   26  C   UNL     1     -41.660  61.344 -60.877  1.00  0.00     0.034 C 
ENDBRANCH  24  25
ENDBRANCH  21  24
ENDBRANCH   1  18
TORSDOF 5
ENDMDL
MODEL 5
REMARK VINA RESULT:      -7.0      4.321      9.989
REMARK  5 active torsions:
REMARK  status: ('A' for Active; 'I' for Inactive)
REMARK    1  A    between atoms: C_2  and  O_3 
REMARK    2  A    between atoms: O_3  and  C_4 
REMARK    3  A    between atoms: C_7  and  C_8 
REMARK       I    between atoms: C_8  and  N_9 
REMARK    4  A    between atoms: N_9  and  N_10 
REMARK    5  A    between atoms: C_11  and  C_12 
ROOT
HETATM    1  C   UNL     1     -42.497  54.450 -55.487  1.00  0.00     0.271 C 
HETATM    2  N   UNL     1     -41.945  55.484 -56.230  1.00  0.00    -0.243 N 
HETATM    3  O   UNL     1     -43.508  53.824 -55.792  1.00  0.00    -0.266 OA
HETATM    4  H   UNL     1     -41.175  56.034 -55.873  1.00  0.00     0.192 HD
ENDROOT
BRANCH   2   5
HETATM    5  N   UNL     1     -42.586  55.905 -57.362  1.00  0.00    -0.183 NA
HETATM    6  C   UNL     1     -42.555  57.175 -57.599  1.00  0.00     0.152 C 
BRANCH   6   7
HETATM    7  C   UNL     1     -43.248  57.697 -58.759  1.00  0.00     0.011 A 
HETATM    8  C   UNL     1     -42.981  58.912 -59.468  1.00  0.00     0.005 A 
HETATM    9  C   UNL     1     -43.914  59.004 -60.504  1.00  0.00     0.043 A 
HETATM   10  C   UNL     1     -42.028  59.945 -59.331  1.00  0.00     0.033 A 
HETATM   11  C   UNL     1     -43.950  60.074 -61.406  1.00  0.00     0.031 A 
HETATM   12  N   UNL     1     -44.715  57.887 -60.430  1.00  0.00    -0.364 N 
HETATM   13  C   UNL     1     -42.997  61.085 -61.252  1.00  0.00     0.021 A 
HETATM   14  C   UNL     1     -42.052  61.017 -60.231  1.00  0.00     0.012 A 
HETATM   15 BR   UNL     1     -40.770  62.399 -60.056  1.00  0.00    -0.051 Br
HETATM   16  H   UNL     1     -45.481  57.683 -61.057  1.00  0.00     0.165 HD
HETATM   17  C   UNL     1     -44.321  57.095 -59.390  1.00  0.00     0.102 A 
ENDBRANCH   6   7
ENDBRANCH   2   5
BRANCH   1  18
HETATM   18  C   UNL     1     -41.808  54.126 -54.203  1.00  0.00     0.033 A 
HETATM   19  C   UNL     1     -40.956  53.027 -54.053  1.00  0.00     0.020 A 
HETATM   20  C   UNL     1     -40.326  52.798 -52.824  1.00  0.00     0.038 A 
HETATM   21  C   UNL     1     -40.544  53.647 -51.734  1.00  0.00     0.068 A 
HETATM   22  C   UNL     1     -41.417  54.724 -51.875  1.00  0.00     0.038 A 
HETATM   23  C   UNL     1     -42.047  54.960 -53.103  1.00  0.00     0.020 A 
BRANCH  21  24
HETATM   24  O   UNL     1     -39.856  53.312 -50.602  1.00  0.00    -0.352 OA
BRANCH  24  25
HETATM   25  C   UNL     1     -39.636  54.351 -49.647  1.00  0.00     0.171 C 
HETATM   26  C   UNL     1     -40.368  53.981 -48.371  1.00  0.00     0.034 C 
ENDBRANCH  24  25
ENDBRANCH  21  24
ENDBRANCH   1  18
TORSDOF 5
ENDMDL
MODEL 6
REMARK VINA RESULT:      -6.9      7.149     10.219
REMARK  5 active torsions:
REMARK  status: ('A' for Active; 'I' for Inactive)
REMARK    1  A    between atoms: C_2  and  O_3 
REMARK    2  A    between atoms: O_3  and  C_4 
REMARK    3  A    between atoms: C_7  and  C_8 
REMARK       I    between atoms: C_8  and  N_9 
REMARK    4  A    between atoms: N_9  and  N_10 
REMARK    5  A    between atoms: C_11  and  C_12 
ROOT
HETATM    1  C   UNL     1     -41.935  56.878 -51.282  1.00  0.00     0.271 C 
HETATM    2  N   UNL     1     -43.199  57.177 -51.768  1.00  0.00    -0.243 N 
HETATM    3  O   UNL     1     -41.235  57.640 -50.621  1.00  0.00    -0.266 OA
HETATM    4  H   UNL     1     -43.681  56.549 -52.399  1.00  0.00     0.192 HD
ENDROOT
BRANCH   2   5
HETATM    5  N   UNL     1     -43.709  58.430 -51.569  1.00  0.00    -0.183 NA
HETATM    6  C   UNL     1     -44.997  58.532 -51.581  1.00  0.00     0.152 C 
BRANCH   6   7
HETATM    7  C   UNL     1     -45.606  59.836 -51.417  1.00  0.00     0.011 A 
HETATM    8  C   UNL     1     -45.719  60.608 -50.215  1.00  0.00     0.005 A 
HETATM    9  C   UNL     1     -46.394  61.788 -50.540  1.00  0.00     0.043 A 
HETATM   10  C   UNL     1     -45.308  60.417 -48.878  1.00  0.00     0.033 A 
HETATM   11  C   UNL     1     -46.684  62.784 -49.599  1.00  0.00     0.031 A 
HETATM   12  N   UNL     1     -46.677  61.738 -51.886  1.00  0.00    -0.364 N 
HETATM   13  C   UNL     1     -46.266  62.573 -48.282  1.00  0.00     0.021 A 
HETATM   14  C   UNL     1     -45.588  61.409 -47.932  1.00  0.00     0.012 A 
HETATM   15 BR   UNL     1     -45.028  61.160 -46.141  1.00  0.00    -0.051 Br
HETATM   16  H   UNL     1     -47.161  62.460 -52.401  1.00  0.00     0.165 HD
HETATM   17  C   UNL     1     -46.204  60.574 -52.422  1.00  0.00     0.102 A 
ENDBRANCH   6   7
ENDBRANCH   2   5
BRANCH   1  18
HETATM   18  C   UNL     1     -41.395  55.534 -51.641  1.00  0.00     0.033 A 
HETATM   19  C   UNL     1     -41.377  55.047 -52.953  1.00  0.00     0.020 A 
HETATM   20  C   UNL     1     -40.834  53.784 -53.218  1.00  0.00     0.038 A 
HETATM   21  C   UNL     1     -40.317  52.992 -52.188  1.00  0.00     0.068 A 
HETATM   22  C   UNL     1     -40.365  53.464 -50.878  1.00  0.00     0.038 A 
HETATM   23  C   UNL     1     -40.902  54.727 -50.607  1.00  0.00     0.020 A 
BRANCH  21  24
HETATM   24  O   UNL     1     -39.809  51.789 -52.592  1.00  0.00    -0.352 OA
BRANCH  24  25
HETATM   25  C   UNL     1     -39.954  51.456 -53.973  1.00  0.00     0.171 C 
HETATM   26  C   UNL     1     -39.798  49.953 -54.114  1.00  0.00     0.034 C 
ENDBRANCH  24  25
ENDBRANCH  21  24
ENDBRANCH   1  18
TORSDOF 5
ENDMDL
MODEL 7
REMARK VINA RESULT:      -6.7      4.296      5.298
REMARK  5 active torsions:
REMARK  status: ('A' for Active; 'I' for Inactive)
REMARK    1  A    between atoms: C_2  and  O_3 
REMARK    2  A    between atoms: O_3  and  C_4 
REMARK    3  A    between atoms: C_7  and  C_8 
REMARK       I    between atoms: C_8  and  N_9 
REMARK    4  A    between atoms: N_9  and  N_10 
REMARK    5  A    between atoms: C_11  and  C_12 
ROOT
HETATM    1  C   UNL     1     -42.279  58.678 -56.928  1.00  0.00     0.271 C 
HETATM    2  N   UNL     1     -42.138  59.257 -55.675  1.00  0.00    -0.243 N 
HETATM    3  O   UNL     1     -42.591  57.509 -57.134  1.00  0.00    -0.266 OA
HETATM    4  H   UNL     1     -41.773  60.194 -55.568  1.00  0.00     0.192 HD
ENDROOT
BRANCH   2   5
HETATM    5  N   UNL     1     -42.290  58.477 -54.562  1.00  0.00    -0.183 NA
HETATM    6  C   UNL     1     -41.341  58.539 -53.686  1.00  0.00     0.152 C 
BRANCH   6   7
HETATM    7  C   UNL     1     -41.415  57.708 -52.502  1.00  0.00     0.011 A 
HETATM    8  C   UNL     1     -41.259  56.287 -52.415  1.00  0.00     0.005 A 
HETATM    9  C   UNL     1     -41.429  55.930 -51.074  1.00  0.00     0.043 A 
HETATM   10  C   UNL     1     -40.984  55.266 -53.350  1.00  0.00     0.033 A 
HETATM   11  C   UNL     1     -41.344  54.609 -50.620  1.00  0.00     0.031 A 
HETATM   12  N   UNL     1     -41.675  57.089 -50.373  1.00  0.00    -0.364 N 
HETATM   13  C   UNL     1     -41.070  53.615 -51.564  1.00  0.00     0.021 A 
HETATM   14  C   UNL     1     -40.892  53.942 -52.905  1.00  0.00     0.012 A 
HETATM   15 BR   UNL     1     -40.514  52.572 -54.155  1.00  0.00    -0.051 Br
HETATM   16  H   UNL     1     -41.837  57.138 -49.377  1.00  0.00     0.165 HD
HETATM   17  C   UNL     1     -41.664  58.161 -51.220  1.00  0.00     0.102 A 
ENDBRANCH   6   7
ENDBRANCH   2   5
BRANCH   1  18
HETATM   18  C   UNL     1     -41.982  59.561 -58.094  1.00  0.00     0.033 A 
HETATM   19  C   UNL     1     -42.271  59.201 -59.415  1.00  0.00     0.020 A 
HETATM   20  C   UNL     1     -41.985  60.091 -60.457  1.00  0.00     0.038 A 
HETATM   21  C   UNL     1     -41.401  61.335 -60.201  1.00  0.00     0.068 A 
HETATM   22  C   UNL     1     -41.085  61.681 -58.889  1.00  0.00     0.038 A 
HETATM   23  C   UNL     1     -41.372  60.797 -57.842  1.00  0.00     0.020 A 
BRANCH  21  24
HETATM   24  O   UNL     1     -41.189  62.106 -61.309  1.00  0.00    -0.352 OA
BRANCH  24  25
HETATM   25  C   UNL     1     -40.253  63.178 -61.183  1.00  0.00     0.171 C 
HETATM   26  C   UNL     1     -39.289  63.102 -62.352  1.00  0.00     0.034 C 
ENDBRANCH  24  25
ENDBRANCH  21  24
ENDBRANCH   1  18
TORSDOF 5
ENDMDL
MODEL 8
REMARK VINA RESULT:      -6.7      3.853      9.649
REMARK  5 active torsions:
REMARK  status: ('A' for Active; 'I' for Inactive)
REMARK    1  A    between atoms: C_2  and  O_3 
REMARK    2  A    between atoms: O_3  and  C_4 
REMARK    3  A    between atoms: C_7  and  C_8 
REMARK       I    between atoms: C_8  and  N_9 
REMARK    4  A    between atoms: N_9  and  N_10 
REMARK    5  A    between atoms: C_11  and  C_12 
ROOT
HETATM    1  C   UNL     1     -42.676  55.008 -54.485  1.00  0.00     0.271 C 
HETATM    2  N   UNL     1     -42.134  56.181 -54.991  1.00  0.00    -0.243 N 
HETATM    3  O   UNL     1     -43.866  54.711 -54.515  1.00  0.00    -0.266 OA
HETATM    4  H   UNL     1     -41.162  56.418 -54.839  1.00  0.00     0.192 HD
ENDROOT
BRANCH   2   5
HETATM    5  N   UNL     1     -42.969  57.128 -55.515  1.00  0.00    -0.183 NA
HETATM    6  C   UNL     1     -42.564  57.717 -56.591  1.00  0.00     0.152 C 
BRANCH   6   7
HETATM    7  C   UNL     1     -43.380  58.761 -57.177  1.00  0.00     0.011 A 
HETATM    8  C   UNL     1     -44.461  58.612 -58.107  1.00  0.00     0.005 A 
HETATM    9  C   UNL     1     -44.935  59.893 -58.402  1.00  0.00     0.043 A 
HETATM   10  C   UNL     1     -45.086  57.508 -58.724  1.00  0.00     0.033 A 
HETATM   11  C   UNL     1     -45.996  60.129 -59.284  1.00  0.00     0.031 A 
HETATM   12  N   UNL     1     -44.176  60.785 -57.678  1.00  0.00    -0.364 N 
HETATM   13  C   UNL     1     -46.601  59.020 -59.882  1.00  0.00     0.021 A 
HETATM   14  C   UNL     1     -46.151  57.732 -59.603  1.00  0.00     0.012 A 
HETATM   15 BR   UNL     1     -46.998  56.252 -60.425  1.00  0.00    -0.051 Br
HETATM   16  H   UNL     1     -44.294  61.789 -57.692  1.00  0.00     0.165 HD
HETATM   17  C   UNL     1     -43.244  60.115 -56.938  1.00  0.00     0.102 A 
ENDBRANCH   6   7
ENDBRANCH   2   5
BRANCH   1  18
HETATM   18  C   UNL     1     -41.717  54.076 -53.822  1.00  0.00     0.033 A 
HETATM   19  C   UNL     1     -41.388  54.160 -52.465  1.00  0.00     0.020 A 
HETATM   20  C   UNL     1     -40.497  53.236 -51.906  1.00  0.00     0.038 A 
HETATM   21  C   UNL     1     -39.918  52.231 -52.688  1.00  0.00     0.068 A 
HETATM   22  C   UNL     1     -40.222  52.167 -54.047  1.00  0.00     0.038 A 
HETATM   23  C   UNL     1     -41.115  53.085 -54.610  1.00  0.00     0.020 A 
BRANCH  21  24
HETATM   24  O   UNL     1     -39.078  51.393 -52.011  1.00  0.00    -0.352 OA
BRANCH  24  25
HETATM   25  C   UNL     1     -39.456  50.018 -51.939  1.00  0.00     0.171 C 
HETATM   26  C   UNL     1     -39.934  49.734 -50.527  1.00  0.00     0.034 C 
ENDBRANCH  24  25
ENDBRANCH  21  24
ENDBRANCH   1  18
TORSDOF 5
ENDMDL
MODEL 9
REMARK VINA RESULT:      -6.6      6.019      9.730
REMARK  5 active torsions:
REMARK  status: ('A' for Active; 'I' for Inactive)
REMARK    1  A    between atoms: C_2  and  O_3 
REMARK    2  A    between atoms: O_3  and  C_4 
REMARK    3  A    between atoms: C_7  and  C_8 
REMARK       I    between atoms: C_8  and  N_9 
REMARK    4  A    between atoms: N_9  and  N_10 
REMARK    5  A    between atoms: C_11  and  C_12 
ROOT
HETATM    1  C   UNL     1     -43.269  55.495 -52.155  1.00  0.00     0.271 C 
HETATM    2  N   UNL     1     -43.530  56.236 -53.299  1.00  0.00    -0.243 N 
HETATM    3  O   UNL     1     -43.820  55.654 -51.070  1.00  0.00    -0.266 OA
HETATM    4  H   UNL     1     -42.967  56.131 -54.132  1.00  0.00     0.192 HD
ENDROOT
BRANCH   2   5
HETATM    5  N   UNL     1     -44.419  57.273 -53.230  1.00  0.00    -0.183 NA
HETATM    6  C   UNL     1     -44.096  58.348 -53.870  1.00  0.00     0.152 C 
BRANCH   6   7
HETATM    7  C   UNL     1     -44.971  59.500 -53.807  1.00  0.00     0.011 A 
HETATM    8  C   UNL     1     -45.377  60.232 -52.644  1.00  0.00     0.005 A 
HETATM    9  C   UNL     1     -46.235  61.249 -53.071  1.00  0.00     0.043 A 
HETATM   10  C   UNL     1     -45.094  60.128 -51.265  1.00  0.00     0.033 A 
HETATM   11  C   UNL     1     -46.827  62.165 -52.193  1.00  0.00     0.031 A 
HETATM   12  N   UNL     1     -46.342  61.144 -54.439  1.00  0.00    -0.364 N 
HETATM   13  C   UNL     1     -46.532  62.044 -50.832  1.00  0.00     0.021 A 
HETATM   14  C   UNL     1     -45.678  61.042 -50.380  1.00  0.00     0.012 A 
HETATM   15 BR   UNL     1     -45.292  60.911 -48.531  1.00  0.00    -0.051 Br
HETATM   16  H   UNL     1     -46.899  61.752 -55.023  1.00  0.00     0.165 HD
HETATM   17  C   UNL     1     -45.585  60.101 -54.890  1.00  0.00     0.102 A 
ENDBRANCH   6   7
ENDBRANCH   2   5
BRANCH   1  18
HETATM   18  C   UNL     1     -42.201  54.459 -52.276  1.00  0.00     0.033 A 
HETATM   19  C   UNL     1     -41.563  53.891 -51.169  1.00  0.00     0.020 A 
HETATM   20  C   UNL     1     -40.585  52.907 -51.358  1.00  0.00     0.038 A 
HETATM   21  C   UNL     1     -40.226  52.488 -52.643  1.00  0.00     0.068 A 
HETATM   22  C   UNL     1     -40.839  53.076 -53.746  1.00  0.00     0.038 A 
HETATM   23  C   UNL     1     -41.820  54.057 -53.564  1.00  0.00     0.020 A 
BRANCH  21  24
HETATM   24  O   UNL     1     -39.268  51.513 -52.679  1.00  0.00    -0.352 OA
BRANCH  24  25
HETATM   25  C   UNL     1     -39.710  50.180 -52.936  1.00  0.00     0.171 C 
HETATM   26  C   UNL     1     -39.495  49.889 -54.410  1.00  0.00     0.034 C 
ENDBRANCH  24  25
ENDBRANCH  21  24
ENDBRANCH   1  18
TORSDOF 5
ENDMDL
MODEL 10
REMARK VINA RESULT:      -6.6      7.217     10.784
REMARK  5 active torsions:
REMARK  status: ('A' for Active; 'I' for Inactive)
REMARK    1  A    between atoms: C_2  and  O_3 
REMARK    2  A    between atoms: O_3  and  C_4 
REMARK    3  A    between atoms: C_7  and  C_8 
REMARK       I    between atoms: C_8  and  N_9 
REMARK    4  A    between atoms: N_9  and  N_10 
REMARK    5  A    between atoms: C_11  and  C_12 
ROOT
HETATM    1  C   UNL     1     -45.226  60.338 -49.997  1.00  0.00     0.271 C 
HETATM    2  N   UNL     1     -44.017  59.799 -50.412  1.00  0.00    -0.243 N 
HETATM    3  O   UNL     1     -46.309  60.145 -50.541  1.00  0.00    -0.266 OA
HETATM    4  H   UNL     1     -43.143  60.082 -49.989  1.00  0.00     0.192 HD
ENDROOT
BRANCH   2   5
HETATM    5  N   UNL     1     -43.983  59.039 -51.548  1.00  0.00    -0.183 NA
HETATM    6  C   UNL     1     -44.032  57.759 -51.383  1.00  0.00     0.152 C 
BRANCH   6   7
HETATM    7  C   UNL     1     -43.958  56.891 -52.541  1.00  0.00     0.011 A 
HETATM    8  C   UNL     1     -43.107  55.755 -52.734  1.00  0.00     0.005 A 
HETATM    9  C   UNL     1     -43.378  55.244 -54.006  1.00  0.00     0.043 A 
HETATM   10  C   UNL     1     -42.133  55.107 -51.945  1.00  0.00     0.033 A 
HETATM   11  C   UNL     1     -42.723  54.124 -54.533  1.00  0.00     0.031 A 
HETATM   12  N   UNL     1     -44.356  56.035 -54.563  1.00  0.00    -0.364 N 
HETATM   13  C   UNL     1     -41.762  53.498 -53.734  1.00  0.00     0.021 A 
HETATM   14  C   UNL     1     -41.476  53.984 -52.461  1.00  0.00     0.012 A 
HETATM   15 BR   UNL     1     -40.176  53.107 -51.401  1.00  0.00    -0.051 Br
HETATM   16  H   UNL     1     -44.753  55.902 -55.483  1.00  0.00     0.165 HD
HETATM   17  C   UNL     1     -44.714  57.023 -53.690  1.00  0.00     0.102 A 
ENDBRANCH   6   7
ENDBRANCH   2   5
BRANCH   1  18
HETATM   18  C   UNL     1     -45.165  61.253 -48.818  1.00  0.00     0.033 A 
HETATM   19  C   UNL     1     -44.800  62.600 -48.919  1.00  0.00     0.020 A 
HETATM   20  C   UNL     1     -44.787  63.404 -47.773  1.00  0.00     0.038 A 
HETATM   21  C   UNL     1     -45.123  62.879 -46.522  1.00  0.00     0.068 A 
HETATM   22  C   UNL     1     -45.457  61.530 -46.417  1.00  0.00     0.038 A 
HETATM   23  C   UNL     1     -45.476  60.722 -47.560  1.00  0.00     0.020 A 
BRANCH  21  24
HETATM   24  O   UNL     1     -45.080  63.779 -45.494  1.00  0.00    -0.352 OA
BRANCH  24  25
HETATM   25  C   UNL     1     -44.738  63.272 -44.204  1.00  0.00     0.171 C 
HETATM   26  C   UNL     1     -44.418  64.451 -43.304  1.00  0.00     0.034 C 
ENDBRANCH  24  25
ENDBRANCH  21  24
ENDBRANCH   1  18
TORSDOF 5
ENDMDL
