MODEL 1
REMARK VINA RESULT:      -8.4      0.000      0.000
REMARK  9 active torsions:
REMARK  status: ('A' for Active; 'I' for Inactive)
REMARK    1  A    between atoms: O_2  and  C_3 
REMARK    2  A    between atoms: C_6  and  C_7 
REMARK    3  A    between atoms: C_13  and  C_14 
REMARK       I    between atoms: C_14  and  N_15 
REMARK    4  A    between atoms: N_15  and  N_16 
REMARK    5  A    between atoms: N_16  and  C_17 
REMARK    6  A    between atoms: C_17  and  N_18 
REMARK    7  A    between atoms: N_18  and  C_19 
REMARK    8  A    between atoms: C_19  and  C_20 
REMARK    9  A    between atoms: C_27  and  C_28 
ROOT
HETATM    1  C   UNL     1     -43.520  54.993 -51.855  1.00  0.00     0.118 C 
HETATM    2  N   UNL     1     -44.084  55.865 -52.878  1.00  0.00    -0.365 N 
HETATM    3  C   UNL     1     -43.654  57.136 -53.059  1.00  0.00     0.138 A 
HETATM    4  N   UNL     1     -42.856  57.749 -52.133  1.00  0.00    -0.240 N 
HETATM    5  N   UNL     1     -42.624  59.047 -52.395  1.00  0.00    -0.181 NA
HETATM    6  C   UNL     1     -43.218  59.221 -53.582  1.00  0.00     0.160 A 
HETATM    7  C   UNL     1     -43.863  58.057 -54.068  1.00  0.00     0.098 A 
HETATM    8  C   UNL     1     -42.372  57.116 -50.922  1.00  0.00     0.221 C 
HETATM    9  C   UNL     1     -43.186  55.844 -50.612  1.00  0.00     0.066 C 
HETATM   10  H   UNL     1     -44.622  55.405 -53.616  1.00  0.00     0.161 HD
ENDROOT
BRANCH   7  11
HETATM   11  C   UNL     1     -44.637  57.830 -55.274  1.00  0.00     0.275 C 
HETATM   12  N   UNL     1     -44.071  58.095 -56.513  1.00  0.00    -0.263 N 
HETATM   13  H   UNL     1     -44.670  57.756 -57.263  1.00  0.00     0.190 HD
HETATM   14  O   UNL     1     -45.800  57.423 -55.238  1.00  0.00    -0.266 OA
BRANCH  12  15
HETATM   15  N   UNL     1     -42.694  57.930 -56.764  1.00  0.00    -0.274 N 
HETATM   16  H   UNL     1     -42.133  57.508 -56.030  1.00  0.00     0.189 HD
BRANCH  15  17
HETATM   17  C   UNL     1     -42.102  58.453 -57.887  1.00  0.00     0.186 C 
HETATM   18  S   UNL     1     -41.752  60.068 -58.140  1.00  0.00    -0.040 SA
BRANCH  17  19
HETATM   19  N   UNL     1     -41.744  57.568 -58.859  1.00  0.00    -0.360 N 
HETATM   20  H   UNL     1     -41.049  56.892 -58.566  1.00  0.00     0.162 HD
BRANCH  19  21
HETATM   21  C   UNL     1     -42.381  57.337 -60.142  1.00  0.00     0.187 C 
BRANCH  21  22
HETATM   22  C   UNL     1     -43.307  56.188 -60.040  1.00  0.00     0.070 A 
HETATM   23  O   UNL     1     -44.145  55.983 -61.098  1.00  0.00    -0.325 OA
HETATM   24  C   UNL     1     -44.889  54.883 -60.804  1.00  0.00     0.142 A 
HETATM   25  C   UNL     1     -44.551  54.392 -59.565  1.00  0.00     0.027 A 
HETATM   26  C   UNL     1     -43.529  55.234 -59.068  1.00  0.00     0.036 A 
ENDBRANCH  21  22
ENDBRANCH  19  21
ENDBRANCH  17  19
ENDBRANCH  15  17
ENDBRANCH  12  15
ENDBRANCH   7  11
BRANCH   1  27
HETATM   27  C   UNL     1     -42.391  54.118 -52.376  1.00  0.00    -0.035 A 
HETATM   28  C   UNL     1     -41.506  53.437 -51.525  1.00  0.00     0.012 A 
HETATM   29  C   UNL     1     -40.474  52.646 -52.040  1.00  0.00     0.037 A 
HETATM   30  C   UNL     1     -40.296  52.514 -53.415  1.00  0.00     0.068 A 
HETATM   31  C   UNL     1     -41.142  53.209 -54.276  1.00  0.00     0.037 A 
HETATM   32  C   UNL     1     -42.172  54.008 -53.761  1.00  0.00     0.012 A 
BRANCH  30  33
HETATM   33  O   UNL     1     -39.262  51.701 -53.786  1.00  0.00    -0.356 OA
HETATM   34  C   UNL     1     -39.593  50.354 -54.101  1.00  0.00     0.210 C 
ENDBRANCH  30  33
ENDBRANCH   1  27
BRANCH   8  35
HETATM   35  C   UNL     1     -40.881  56.880 -51.016  1.00  0.00     0.409 C 
HETATM   36  F   UNL     1     -40.421  55.915 -50.201  1.00  0.00    -0.169 F 
HETATM   37  F   UNL     1     -40.497  56.562 -52.276  1.00  0.00    -0.169 F 
HETATM   38  F   UNL     1     -40.209  58.021 -50.702  1.00  0.00    -0.169 F 
ENDBRANCH   8  35
TORSDOF 9
ENDMDL
MODEL 2
REMARK VINA RESULT:      -8.0      2.575      3.745
REMARK  9 active torsions:
REMARK  status: ('A' for Active; 'I' for Inactive)
REMARK    1  A    between atoms: O_2  and  C_3 
REMARK    2  A    between atoms: C_6  and  C_7 
REMARK    3  A    between atoms: C_13  and  C_14 
REMARK       I    between atoms: C_14  and  N_15 
REMARK    4  A    between atoms: N_15  and  N_16 
REMARK    5  A    between atoms: N_16  and  C_17 
REMARK    6  A    between atoms: C_17  and  N_18 
REMARK    7  A    between atoms: N_18  and  C_19 
REMARK    8  A    between atoms: C_19  and  C_20 
REMARK    9  A    between atoms: C_27  and  C_28 
ROOT
HETATM    1  C   UNL     1     -43.602  55.235 -54.028  1.00  0.00     0.118 C 
HETATM    2  N   UNL     1     -43.726  55.477 -55.460  1.00  0.00    -0.365 N 
HETATM    3  C   UNL     1     -43.142  56.538 -56.066  1.00  0.00     0.138 A 
HETATM    4  N   UNL     1     -42.625  57.571 -55.334  1.00  0.00    -0.240 N 
HETATM    5  N   UNL     1     -42.199  58.602 -56.083  1.00  0.00    -0.181 NA
HETATM    6  C   UNL     1     -42.366  58.151 -57.332  1.00  0.00     0.160 A 
HETATM    7  C   UNL     1     -42.931  56.854 -57.395  1.00  0.00     0.098 A 
HETATM    8  C   UNL     1     -42.613  57.623 -53.886  1.00  0.00     0.221 C 
HETATM    9  C   UNL     1     -43.601  56.594 -53.298  1.00  0.00     0.066 C 
HETATM   10  H   UNL     1     -44.043  54.685 -56.025  1.00  0.00     0.161 HD
ENDROOT
BRANCH   7  11
HETATM   11  C   UNL     1     -43.300  56.028 -58.530  1.00  0.00     0.275 C 
HETATM   12  N   UNL     1     -44.637  55.892 -58.875  1.00  0.00    -0.263 N 
HETATM   13  H   UNL     1     -44.732  55.409 -59.766  1.00  0.00     0.190 HD
HETATM   14  O   UNL     1     -42.460  55.421 -59.197  1.00  0.00    -0.266 OA
BRANCH  12  15
HETATM   15  N   UNL     1     -45.575  56.928 -58.684  1.00  0.00    -0.274 N 
HETATM   16  H   UNL     1     -45.818  57.166 -57.727  1.00  0.00     0.189 HD
BRANCH  15  17
HETATM   17  C   UNL     1     -46.248  57.490 -59.741  1.00  0.00     0.186 C 
HETATM   18  S   UNL     1     -47.302  56.688 -60.760  1.00  0.00    -0.040 SA
BRANCH  17  19
HETATM   19  N   UNL     1     -46.057  58.823 -59.948  1.00  0.00    -0.360 N 
HETATM   20  H   UNL     1     -46.700  59.232 -60.616  1.00  0.00     0.162 HD
BRANCH  19  21
HETATM   21  C   UNL     1     -45.230  59.742 -59.188  1.00  0.00     0.187 C 
BRANCH  21  22
HETATM   22  C   UNL     1     -43.929  59.921 -59.868  1.00  0.00     0.070 A 
HETATM   23  O   UNL     1     -43.262  61.085 -59.614  1.00  0.00    -0.325 OA
HETATM   24  C   UNL     1     -42.101  61.036 -60.319  1.00  0.00     0.142 A 
HETATM   25  C   UNL     1     -42.022  59.865 -61.035  1.00  0.00     0.027 A 
HETATM   26  C   UNL     1     -43.204  59.142 -60.746  1.00  0.00     0.036 A 
ENDBRANCH  21  22
ENDBRANCH  19  21
ENDBRANCH  17  19
ENDBRANCH  15  17
ENDBRANCH  12  15
ENDBRANCH   7  11
BRANCH   1  27
HETATM   27  C   UNL     1     -42.455  54.301 -53.680  1.00  0.00    -0.035 A 
HETATM   28  C   UNL     1     -41.732  53.594 -54.655  1.00  0.00     0.012 A 
HETATM   29  C   UNL     1     -40.686  52.737 -54.298  1.00  0.00     0.037 A 
HETATM   30  C   UNL     1     -40.333  52.561 -52.962  1.00  0.00     0.068 A 
HETATM   31  C   UNL     1     -41.060  53.226 -51.978  1.00  0.00     0.037 A 
HETATM   32  C   UNL     1     -42.114  54.080 -52.333  1.00  0.00     0.012 A 
BRANCH  30  33
HETATM   33  O   UNL     1     -39.285  51.710 -52.751  1.00  0.00    -0.356 OA
HETATM   34  C   UNL     1     -39.439  50.760 -51.703  1.00  0.00     0.210 C 
ENDBRANCH  30  33
ENDBRANCH   1  27
BRANCH   8  35
HETATM   35  C   UNL     1     -41.199  57.476 -53.369  1.00  0.00     0.409 C 
HETATM   36  F   UNL     1     -40.453  56.584 -54.043  1.00  0.00    -0.169 F 
HETATM   37  F   UNL     1     -40.531  58.655 -53.382  1.00  0.00    -0.169 F 
HETATM   38  F   UNL     1     -41.220  57.077 -52.069  1.00  0.00    -0.169 F 
ENDBRANCH   8  35
TORSDOF 9
ENDMDL
MODEL 3
REMARK VINA RESULT:      -8.0      3.015      3.820
REMARK  9 active torsions:
REMARK  status: ('A' for Active; 'I' for Inactive)
REMARK    1  A    between atoms: O_2  and  C_3 
REMARK    2  A    between atoms: C_6  and  C_7 
REMARK    3  A    between atoms: C_13  and  C_14 
REMARK       I    between atoms: C_14  and  N_15 
REMARK    4  A    between atoms: N_15  and  N_16 
REMARK    5  A    between atoms: N_16  and  C_17 
REMARK    6  A    between atoms: C_17  and  N_18 
REMARK    7  A    between atoms: N_18  and  C_19 
REMARK    8  A    between atoms: C_19  and  C_20 
REMARK    9  A    between atoms: C_27  and  C_28 
ROOT
HETATM    1  C   UNL     1     -43.594  55.217 -53.985  1.00  0.00     0.118 C 
HETATM    2  N   UNL     1     -43.752  55.458 -55.414  1.00  0.00    -0.365 N 
HETATM    3  C   UNL     1     -43.185  56.521 -56.033  1.00  0.00     0.138 A 
HETATM    4  N   UNL     1     -42.653  57.555 -55.313  1.00  0.00    -0.240 N 
HETATM    5  N   UNL     1     -42.248  58.588 -56.072  1.00  0.00    -0.181 NA
HETATM    6  C   UNL     1     -42.443  58.136 -57.317  1.00  0.00     0.160 A 
HETATM    7  C   UNL     1     -43.006  56.838 -57.366  1.00  0.00     0.098 A 
HETATM    8  C   UNL     1     -42.607  57.607 -53.866  1.00  0.00     0.221 C 
HETATM    9  C   UNL     1     -43.579  56.576 -53.255  1.00  0.00     0.066 C 
HETATM   10  H   UNL     1     -44.080  54.666 -55.971  1.00  0.00     0.161 HD
ENDROOT
BRANCH   7  11
HETATM   11  C   UNL     1     -43.399  56.011 -58.493  1.00  0.00     0.275 C 
HETATM   12  N   UNL     1     -44.744  55.871 -58.806  1.00  0.00    -0.263 N 
HETATM   13  H   UNL     1     -44.859  55.388 -59.695  1.00  0.00     0.190 HD
HETATM   14  O   UNL     1     -42.574  55.406 -59.179  1.00  0.00    -0.266 OA
BRANCH  12  15
HETATM   15  N   UNL     1     -45.679  56.904 -58.593  1.00  0.00    -0.274 N 
HETATM   16  H   UNL     1     -46.254  56.849 -57.757  1.00  0.00     0.189 HD
BRANCH  15  17
HETATM   17  C   UNL     1     -45.916  57.865 -59.545  1.00  0.00     0.186 C 
HETATM   18  S   UNL     1     -45.788  59.516 -59.314  1.00  0.00    -0.040 SA
BRANCH  17  19
HETATM   19  N   UNL     1     -46.254  57.424 -60.789  1.00  0.00    -0.360 N 
HETATM   20  H   UNL     1     -45.484  57.421 -61.448  1.00  0.00     0.162 HD
BRANCH  19  21
HETATM   21  C   UNL     1     -47.476  56.764 -61.208  1.00  0.00     0.187 C 
BRANCH  21  22
HETATM   22  C   UNL     1     -48.331  57.720 -61.945  1.00  0.00     0.070 A 
HETATM   23  O   UNL     1     -49.494  57.226 -62.461  1.00  0.00    -0.325 OA
HETATM   24  C   UNL     1     -50.123  58.261 -63.078  1.00  0.00     0.142 A 
HETATM   25  C   UNL     1     -49.371  59.408 -62.979  1.00  0.00     0.027 A 
HETATM   26  C   UNL     1     -48.211  59.060 -62.248  1.00  0.00     0.036 A 
ENDBRANCH  21  22
ENDBRANCH  19  21
ENDBRANCH  17  19
ENDBRANCH  15  17
ENDBRANCH  12  15
ENDBRANCH   7  11
BRANCH   1  27
HETATM   27  C   UNL     1     -42.437  54.285 -53.664  1.00  0.00    -0.035 A 
HETATM   28  C   UNL     1     -42.006  54.037 -52.351  1.00  0.00     0.012 A 
HETATM   29  C   UNL     1     -40.932  53.178 -52.093  1.00  0.00     0.037 A 
HETATM   30  C   UNL     1     -40.259  52.546 -53.136  1.00  0.00     0.068 A 
HETATM   31  C   UNL     1     -40.649  52.806 -54.448  1.00  0.00     0.037 A 
HETATM   32  C   UNL     1     -41.720  53.672 -54.708  1.00  0.00     0.012 A 
BRANCH  30  33
HETATM   33  O   UNL     1     -39.240  51.722 -52.748  1.00  0.00    -0.356 OA
HETATM   34  C   UNL     1     -39.512  50.844 -51.662  1.00  0.00     0.210 C 
ENDBRANCH  30  33
ENDBRANCH   1  27
BRANCH   8  35
HETATM   35  C   UNL     1     -41.181  57.464 -53.382  1.00  0.00     0.409 C 
HETATM   36  F   UNL     1     -41.068  57.044 -52.110  1.00  0.00    -0.169 F 
HETATM   37  F   UNL     1     -40.468  56.611 -54.156  1.00  0.00    -0.169 F 
HETATM   38  F   UNL     1     -40.541  58.662 -53.465  1.00  0.00    -0.169 F 
ENDBRANCH   8  35
TORSDOF 9
ENDMDL
MODEL 4
REMARK VINA RESULT:      -7.9      2.359      3.958
REMARK  9 active torsions:
REMARK  status: ('A' for Active; 'I' for Inactive)
REMARK    1  A    between atoms: O_2  and  C_3 
REMARK    2  A    between atoms: C_6  and  C_7 
REMARK    3  A    between atoms: C_13  and  C_14 
REMARK       I    between atoms: C_14  and  N_15 
REMARK    4  A    between atoms: N_15  and  N_16 
REMARK    5  A    between atoms: N_16  and  C_17 
REMARK    6  A    between atoms: C_17  and  N_18 
REMARK    7  A    between atoms: N_18  and  C_19 
REMARK    8  A    between atoms: C_19  and  C_20 
REMARK    9  A    between atoms: C_27  and  C_28 
ROOT
HETATM    1  C   UNL     1     -43.534  55.340 -53.986  1.00  0.00     0.118 C 
HETATM    2  N   UNL     1     -43.701  55.614 -55.408  1.00  0.00    -0.365 N 
HETATM    3  C   UNL     1     -43.098  56.664 -56.016  1.00  0.00     0.138 A 
HETATM    4  N   UNL     1     -42.514  57.661 -55.285  1.00  0.00    -0.240 N 
HETATM    5  N   UNL     1     -42.076  58.690 -56.030  1.00  0.00    -0.181 NA
HETATM    6  C   UNL     1     -42.306  58.271 -57.280  1.00  0.00     0.160 A 
HETATM    7  C   UNL     1     -42.923  56.998 -57.345  1.00  0.00     0.098 A 
HETATM    8  C   UNL     1     -42.447  57.684 -53.837  1.00  0.00     0.221 C 
HETATM    9  C   UNL     1     -43.453  56.683 -53.232  1.00  0.00     0.066 C 
HETATM   10  H   UNL     1     -44.069  54.847 -55.976  1.00  0.00     0.161 HD
ENDROOT
BRANCH   7  11
HETATM   11  C   UNL     1     -43.365  56.210 -58.481  1.00  0.00     0.275 C 
HETATM   12  N   UNL     1     -44.722  56.075 -58.738  1.00  0.00    -0.263 N 
HETATM   13  H   UNL     1     -44.876  55.623 -59.637  1.00  0.00     0.190 HD
HETATM   14  O   UNL     1     -42.570  55.633 -59.226  1.00  0.00    -0.266 OA
BRANCH  12  15
HETATM   15  N   UNL     1     -45.650  57.096 -58.446  1.00  0.00    -0.274 N 
HETATM   16  H   UNL     1     -46.199  56.999 -57.597  1.00  0.00     0.189 HD
BRANCH  15  17
HETATM   17  C   UNL     1     -45.915  58.102 -59.342  1.00  0.00     0.186 C 
HETATM   18  S   UNL     1     -47.036  58.033 -60.580  1.00  0.00    -0.040 SA
BRANCH  17  19
HETATM   19  N   UNL     1     -45.220  59.263 -59.181  1.00  0.00    -0.360 N 
HETATM   20  H   UNL     1     -44.345  59.294 -59.690  1.00  0.00     0.162 HD
BRANCH  19  21
HETATM   21  C   UNL     1     -45.672  60.505 -58.580  1.00  0.00     0.187 C 
BRANCH  21  22
HETATM   22  C   UNL     1     -45.347  60.508 -57.137  1.00  0.00     0.070 A 
HETATM   23  O   UNL     1     -45.801  59.448 -56.407  1.00  0.00    -0.325 OA
HETATM   24  C   UNL     1     -45.385  59.644 -55.128  1.00  0.00     0.142 A 
HETATM   25  C   UNL     1     -44.685  60.823 -55.025  1.00  0.00     0.027 A 
HETATM   26  C   UNL     1     -44.660  61.385 -56.323  1.00  0.00     0.036 A 
ENDBRANCH  21  22
ENDBRANCH  19  21
ENDBRANCH  17  19
ENDBRANCH  15  17
ENDBRANCH  12  15
ENDBRANCH   7  11
BRANCH   1  27
HETATM   27  C   UNL     1     -42.412  54.355 -53.699  1.00  0.00    -0.035 A 
HETATM   28  C   UNL     1     -41.740  53.655 -54.714  1.00  0.00     0.012 A 
HETATM   29  C   UNL     1     -40.716  52.751 -54.412  1.00  0.00     0.037 A 
HETATM   30  C   UNL     1     -40.336  52.520 -53.092  1.00  0.00     0.068 A 
HETATM   31  C   UNL     1     -41.014  53.178 -52.068  1.00  0.00     0.037 A 
HETATM   32  C   UNL     1     -42.045  54.079 -52.369  1.00  0.00     0.012 A 
BRANCH  30  33
HETATM   33  O   UNL     1     -39.314  51.626 -52.936  1.00  0.00    -0.356 OA
HETATM   34  C   UNL     1     -39.461  50.670 -51.893  1.00  0.00     0.210 C 
ENDBRANCH  30  33
ENDBRANCH   1  27
BRANCH   8  35
HETATM   35  C   UNL     1     -41.022  57.473 -53.376  1.00  0.00     0.409 C 
HETATM   36  F   UNL     1     -40.910  57.017 -52.117  1.00  0.00    -0.169 F 
HETATM   37  F   UNL     1     -40.353  56.612 -54.180  1.00  0.00    -0.169 F 
HETATM   38  F   UNL     1     -40.337  58.647 -53.438  1.00  0.00    -0.169 F 
ENDBRANCH   8  35
TORSDOF 9
ENDMDL
MODEL 5
REMARK VINA RESULT:      -7.9      3.707      5.377
REMARK  9 active torsions:
REMARK  status: ('A' for Active; 'I' for Inactive)
REMARK    1  A    between atoms: O_2  and  C_3 
REMARK    2  A    between atoms: C_6  and  C_7 
REMARK    3  A    between atoms: C_13  and  C_14 
REMARK       I    between atoms: C_14  and  N_15 
REMARK    4  A    between atoms: N_15  and  N_16 
REMARK    5  A    between atoms: N_16  and  C_17 
REMARK    6  A    between atoms: C_17  and  N_18 
REMARK    7  A    between atoms: N_18  and  C_19 
REMARK    8  A    between atoms: C_19  and  C_20 
REMARK    9  A    between atoms: C_27  and  C_28 
ROOT
HETATM    1  C   UNL     1     -40.638  55.691 -54.371  1.00  0.00     0.118 C 
HETATM    2  N   UNL     1     -40.819  56.681 -53.317  1.00  0.00    -0.365 N 
HETATM    3  C   UNL     1     -42.044  57.018 -52.846  1.00  0.00     0.138 A 
HETATM    4  N   UNL     1     -43.181  56.641 -53.506  1.00  0.00    -0.240 N 
HETATM    5  N   UNL     1     -44.304  57.163 -52.985  1.00  0.00    -0.181 NA
HETATM    6  C   UNL     1     -43.858  57.807 -51.900  1.00  0.00     0.160 A 
HETATM    7  C   UNL     1     -42.452  57.738 -51.739  1.00  0.00     0.098 A 
HETATM    8  C   UNL     1     -43.200  55.840 -54.713  1.00  0.00     0.221 C 
HETATM    9  C   UNL     1     -41.805  55.818 -55.372  1.00  0.00     0.066 C 
HETATM   10  H   UNL     1     -39.987  56.915 -52.770  1.00  0.00     0.161 HD
ENDROOT
BRANCH   7  11
HETATM   11  C   UNL     1     -41.578  58.316 -50.736  1.00  0.00     0.275 C 
HETATM   12  N   UNL     1     -41.828  59.596 -50.262  1.00  0.00    -0.263 N 
HETATM   13  H   UNL     1     -41.228  59.810 -49.468  1.00  0.00     0.190 HD
HETATM   14  O   UNL     1     -40.598  57.711 -50.296  1.00  0.00    -0.266 OA
BRANCH  12  15
HETATM   15  N   UNL     1     -43.133  60.117 -50.148  1.00  0.00    -0.274 N 
HETATM   16  H   UNL     1     -43.858  59.489 -49.814  1.00  0.00     0.189 HD
BRANCH  15  17
HETATM   17  C   UNL     1     -43.449  61.370 -50.611  1.00  0.00     0.186 C 
HETATM   18  S   UNL     1     -43.988  62.646 -49.675  1.00  0.00    -0.040 SA
BRANCH  17  19
HETATM   19  N   UNL     1     -43.274  61.592 -51.944  1.00  0.00    -0.360 N 
HETATM   20  H   UNL     1     -42.321  61.818 -52.203  1.00  0.00     0.162 HD
BRANCH  19  21
HETATM   21  C   UNL     1     -44.201  61.327 -53.028  1.00  0.00     0.187 C 
BRANCH  21  22
HETATM   22  C   UNL     1     -43.511  60.579 -54.102  1.00  0.00     0.070 A 
HETATM   23  O   UNL     1     -44.305  59.998 -55.048  1.00  0.00    -0.325 OA
HETATM   24  C   UNL     1     -43.477  59.384 -55.934  1.00  0.00     0.142 A 
HETATM   25  C   UNL     1     -42.165  59.549 -55.560  1.00  0.00     0.027 A 
HETATM   26  C   UNL     1     -42.184  60.321 -54.375  1.00  0.00     0.036 A 
ENDBRANCH  21  22
ENDBRANCH  19  21
ENDBRANCH  17  19
ENDBRANCH  15  17
ENDBRANCH  12  15
ENDBRANCH   7  11
BRANCH   1  27
HETATM   27  C   UNL     1     -40.383  54.292 -53.834  1.00  0.00    -0.035 A 
HETATM   28  C   UNL     1     -40.200  53.180 -54.672  1.00  0.00     0.012 A 
HETATM   29  C   UNL     1     -39.973  51.906 -54.143  1.00  0.00     0.037 A 
HETATM   30  C   UNL     1     -39.924  51.704 -52.766  1.00  0.00     0.068 A 
HETATM   31  C   UNL     1     -40.138  52.788 -51.916  1.00  0.00     0.037 A 
HETATM   32  C   UNL     1     -40.372  54.065 -52.446  1.00  0.00     0.012 A 
BRANCH  30  33
HETATM   33  O   UNL     1     -39.681  50.416 -52.380  1.00  0.00    -0.356 OA
HETATM   34  C   UNL     1     -39.607  50.175 -50.981  1.00  0.00     0.210 C 
ENDBRANCH  30  33
ENDBRANCH   1  27
BRANCH   8  35
HETATM   35  C   UNL     1     -43.757  54.465 -54.419  1.00  0.00     0.409 C 
HETATM   36  F   UNL     1     -43.376  53.955 -53.234  1.00  0.00    -0.169 F 
HETATM   37  F   UNL     1     -45.111  54.451 -54.449  1.00  0.00    -0.169 F 
HETATM   38  F   UNL     1     -43.356  53.587 -55.378  1.00  0.00    -0.169 F 
ENDBRANCH   8  35
TORSDOF 9
ENDMDL
MODEL 6
REMARK VINA RESULT:      -7.5      4.241      7.552
REMARK  9 active torsions:
REMARK  status: ('A' for Active; 'I' for Inactive)
REMARK    1  A    between atoms: O_2  and  C_3 
REMARK    2  A    between atoms: C_6  and  C_7 
REMARK    3  A    between atoms: C_13  and  C_14 
REMARK       I    between atoms: C_14  and  N_15 
REMARK    4  A    between atoms: N_15  and  N_16 
REMARK    5  A    between atoms: N_16  and  C_17 
REMARK    6  A    between atoms: C_17  and  N_18 
REMARK    7  A    between atoms: N_18  and  C_19 
REMARK    8  A    between atoms: C_19  and  C_20 
REMARK    9  A    between atoms: C_27  and  C_28 
ROOT
HETATM    1  C   UNL     1     -40.659  55.803 -54.434  1.00  0.00     0.118 C 
HETATM    2  N   UNL     1     -40.829  56.843 -53.427  1.00  0.00    -0.365 N 
HETATM    3  C   UNL     1     -42.050  57.210 -52.968  1.00  0.00     0.138 A 
HETATM    4  N   UNL     1     -43.192  56.809 -53.604  1.00  0.00    -0.240 N 
HETATM    5  N   UNL     1     -44.310  57.362 -53.103  1.00  0.00    -0.181 NA
HETATM    6  C   UNL     1     -43.855  58.053 -52.051  1.00  0.00     0.160 A 
HETATM    7  C   UNL     1     -42.449  57.983 -51.894  1.00  0.00     0.098 A 
HETATM    8  C   UNL     1     -43.221  55.952 -54.772  1.00  0.00     0.221 C 
HETATM    9  C   UNL     1     -41.830  55.890 -55.435  1.00  0.00     0.066 C 
HETATM   10  H   UNL     1     -39.993  57.098 -52.895  1.00  0.00     0.161 HD
ENDROOT
BRANCH   7  11
HETATM   11  C   UNL     1     -41.566  58.603 -50.923  1.00  0.00     0.275 C 
HETATM   12  N   UNL     1     -41.963  59.765 -50.276  1.00  0.00    -0.263 N 
HETATM   13  H   UNL     1     -41.316  60.001 -49.527  1.00  0.00     0.190 HD
HETATM   14  O   UNL     1     -40.455  58.139 -50.660  1.00  0.00    -0.266 OA
BRANCH  12  15
HETATM   15  N   UNL     1     -43.313  60.033 -49.969  1.00  0.00    -0.274 N 
HETATM   16  H   UNL     1     -43.899  59.244 -49.712  1.00  0.00     0.189 HD
BRANCH  15  17
HETATM   17  C   UNL     1     -43.857  61.280 -50.154  1.00  0.00     0.186 C 
HETATM   18  S   UNL     1     -42.994  62.691 -50.399  1.00  0.00    -0.040 SA
BRANCH  17  19
HETATM   19  N   UNL     1     -45.217  61.359 -50.168  1.00  0.00    -0.360 N 
HETATM   20  H   UNL     1     -45.661  60.702 -50.799  1.00  0.00     0.162 HD
BRANCH  19  21
HETATM   21  C   UNL     1     -46.085  62.079 -49.255  1.00  0.00     0.187 C 
BRANCH  21  22
HETATM   22  C   UNL     1     -45.756  61.713 -47.861  1.00  0.00     0.070 A 
HETATM   23  O   UNL     1     -45.314  62.721 -47.053  1.00  0.00    -0.325 OA
HETATM   24  C   UNL     1     -45.087  62.174 -45.829  1.00  0.00     0.142 A 
HETATM   25  C   UNL     1     -45.361  60.827 -45.846  1.00  0.00     0.027 A 
HETATM   26  C   UNL     1     -45.794  60.526 -47.159  1.00  0.00     0.036 A 
ENDBRANCH  21  22
ENDBRANCH  19  21
ENDBRANCH  17  19
ENDBRANCH  15  17
ENDBRANCH  12  15
ENDBRANCH   7  11
BRANCH   1  27
HETATM   27  C   UNL     1     -40.409  54.429 -53.832  1.00  0.00    -0.035 A 
HETATM   28  C   UNL     1     -40.400  54.200 -52.447  1.00  0.00     0.012 A 
HETATM   29  C   UNL     1     -40.161  52.923 -51.929  1.00  0.00     0.037 A 
HETATM   30  C   UNL     1     -39.923  51.843 -52.775  1.00  0.00     0.068 A 
HETATM   31  C   UNL     1     -39.893  52.057 -54.151  1.00  0.00     0.037 A 
HETATM   32  C   UNL     1     -40.126  53.337 -54.672  1.00  0.00     0.012 A 
BRANCH  30  33
HETATM   33  O   UNL     1     -39.719  50.649 -52.142  1.00  0.00    -0.356 OA
HETATM   34  C   UNL     1     -39.918  50.635 -50.734  1.00  0.00     0.210 C 
ENDBRANCH  30  33
ENDBRANCH   1  27
BRANCH   8  35
HETATM   35  C   UNL     1     -43.785  54.596 -54.410  1.00  0.00     0.409 C 
HETATM   36  F   UNL     1     -43.382  53.596 -55.214  1.00  0.00    -0.169 F 
HETATM   37  F   UNL     1     -43.478  54.242 -53.139  1.00  0.00    -0.169 F 
HETATM   38  F   UNL     1     -45.145  54.630 -54.467  1.00  0.00    -0.169 F 
ENDBRANCH   8  35
TORSDOF 9
ENDMDL
MODEL 7
REMARK VINA RESULT:      -7.5      3.079      4.304
REMARK  9 active torsions:
REMARK  status: ('A' for Active; 'I' for Inactive)
REMARK    1  A    between atoms: O_2  and  C_3 
REMARK    2  A    between atoms: C_6  and  C_7 
REMARK    3  A    between atoms: C_13  and  C_14 
REMARK       I    between atoms: C_14  and  N_15 
REMARK    4  A    between atoms: N_15  and  N_16 
REMARK    5  A    between atoms: N_16  and  C_17 
REMARK    6  A    between atoms: C_17  and  N_18 
REMARK    7  A    between atoms: N_18  and  C_19 
REMARK    8  A    between atoms: C_19  and  C_20 
REMARK    9  A    between atoms: C_27  and  C_28 
ROOT
HETATM    1  C   UNL     1     -43.540  55.206 -53.905  1.00  0.00     0.118 C 
HETATM    2  N   UNL     1     -43.711  55.499 -55.323  1.00  0.00    -0.365 N 
HETATM    3  C   UNL     1     -43.140  56.578 -55.911  1.00  0.00     0.138 A 
HETATM    4  N   UNL     1     -42.590  57.580 -55.161  1.00  0.00    -0.240 N 
HETATM    5  N   UNL     1     -42.183  58.635 -55.888  1.00  0.00    -0.181 NA
HETATM    6  C   UNL     1     -42.395  58.230 -57.145  1.00  0.00     0.160 A 
HETATM    7  C   UNL     1     -42.973  56.940 -57.234  1.00  0.00     0.098 A 
HETATM    8  C   UNL     1     -42.528  57.581 -53.713  1.00  0.00     0.221 C 
HETATM    9  C   UNL     1     -43.503  56.538 -53.128  1.00  0.00     0.066 C 
HETATM   10  H   UNL     1     -44.054  54.731 -55.905  1.00  0.00     0.161 HD
ENDROOT
BRANCH   7  11
HETATM   11  C   UNL     1     -43.386  56.157 -58.384  1.00  0.00     0.275 C 
HETATM   12  N   UNL     1     -44.736  56.043 -58.688  1.00  0.00    -0.263 N 
HETATM   13  H   UNL     1     -44.865  55.592 -59.592  1.00  0.00     0.190 HD
HETATM   14  O   UNL     1     -42.574  55.568 -59.101  1.00  0.00    -0.266 OA
BRANCH  12  15
HETATM   15  N   UNL     1     -45.658  57.077 -58.429  1.00  0.00    -0.274 N 
HETATM   16  H   UNL     1     -45.691  57.446 -57.483  1.00  0.00     0.189 HD
BRANCH  15  17
HETATM   17  C   UNL     1     -46.578  57.470 -59.369  1.00  0.00     0.186 C 
HETATM   18  S   UNL     1     -47.205  56.503 -60.580  1.00  0.00    -0.040 SA
BRANCH  17  19
HETATM   19  N   UNL     1     -47.037  58.749 -59.279  1.00  0.00    -0.360 N 
HETATM   20  H   UNL     1     -47.900  58.914 -59.784  1.00  0.00     0.162 HD
BRANCH  19  21
HETATM   21  C   UNL     1     -46.586  59.806 -58.393  1.00  0.00     0.187 C 
BRANCH  21  22
HETATM   22  C   UNL     1     -47.753  60.529 -57.844  1.00  0.00     0.070 A 
HETATM   23  O   UNL     1     -47.485  61.589 -57.025  1.00  0.00    -0.325 OA
HETATM   24  C   UNL     1     -48.684  62.109 -56.649  1.00  0.00     0.142 A 
HETATM   25  C   UNL     1     -49.715  61.387 -57.201  1.00  0.00     0.027 A 
HETATM   26  C   UNL     1     -49.117  60.364 -57.973  1.00  0.00     0.036 A 
ENDBRANCH  21  22
ENDBRANCH  19  21
ENDBRANCH  17  19
ENDBRANCH  15  17
ENDBRANCH  12  15
ENDBRANCH   7  11
BRANCH   1  27
HETATM   27  C   UNL     1     -42.389  54.252 -53.631  1.00  0.00    -0.035 A 
HETATM   28  C   UNL     1     -41.967  53.929 -52.331  1.00  0.00     0.012 A 
HETATM   29  C   UNL     1     -40.899  53.052 -52.116  1.00  0.00     0.037 A 
HETATM   30  C   UNL     1     -40.222  52.476 -53.188  1.00  0.00     0.068 A 
HETATM   31  C   UNL     1     -40.603  52.812 -54.486  1.00  0.00     0.037 A 
HETATM   32  C   UNL     1     -41.669  53.696 -54.703  1.00  0.00     0.012 A 
BRANCH  30  33
HETATM   33  O   UNL     1     -39.210  51.627 -52.841  1.00  0.00    -0.356 OA
HETATM   34  C   UNL     1     -39.583  50.296 -52.505  1.00  0.00     0.210 C 
ENDBRANCH  30  33
ENDBRANCH   1  27
BRANCH   8  35
HETATM   35  C   UNL     1     -41.098  57.407 -53.251  1.00  0.00     0.409 C 
HETATM   36  F   UNL     1     -40.975  56.909 -52.009  1.00  0.00    -0.169 F 
HETATM   37  F   UNL     1     -40.393  56.602 -54.082  1.00  0.00    -0.169 F 
HETATM   38  F   UNL     1     -40.457  58.607 -53.265  1.00  0.00    -0.169 F 
ENDBRANCH   8  35
TORSDOF 9
ENDMDL
MODEL 8
REMARK VINA RESULT:      -7.4      2.833      4.163
REMARK  9 active torsions:
REMARK  status: ('A' for Active; 'I' for Inactive)
REMARK    1  A    between atoms: O_2  and  C_3 
REMARK    2  A    between atoms: C_6  and  C_7 
REMARK    3  A    between atoms: C_13  and  C_14 
REMARK       I    between atoms: C_14  and  N_15 
REMARK    4  A    between atoms: N_15  and  N_16 
REMARK    5  A    between atoms: N_16  and  C_17 
REMARK    6  A    between atoms: C_17  and  N_18 
REMARK    7  A    between atoms: N_18  and  C_19 
REMARK    8  A    between atoms: C_19  and  C_20 
REMARK    9  A    between atoms: C_27  and  C_28 
ROOT
HETATM    1  C   UNL     1     -43.525  55.169 -53.967  1.00  0.00     0.118 C 
HETATM    2  N   UNL     1     -43.648  55.463 -55.389  1.00  0.00    -0.365 N 
HETATM    3  C   UNL     1     -43.067  56.548 -55.954  1.00  0.00     0.138 A 
HETATM    4  N   UNL     1     -42.555  57.555 -55.183  1.00  0.00    -0.240 N 
HETATM    5  N   UNL     1     -42.132  58.616 -55.893  1.00  0.00    -0.181 NA
HETATM    6  C   UNL     1     -42.295  58.211 -57.158  1.00  0.00     0.160 A 
HETATM    7  C   UNL     1     -42.855  56.915 -57.270  1.00  0.00     0.098 A 
HETATM    8  C   UNL     1     -42.545  57.554 -53.734  1.00  0.00     0.221 C 
HETATM    9  C   UNL     1     -43.530  56.500 -53.186  1.00  0.00     0.066 C 
HETATM   10  H   UNL     1     -43.960  54.692 -55.984  1.00  0.00     0.161 HD
ENDROOT
BRANCH   7  11
HETATM   11  C   UNL     1     -43.219  56.131 -58.435  1.00  0.00     0.275 C 
HETATM   12  N   UNL     1     -43.198  56.718 -59.692  1.00  0.00    -0.263 N 
HETATM   13  H   UNL     1     -43.333  56.019 -60.420  1.00  0.00     0.190 HD
HETATM   14  O   UNL     1     -43.567  54.952 -58.348  1.00  0.00    -0.266 OA
BRANCH  12  15
HETATM   15  N   UNL     1     -42.279  57.730 -60.037  1.00  0.00    -0.274 N 
HETATM   16  H   UNL     1     -41.311  57.594 -59.763  1.00  0.00     0.189 HD
BRANCH  15  17
HETATM   17  C   UNL     1     -42.693  58.920 -60.583  1.00  0.00     0.186 C 
HETATM   18  S   UNL     1     -44.214  59.592 -60.413  1.00  0.00    -0.040 SA
BRANCH  17  19
HETATM   19  N   UNL     1     -41.768  59.620 -61.297  1.00  0.00    -0.360 N 
HETATM   20  H   UNL     1     -40.998  59.057 -61.639  1.00  0.00     0.162 HD
BRANCH  19  21
HETATM   21  C   UNL     1     -41.863  60.976 -61.807  1.00  0.00     0.187 C 
BRANCH  21  22
HETATM   22  C   UNL     1     -40.961  61.862 -61.040  1.00  0.00     0.070 A 
HETATM   23  O   UNL     1     -40.089  62.620 -61.765  1.00  0.00    -0.325 OA
HETATM   24  C   UNL     1     -39.375  63.360 -60.875  1.00  0.00     0.142 A 
HETATM   25  C   UNL     1     -39.767  63.073 -59.589  1.00  0.00     0.027 A 
HETATM   26  C   UNL     1     -40.792  62.104 -59.692  1.00  0.00     0.036 A 
ENDBRANCH  21  22
ENDBRANCH  19  21
ENDBRANCH  17  19
ENDBRANCH  15  17
ENDBRANCH  12  15
ENDBRANCH   7  11
BRANCH   1  27
HETATM   27  C   UNL     1     -42.374  54.227 -53.652  1.00  0.00    -0.035 A 
HETATM   28  C   UNL     1     -41.970  53.938 -52.339  1.00  0.00     0.012 A 
HETATM   29  C   UNL     1     -40.902  53.070 -52.087  1.00  0.00     0.037 A 
HETATM   30  C   UNL     1     -40.208  52.470 -53.134  1.00  0.00     0.068 A 
HETATM   31  C   UNL     1     -40.571  52.771 -54.445  1.00  0.00     0.037 A 
HETATM   32  C   UNL     1     -41.637  53.646 -54.700  1.00  0.00     0.012 A 
BRANCH  30  33
HETATM   33  O   UNL     1     -39.198  51.634 -52.752  1.00  0.00    -0.356 OA
HETATM   34  C   UNL     1     -39.577  50.328 -52.336  1.00  0.00     0.210 C 
ENDBRANCH  30  33
ENDBRANCH   1  27
BRANCH   8  35
HETATM   35  C   UNL     1     -41.132  57.394 -53.221  1.00  0.00     0.409 C 
HETATM   36  F   UNL     1     -40.429  58.539 -53.167  1.00  0.00    -0.169 F 
HETATM   37  F   UNL     1     -41.102  56.842 -51.984  1.00  0.00    -0.169 F 
HETATM   38  F   UNL     1     -40.441  56.540 -54.024  1.00  0.00    -0.169 F 
ENDBRANCH   8  35
TORSDOF 9
ENDMDL
MODEL 9
REMARK VINA RESULT:      -7.4      3.005      5.654
REMARK  9 active torsions:
REMARK  status: ('A' for Active; 'I' for Inactive)
REMARK    1  A    between atoms: O_2  and  C_3 
REMARK    2  A    between atoms: C_6  and  C_7 
REMARK    3  A    between atoms: C_13  and  C_14 
REMARK       I    between atoms: C_14  and  N_15 
REMARK    4  A    between atoms: N_15  and  N_16 
REMARK    5  A    between atoms: N_16  and  C_17 
REMARK    6  A    between atoms: C_17  and  N_18 
REMARK    7  A    between atoms: N_18  and  C_19 
REMARK    8  A    between atoms: C_19  and  C_20 
REMARK    9  A    between atoms: C_27  and  C_28 
ROOT
HETATM    1  C   UNL     1     -42.351  60.048 -52.768  1.00  0.00     0.118 C 
HETATM    2  N   UNL     1     -42.955  59.332 -53.885  1.00  0.00    -0.365 N 
HETATM    3  C   UNL     1     -42.849  57.989 -54.024  1.00  0.00     0.138 A 
HETATM    4  N   UNL     1     -41.962  57.271 -53.271  1.00  0.00    -0.240 N 
HETATM    5  N   UNL     1     -41.886  55.975 -53.619  1.00  0.00    -0.181 NA
HETATM    6  C   UNL     1     -42.836  55.862 -54.555  1.00  0.00     0.160 A 
HETATM    7  C   UNL     1     -43.495  57.082 -54.842  1.00  0.00     0.098 A 
HETATM    8  C   UNL     1     -41.098  57.841 -52.257  1.00  0.00     0.221 C 
HETATM    9  C   UNL     1     -41.009  59.373 -52.419  1.00  0.00     0.066 C 
HETATM   10  H   UNL     1     -43.674  59.838 -54.409  1.00  0.00     0.161 HD
ENDROOT
BRANCH   7  11
HETATM   11  C   UNL     1     -44.541  57.398 -55.797  1.00  0.00     0.275 C 
HETATM   12  N   UNL     1     -44.389  57.037 -57.128  1.00  0.00    -0.263 N 
HETATM   13  H   UNL     1     -45.252  57.191 -57.645  1.00  0.00     0.190 HD
HETATM   14  O   UNL     1     -45.566  58.000 -55.469  1.00  0.00    -0.266 OA
BRANCH  12  15
HETATM   15  N   UNL     1     -43.688  55.878 -57.520  1.00  0.00    -0.274 N 
HETATM   16  H   UNL     1     -43.298  55.298 -56.783  1.00  0.00     0.189 HD
BRANCH  15  17
HETATM   17  C   UNL     1     -43.410  55.619 -58.839  1.00  0.00     0.186 C 
HETATM   18  S   UNL     1     -44.402  54.788 -59.897  1.00  0.00    -0.040 SA
BRANCH  17  19
HETATM   19  N   UNL     1     -42.237  56.112 -59.326  1.00  0.00    -0.360 N 
HETATM   20  H   UNL     1     -41.438  55.509 -59.167  1.00  0.00     0.162 HD
BRANCH  19  21
HETATM   21  C   UNL     1     -42.037  57.242 -60.214  1.00  0.00     0.187 C 
BRANCH  21  22
HETATM   22  C   UNL     1     -42.024  58.497 -59.431  1.00  0.00     0.070 A 
HETATM   23  O   UNL     1     -41.898  58.370 -58.078  1.00  0.00    -0.325 OA
HETATM   24  C   UNL     1     -41.895  59.629 -57.563  1.00  0.00     0.142 A 
HETATM   25  C   UNL     1     -42.035  60.559 -58.566  1.00  0.00     0.027 A 
HETATM   26  C   UNL     1     -42.120  59.829 -59.775  1.00  0.00     0.036 A 
ENDBRANCH  21  22
ENDBRANCH  19  21
ENDBRANCH  17  19
ENDBRANCH  15  17
ENDBRANCH  12  15
ENDBRANCH   7  11
BRANCH   1  27
HETATM   27  C   UNL     1     -43.309  60.248 -51.604  1.00  0.00    -0.035 A 
HETATM   28  C   UNL     1     -44.585  59.664 -51.564  1.00  0.00     0.012 A 
HETATM   29  C   UNL     1     -45.442  59.875 -50.479  1.00  0.00     0.037 A 
HETATM   30  C   UNL     1     -45.052  60.675 -49.408  1.00  0.00     0.068 A 
HETATM   31  C   UNL     1     -43.804  61.292 -49.445  1.00  0.00     0.037 A 
HETATM   32  C   UNL     1     -42.946  61.087 -50.535  1.00  0.00     0.012 A 
BRANCH  30  33
HETATM   33  O   UNL     1     -45.975  60.787 -48.407  1.00  0.00    -0.356 OA
HETATM   34  C   UNL     1     -45.472  60.808 -47.077  1.00  0.00     0.210 C 
ENDBRANCH  30  33
ENDBRANCH   1  27
BRANCH   8  35
HETATM   35  C   UNL     1     -41.545  57.398 -50.881  1.00  0.00     0.409 C 
HETATM   36  F   UNL     1     -42.867  57.180 -50.772  1.00  0.00    -0.169 F 
HETATM   37  F   UNL     1     -40.914  56.266 -50.485  1.00  0.00    -0.169 F 
HETATM   38  F   UNL     1     -41.219  58.345 -49.961  1.00  0.00    -0.169 F 
ENDBRANCH   8  35
TORSDOF 9
ENDMDL
MODEL 10
REMARK VINA RESULT:      -7.3      3.550      7.669
REMARK  9 active torsions:
REMARK  status: ('A' for Active; 'I' for Inactive)
REMARK    1  A    between atoms: O_2  and  C_3 
REMARK    2  A    between atoms: C_6  and  C_7 
REMARK    3  A    between atoms: C_13  and  C_14 
REMARK       I    between atoms: C_14  and  N_15 
REMARK    4  A    between atoms: N_15  and  N_16 
REMARK    5  A    between atoms: N_16  and  C_17 
REMARK    6  A    between atoms: C_17  and  N_18 
REMARK    7  A    between atoms: N_18  and  C_19 
REMARK    8  A    between atoms: C_19  and  C_20 
REMARK    9  A    between atoms: C_27  and  C_28 
ROOT
HETATM    1  C   UNL     1     -43.693  54.568 -55.047  1.00  0.00     0.118 C 
HETATM    2  N   UNL     1     -43.943  54.874 -53.644  1.00  0.00    -0.365 N 
HETATM    3  C   UNL     1     -43.004  54.687 -52.686  1.00  0.00     0.138 A 
HETATM    4  N   UNL     1     -41.871  53.965 -52.942  1.00  0.00    -0.240 N 
HETATM    5  N   UNL     1     -41.105  53.761 -51.856  1.00  0.00    -0.181 NA
HETATM    6  C   UNL     1     -41.735  54.469 -50.911  1.00  0.00     0.160 A 
HETATM    7  C   UNL     1     -42.921  55.094 -51.368  1.00  0.00     0.098 A 
HETATM    8  C   UNL     1     -41.546  53.377 -54.226  1.00  0.00     0.221 C 
HETATM    9  C   UNL     1     -42.798  53.313 -55.126  1.00  0.00     0.066 C 
HETATM   10  H   UNL     1     -44.747  55.475 -53.450  1.00  0.00     0.161 HD
ENDROOT
BRANCH   7  11
HETATM   11  C   UNL     1     -43.899  55.909 -50.671  1.00  0.00     0.275 C 
HETATM   12  N   UNL     1     -43.705  57.279 -50.572  1.00  0.00    -0.263 N 
HETATM   13  H   UNL     1     -44.532  57.733 -50.189  1.00  0.00     0.190 HD
HETATM   14  O   UNL     1     -44.899  55.420 -50.141  1.00  0.00    -0.266 OA
BRANCH  12  15
HETATM   15  N   UNL     1     -43.060  58.025 -51.579  1.00  0.00    -0.274 N 
HETATM   16  H   UNL     1     -42.479  57.514 -52.237  1.00  0.00     0.189 HD
BRANCH  15  17
HETATM   17  C   UNL     1     -43.087  59.397 -51.584  1.00  0.00     0.186 C 
HETATM   18  S   UNL     1     -42.578  60.376 -52.840  1.00  0.00    -0.040 SA
BRANCH  17  19
HETATM   19  N   UNL     1     -43.604  60.004 -50.479  1.00  0.00    -0.360 N 
HETATM   20  H   UNL     1     -42.950  60.085 -49.710  1.00  0.00     0.162 HD
BRANCH  19  21
HETATM   21  C   UNL     1     -44.856  60.728 -50.354  1.00  0.00     0.187 C 
BRANCH  21  22
HETATM   22  C   UNL     1     -45.096  61.066 -48.934  1.00  0.00     0.070 A 
HETATM   23  O   UNL     1     -45.862  60.191 -48.220  1.00  0.00    -0.325 OA
HETATM   24  C   UNL     1     -45.944  60.681 -46.954  1.00  0.00     0.142 A 
HETATM   25  C   UNL     1     -45.255  61.866 -46.852  1.00  0.00     0.027 A 
HETATM   26  C   UNL     1     -44.707  62.119 -48.132  1.00  0.00     0.036 A 
ENDBRANCH  21  22
ENDBRANCH  19  21
ENDBRANCH  17  19
ENDBRANCH  15  17
ENDBRANCH  12  15
ENDBRANCH   7  11
BRANCH   1  27
HETATM   27  C   UNL     1     -43.209  55.771 -55.841  1.00  0.00    -0.035 A 
HETATM   28  C   UNL     1     -42.993  55.726 -57.228  1.00  0.00     0.012 A 
HETATM   29  C   UNL     1     -42.541  56.851 -57.925  1.00  0.00     0.037 A 
HETATM   30  C   UNL     1     -42.291  58.049 -57.260  1.00  0.00     0.068 A 
HETATM   31  C   UNL     1     -42.465  58.104 -55.879  1.00  0.00     0.037 A 
HETATM   32  C   UNL     1     -42.911  56.975 -55.177  1.00  0.00     0.012 A 
BRANCH  30  33
HETATM   33  O   UNL     1     -41.868  59.074 -58.058  1.00  0.00    -0.356 OA
HETATM   34  C   UNL     1     -41.810  60.363 -57.460  1.00  0.00     0.210 C 
ENDBRANCH  30  33
ENDBRANCH   1  27
BRANCH   8  35
HETATM   35  C   UNL     1     -40.379  54.105 -54.854  1.00  0.00     0.409 C 
HETATM   36  F   UNL     1     -40.424  54.169 -56.197  1.00  0.00    -0.169 F 
HETATM   37  F   UNL     1     -40.265  55.373 -54.392  1.00  0.00    -0.169 F 
HETATM   38  F   UNL     1     -39.214  53.484 -54.524  1.00  0.00    -0.169 F 
ENDBRANCH   8  35
TORSDOF 9
ENDMDL
