MODEL 1
REMARK VINA RESULT:      -8.3      0.000      0.000
REMARK  9 active torsions:
REMARK  status: ('A' for Active; 'I' for Inactive)
REMARK    1  A    between atoms: O_2  and  C_3 
REMARK    2  A    between atoms: C_3  and  C_4 
REMARK    3  A    between atoms: C_4  and  O_5 
REMARK    4  A    between atoms: O_5  and  C_6 
REMARK    5  A    between atoms: C_8  and  C_25 
REMARK    6  A    between atoms: C_11  and  C_12 
REMARK       I    between atoms: C_12  and  N_14 
REMARK    7  A    between atoms: N_14  and  C_15 
REMARK    8  A    between atoms: C_15  and  C_17 
REMARK    9  A    between atoms: C_21  and  O_22 
ROOT
HETATM    1  C   UNL     1     -41.375  54.683 -52.819  1.00  0.00     0.085 A 
HETATM    2  C   UNL     1     -40.993  53.374 -52.503  1.00  0.00     0.050 A 
HETATM    3  C   UNL     1     -40.346  52.568 -53.451  1.00  0.00    -0.020 A 
HETATM    4  C   UNL     1     -40.094  53.100 -54.724  1.00  0.00     0.013 A 
HETATM    5  C   UNL     1     -40.449  54.418 -55.030  1.00  0.00     0.021 A 
HETATM    6  C   UNL     1     -41.064  55.231 -54.069  1.00  0.00     0.065 A 
ENDROOT
BRANCH   6   7
HETATM    7  C   UNL     1     -41.312  56.650 -54.441  1.00  0.00     0.255 C 
HETATM    8  O   UNL     1     -40.784  57.551 -53.799  1.00  0.00    -0.268 OA
HETATM    9  N   UNL     1     -42.187  56.861 -55.482  1.00  0.00    -0.349 N 
HETATM   10  H   UNL     1     -42.486  56.060 -56.026  1.00  0.00     0.163 HD
BRANCH   9  11
HETATM   11  C   UNL     1     -42.501  58.186 -55.985  1.00  0.00     0.114 C 
HETATM   12  C   UNL     1     -43.813  58.681 -55.375  1.00  0.00     0.037 C 
BRANCH  11  13
HETATM   13  C   UNL     1     -42.506  58.167 -57.504  1.00  0.00    -0.033 A 
HETATM   14  C   UNL     1     -42.022  59.283 -58.204  1.00  0.00     0.009 A 
HETATM   15  C   UNL     1     -41.998  59.292 -59.598  1.00  0.00     0.003 A 
HETATM   16  C   UNL     1     -42.443  58.179 -60.307  1.00  0.00     0.037 A 
HETATM   17  C   UNL     1     -42.903  57.046 -59.633  1.00  0.00     0.068 A 
HETATM   18  C   UNL     1     -42.934  57.044 -58.236  1.00  0.00     0.046 A 
BRANCH  17  19
HETATM   19  O   UNL     1     -43.291  56.017 -60.448  1.00  0.00    -0.356 OA
HETATM   20  C   UNL     1     -44.061  54.982 -59.849  1.00  0.00     0.210 C 
ENDBRANCH  17  19
ENDBRANCH  11  13
ENDBRANCH   9  11
ENDBRANCH   6   7
BRANCH   1  21
HETATM   21  O   UNL     1     -42.007  55.392 -51.828  1.00  0.00    -0.348 OA
BRANCH  21  22
HETATM   22  C   UNL     1     -41.158  55.567 -50.673  1.00  0.00     0.201 C 
BRANCH  22  23
HETATM   23  C   UNL     1     -41.839  55.018 -49.421  1.00  0.00     0.193 C 
BRANCH  23  24
HETATM   24  O   UNL     1     -40.958  55.139 -48.299  1.00  0.00    -0.394 OA
HETATM   25  C   UNL     1     -40.277  53.919 -48.038  1.00  0.00     0.201 C 
ENDBRANCH  23  24
ENDBRANCH  22  23
ENDBRANCH  21  22
ENDBRANCH   1  21
BRANCH   3  26
HETATM   26  C   UNL     1     -39.924  51.222 -53.103  1.00  0.00     0.010 A 
HETATM   27  C   UNL     1     -39.764  50.066 -53.905  1.00  0.00     0.152 A 
HETATM   28  N   UNL     1     -39.359  49.002 -53.207  1.00  0.00    -0.187 NA
HETATM   29  N   UNL     1     -39.261  49.468 -51.953  1.00  0.00    -0.289 N 
HETATM   30  H   UNL     1     -38.968  48.827 -51.223  1.00  0.00     0.188 HD
HETATM   31  C   UNL     1     -39.584  50.790 -51.838  1.00  0.00     0.123 A 
ENDBRANCH   3  26
TORSDOF 9
ENDMDL
MODEL 2
REMARK VINA RESULT:      -8.0      1.226      1.766
REMARK  9 active torsions:
REMARK  status: ('A' for Active; 'I' for Inactive)
REMARK    1  A    between atoms: O_2  and  C_3 
REMARK    2  A    between atoms: C_3  and  C_4 
REMARK    3  A    between atoms: C_4  and  O_5 
REMARK    4  A    between atoms: O_5  and  C_6 
REMARK    5  A    between atoms: C_8  and  C_25 
REMARK    6  A    between atoms: C_11  and  C_12 
REMARK       I    between atoms: C_12  and  N_14 
REMARK    7  A    between atoms: N_14  and  C_15 
REMARK    8  A    between atoms: C_15  and  C_17 
REMARK    9  A    between atoms: C_21  and  O_22 
ROOT
HETATM    1  C   UNL     1     -41.249  54.761 -52.673  1.00  0.00     0.085 A 
HETATM    2  C   UNL     1     -40.880  53.446 -52.367  1.00  0.00     0.050 A 
HETATM    3  C   UNL     1     -40.331  52.610 -53.351  1.00  0.00    -0.020 A 
HETATM    4  C   UNL     1     -40.163  53.117 -54.647  1.00  0.00     0.013 A 
HETATM    5  C   UNL     1     -40.504  54.441 -54.945  1.00  0.00     0.021 A 
HETATM    6  C   UNL     1     -41.020  55.284 -53.952  1.00  0.00     0.065 A 
ENDROOT
BRANCH   6   7
HETATM    7  C   UNL     1     -41.256  56.705 -54.325  1.00  0.00     0.255 C 
HETATM    8  O   UNL     1     -40.708  57.601 -53.694  1.00  0.00    -0.268 OA
HETATM    9  N   UNL     1     -42.144  56.923 -55.353  1.00  0.00    -0.349 N 
HETATM   10  H   UNL     1     -42.461  56.124 -55.889  1.00  0.00     0.163 HD
BRANCH   9  11
HETATM   11  C   UNL     1     -42.449  58.250 -55.857  1.00  0.00     0.114 C 
HETATM   12  C   UNL     1     -43.763  58.750 -55.253  1.00  0.00     0.037 C 
BRANCH  11  13
HETATM   13  C   UNL     1     -42.446  58.233 -57.375  1.00  0.00    -0.033 A 
HETATM   14  C   UNL     1     -42.073  59.393 -58.071  1.00  0.00     0.009 A 
HETATM   15  C   UNL     1     -42.044  59.408 -59.465  1.00  0.00     0.003 A 
HETATM   16  C   UNL     1     -42.370  58.256 -60.178  1.00  0.00     0.037 A 
HETATM   17  C   UNL     1     -42.717  57.081 -59.508  1.00  0.00     0.068 A 
HETATM   18  C   UNL     1     -42.754  57.074 -58.111  1.00  0.00     0.046 A 
BRANCH  17  19
HETATM   19  O   UNL     1     -42.995  56.020 -60.325  1.00  0.00    -0.356 OA
HETATM   20  C   UNL     1     -44.366  55.676 -60.485  1.00  0.00     0.210 C 
ENDBRANCH  17  19
ENDBRANCH  11  13
ENDBRANCH   9  11
ENDBRANCH   6   7
BRANCH   1  21
HETATM   21  O   UNL     1     -41.782  55.501 -51.647  1.00  0.00    -0.348 OA
BRANCH  21  22
HETATM   22  C   UNL     1     -43.176  55.194 -51.436  1.00  0.00     0.201 C 
BRANCH  22  23
HETATM   23  C   UNL     1     -43.941  56.446 -51.011  1.00  0.00     0.193 C 
BRANCH  23  24
HETATM   24  O   UNL     1     -43.549  57.553 -51.830  1.00  0.00    -0.394 OA
HETATM   25  C   UNL     1     -44.172  58.759 -51.409  1.00  0.00     0.201 C 
ENDBRANCH  23  24
ENDBRANCH  22  23
ENDBRANCH  21  22
ENDBRANCH   1  21
BRANCH   3  26
HETATM   26  C   UNL     1     -39.921  51.256 -53.016  1.00  0.00     0.010 A 
HETATM   27  C   UNL     1     -39.782  50.103 -53.827  1.00  0.00     0.152 A 
HETATM   28  N   UNL     1     -39.382  49.031 -53.140  1.00  0.00    -0.187 NA
HETATM   29  N   UNL     1     -39.267  49.487 -51.884  1.00  0.00    -0.289 N 
HETATM   30  H   UNL     1     -38.974  48.838 -51.161  1.00  0.00     0.188 HD
HETATM   31  C   UNL     1     -39.573  50.812 -51.757  1.00  0.00     0.123 A 
ENDBRANCH   3  26
TORSDOF 9
ENDMDL
MODEL 3
REMARK VINA RESULT:      -7.7      2.005      4.493
REMARK  9 active torsions:
REMARK  status: ('A' for Active; 'I' for Inactive)
REMARK    1  A    between atoms: O_2  and  C_3 
REMARK    2  A    between atoms: C_3  and  C_4 
REMARK    3  A    between atoms: C_4  and  O_5 
REMARK    4  A    between atoms: O_5  and  C_6 
REMARK    5  A    between atoms: C_8  and  C_25 
REMARK    6  A    between atoms: C_11  and  C_12 
REMARK       I    between atoms: C_12  and  N_14 
REMARK    7  A    between atoms: N_14  and  C_15 
REMARK    8  A    between atoms: C_15  and  C_17 
REMARK    9  A    between atoms: C_21  and  O_22 
ROOT
HETATM    1  C   UNL     1     -40.907  54.677 -53.280  1.00  0.00     0.085 A 
HETATM    2  C   UNL     1     -40.511  53.346 -53.465  1.00  0.00     0.050 A 
HETATM    3  C   UNL     1     -40.219  52.527 -52.365  1.00  0.00    -0.020 A 
HETATM    4  C   UNL     1     -40.328  53.068 -51.077  1.00  0.00     0.013 A 
HETATM    5  C   UNL     1     -40.753  54.388 -50.890  1.00  0.00     0.021 A 
HETATM    6  C   UNL     1     -41.077  55.193 -51.990  1.00  0.00     0.065 A 
ENDROOT
BRANCH   6   7
HETATM    7  C   UNL     1     -41.621  56.548 -51.701  1.00  0.00     0.255 C 
HETATM    8  O   UNL     1     -40.995  57.316 -50.978  1.00  0.00    -0.268 OA
HETATM    9  N   UNL     1     -42.853  56.835 -52.240  1.00  0.00    -0.349 N 
HETATM   10  H   UNL     1     -43.243  56.187 -52.915  1.00  0.00     0.163 HD
BRANCH   9  11
HETATM   11  C   UNL     1     -43.498  58.126 -52.080  1.00  0.00     0.114 C 
HETATM   12  C   UNL     1     -44.842  57.956 -51.370  1.00  0.00     0.037 C 
BRANCH  11  13
HETATM   13  C   UNL     1     -43.606  58.814 -53.429  1.00  0.00    -0.033 A 
HETATM   14  C   UNL     1     -44.872  59.180 -53.911  1.00  0.00     0.009 A 
HETATM   15  C   UNL     1     -45.005  59.827 -55.139  1.00  0.00     0.003 A 
HETATM   16  C   UNL     1     -43.872  60.132 -55.889  1.00  0.00     0.037 A 
HETATM   17  C   UNL     1     -42.599  59.805 -55.418  1.00  0.00     0.068 A 
HETATM   18  C   UNL     1     -42.470  59.147 -54.191  1.00  0.00     0.046 A 
BRANCH  17  19
HETATM   19  O   UNL     1     -41.573  60.177 -56.242  1.00  0.00    -0.356 OA
HETATM   20  C   UNL     1     -41.872  60.289 -57.628  1.00  0.00     0.210 C 
ENDBRANCH  17  19
ENDBRANCH  11  13
ENDBRANCH   9  11
ENDBRANCH   6   7
BRANCH   1  21
HETATM   21  O   UNL     1     -41.166  55.401 -54.416  1.00  0.00    -0.348 OA
BRANCH  21  22
HETATM   22  C   UNL     1     -42.197  54.786 -55.218  1.00  0.00     0.201 C 
BRANCH  22  23
HETATM   23  C   UNL     1     -43.149  55.846 -55.769  1.00  0.00     0.193 C 
BRANCH  23  24
HETATM   24  O   UNL     1     -42.491  56.603 -56.791  1.00  0.00    -0.394 OA
HETATM   25  C   UNL     1     -43.244  56.616 -57.996  1.00  0.00     0.201 C 
ENDBRANCH  23  24
ENDBRANCH  22  23
ENDBRANCH  21  22
ENDBRANCH   1  21
BRANCH   3  26
HETATM   26  C   UNL     1     -39.840  51.138 -52.566  1.00  0.00     0.010 A 
HETATM   27  C   UNL     1     -39.670  50.388 -53.754  1.00  0.00     0.152 A 
HETATM   28  N   UNL     1     -39.317  49.121 -53.523  1.00  0.00    -0.187 NA
HETATM   29  N   UNL     1     -39.264  49.050 -52.184  1.00  0.00    -0.289 N 
HETATM   30  H   UNL     1     -39.016  48.162 -51.759  1.00  0.00     0.188 HD
HETATM   31  C   UNL     1     -39.564  50.229 -51.565  1.00  0.00     0.123 A 
ENDBRANCH   3  26
TORSDOF 9
ENDMDL
MODEL 4
REMARK VINA RESULT:      -7.7      1.447      2.281
REMARK  9 active torsions:
REMARK  status: ('A' for Active; 'I' for Inactive)
REMARK    1  A    between atoms: O_2  and  C_3 
REMARK    2  A    between atoms: C_3  and  C_4 
REMARK    3  A    between atoms: C_4  and  O_5 
REMARK    4  A    between atoms: O_5  and  C_6 
REMARK    5  A    between atoms: C_8  and  C_25 
REMARK    6  A    between atoms: C_11  and  C_12 
REMARK       I    between atoms: C_12  and  N_14 
REMARK    7  A    between atoms: N_14  and  C_15 
REMARK    8  A    between atoms: C_15  and  C_17 
REMARK    9  A    between atoms: C_21  and  O_22 
ROOT
HETATM    1  C   UNL     1     -41.758  54.540 -53.019  1.00  0.00     0.085 A 
HETATM    2  C   UNL     1     -41.301  53.284 -52.602  1.00  0.00     0.050 A 
HETATM    3  C   UNL     1     -40.472  52.513 -53.429  1.00  0.00    -0.020 A 
HETATM    4  C   UNL     1     -40.113  53.024 -54.684  1.00  0.00     0.013 A 
HETATM    5  C   UNL     1     -40.545  54.292 -55.089  1.00  0.00     0.021 A 
HETATM    6  C   UNL     1     -41.345  55.074 -54.246  1.00  0.00     0.065 A 
ENDROOT
BRANCH   6   7
HETATM    7  C   UNL     1     -41.672  56.450 -54.707  1.00  0.00     0.255 C 
HETATM    8  O   UNL     1     -41.065  57.410 -54.246  1.00  0.00    -0.268 OA
HETATM    9  N   UNL     1     -42.704  56.558 -55.610  1.00  0.00    -0.349 N 
HETATM   10  H   UNL     1     -43.073  55.708 -56.021  1.00  0.00     0.163 HD
BRANCH   9  11
HETATM   11  C   UNL     1     -43.116  57.828 -56.182  1.00  0.00     0.114 C 
HETATM   12  C   UNL     1     -44.606  58.060 -55.924  1.00  0.00     0.037 C 
BRANCH  11  13
HETATM   13  C   UNL     1     -42.739  57.873 -57.652  1.00  0.00    -0.033 A 
HETATM   14  C   UNL     1     -42.775  56.689 -58.405  1.00  0.00     0.009 A 
HETATM   15  C   UNL     1     -42.451  56.698 -59.760  1.00  0.00     0.003 A 
HETATM   16  C   UNL     1     -42.103  57.895 -60.383  1.00  0.00     0.037 A 
HETATM   17  C   UNL     1     -42.087  59.091 -59.662  1.00  0.00     0.068 A 
HETATM   18  C   UNL     1     -42.404  59.076 -58.302  1.00  0.00     0.046 A 
BRANCH  17  19
HETATM   19  O   UNL     1     -41.748  60.194 -60.397  1.00  0.00    -0.356 OA
HETATM   20  C   UNL     1     -41.569  61.410 -59.681  1.00  0.00     0.210 C 
ENDBRANCH  17  19
ENDBRANCH  11  13
ENDBRANCH   9  11
ENDBRANCH   6   7
BRANCH   1  21
HETATM   21  O   UNL     1     -42.569  55.218 -52.144  1.00  0.00    -0.348 OA
BRANCH  21  22
HETATM   22  C   UNL     1     -41.837  55.687 -50.991  1.00  0.00     0.201 C 
BRANCH  22  23
HETATM   23  C   UNL     1     -41.876  57.212 -50.917  1.00  0.00     0.193 C 
BRANCH  23  24
HETATM   24  O   UNL     1     -40.563  57.717 -50.653  1.00  0.00    -0.394 OA
HETATM   25  C   UNL     1     -40.461  59.098 -50.971  1.00  0.00     0.201 C 
ENDBRANCH  23  24
ENDBRANCH  22  23
ENDBRANCH  21  22
ENDBRANCH   1  21
BRANCH   3  26
HETATM   26  C   UNL     1     -39.976  51.225 -52.974  1.00  0.00     0.010 A 
HETATM   27  C   UNL     1     -39.803  50.002 -53.667  1.00  0.00     0.152 A 
HETATM   28  N   UNL     1     -39.320  49.029 -52.890  1.00  0.00    -0.187 NA
HETATM   29  N   UNL     1     -39.186  49.621 -51.693  1.00  0.00    -0.289 N 
HETATM   30  H   UNL     1     -38.833  49.066 -50.920  1.00  0.00     0.188 HD
HETATM   31  C   UNL     1     -39.561  50.934 -51.691  1.00  0.00     0.123 A 
ENDBRANCH   3  26
TORSDOF 9
ENDMDL
MODEL 5
REMARK VINA RESULT:      -7.6      1.680      2.057
REMARK  9 active torsions:
REMARK  status: ('A' for Active; 'I' for Inactive)
REMARK    1  A    between atoms: O_2  and  C_3 
REMARK    2  A    between atoms: C_3  and  C_4 
REMARK    3  A    between atoms: C_4  and  O_5 
REMARK    4  A    between atoms: O_5  and  C_6 
REMARK    5  A    between atoms: C_8  and  C_25 
REMARK    6  A    between atoms: C_11  and  C_12 
REMARK       I    between atoms: C_12  and  N_14 
REMARK    7  A    between atoms: N_14  and  C_15 
REMARK    8  A    between atoms: C_15  and  C_17 
REMARK    9  A    between atoms: C_21  and  O_22 
ROOT
HETATM    1  C   UNL     1     -42.280  54.462 -53.470  1.00  0.00     0.085 A 
HETATM    2  C   UNL     1     -41.736  53.207 -53.167  1.00  0.00     0.050 A 
HETATM    3  C   UNL     1     -40.673  52.687 -53.919  1.00  0.00    -0.020 A 
HETATM    4  C   UNL     1     -40.168  53.447 -54.984  1.00  0.00     0.013 A 
HETATM    5  C   UNL     1     -40.691  54.713 -55.268  1.00  0.00     0.021 A 
HETATM    6  C   UNL     1     -41.730  55.244 -54.493  1.00  0.00     0.065 A 
ENDROOT
BRANCH   6   7
HETATM    7  C   UNL     1     -42.156  56.638 -54.795  1.00  0.00     0.255 C 
HETATM    8  O   UNL     1     -41.394  57.572 -54.570  1.00  0.00    -0.268 OA
HETATM    9  N   UNL     1     -43.437  56.791 -55.271  1.00  0.00    -0.349 N 
HETATM   10  H   UNL     1     -43.955  55.959 -55.532  1.00  0.00     0.163 HD
BRANCH   9  11
HETATM   11  C   UNL     1     -43.985  58.082 -55.646  1.00  0.00     0.114 C 
HETATM   12  C   UNL     1     -44.715  58.708 -54.457  1.00  0.00     0.037 C 
BRANCH  11  13
HETATM   13  C   UNL     1     -44.855  57.929 -56.881  1.00  0.00    -0.033 A 
HETATM   14  C   UNL     1     -46.193  58.351 -56.833  1.00  0.00     0.009 A 
HETATM   15  C   UNL     1     -47.014  58.239 -57.954  1.00  0.00     0.003 A 
HETATM   16  C   UNL     1     -46.503  57.719 -59.141  1.00  0.00     0.037 A 
HETATM   17  C   UNL     1     -45.167  57.318 -59.222  1.00  0.00     0.068 A 
HETATM   18  C   UNL     1     -44.350  57.424 -58.094  1.00  0.00     0.046 A 
BRANCH  17  19
HETATM   19  O   UNL     1     -44.788  56.845 -60.449  1.00  0.00    -0.356 OA
HETATM   20  C   UNL     1     -45.019  55.465 -60.702  1.00  0.00     0.210 C 
ENDBRANCH  17  19
ENDBRANCH  11  13
ENDBRANCH   9  11
ENDBRANCH   6   7
BRANCH   1  21
HETATM   21  O   UNL     1     -43.321  54.884 -52.682  1.00  0.00    -0.348 OA
BRANCH  21  22
HETATM   22  C   UNL     1     -43.516  54.016 -51.545  1.00  0.00     0.201 C 
BRANCH  22  23
HETATM   23  C   UNL     1     -43.543  54.828 -50.252  1.00  0.00     0.193 C 
BRANCH  23  24
HETATM   24  O   UNL     1     -42.353  55.618 -50.152  1.00  0.00    -0.394 OA
HETATM   25  C   UNL     1     -41.353  54.960 -49.386  1.00  0.00     0.201 C 
ENDBRANCH  23  24
ENDBRANCH  22  23
ENDBRANCH  21  22
ENDBRANCH   1  21
BRANCH   3  26
HETATM   26  C   UNL     1     -40.094  51.399 -53.576  1.00  0.00     0.010 A 
HETATM   27  C   UNL     1     -39.893  50.236 -54.359  1.00  0.00     0.152 A 
HETATM   28  N   UNL     1     -39.328  49.240 -53.673  1.00  0.00    -0.187 NA
HETATM   29  N   UNL     1     -39.168  49.755 -52.445  1.00  0.00    -0.289 N 
HETATM   30  H   UNL     1     -38.752  49.170 -51.728  1.00  0.00     0.188 HD
HETATM   31  C   UNL     1     -39.606  51.044 -52.335  1.00  0.00     0.123 A 
ENDBRANCH   3  26
TORSDOF 9
ENDMDL
MODEL 6
REMARK VINA RESULT:      -7.4      2.807      4.895
REMARK  9 active torsions:
REMARK  status: ('A' for Active; 'I' for Inactive)
REMARK    1  A    between atoms: O_2  and  C_3 
REMARK    2  A    between atoms: C_3  and  C_4 
REMARK    3  A    between atoms: C_4  and  O_5 
REMARK    4  A    between atoms: O_5  and  C_6 
REMARK    5  A    between atoms: C_8  and  C_25 
REMARK    6  A    between atoms: C_11  and  C_12 
REMARK       I    between atoms: C_12  and  N_14 
REMARK    7  A    between atoms: N_14  and  C_15 
REMARK    8  A    between atoms: C_15  and  C_17 
REMARK    9  A    between atoms: C_21  and  O_22 
ROOT
HETATM    1  C   UNL     1     -40.943  54.802 -52.909  1.00  0.00     0.085 A 
HETATM    2  C   UNL     1     -40.548  53.505 -53.261  1.00  0.00     0.050 A 
HETATM    3  C   UNL     1     -40.240  52.558 -52.273  1.00  0.00    -0.020 A 
HETATM    4  C   UNL     1     -40.333  52.938 -50.926  1.00  0.00     0.013 A 
HETATM    5  C   UNL     1     -40.757  54.224 -50.574  1.00  0.00     0.021 A 
HETATM    6  C   UNL     1     -41.096  55.156 -51.563  1.00  0.00     0.065 A 
ENDROOT
BRANCH   6   7
HETATM    7  C   UNL     1     -41.638  56.464 -51.103  1.00  0.00     0.255 C 
HETATM    8  O   UNL     1     -41.120  57.041 -50.154  1.00  0.00    -0.268 OA
HETATM    9  N   UNL     1     -42.753  56.925 -51.765  1.00  0.00    -0.349 N 
HETATM   10  H   UNL     1     -43.045  56.442 -52.606  1.00  0.00     0.163 HD
BRANCH   9  11
HETATM   11  C   UNL     1     -43.375  58.201 -51.458  1.00  0.00     0.114 C 
HETATM   12  C   UNL     1     -44.842  57.991 -51.081  1.00  0.00     0.037 C 
BRANCH  11  13
HETATM   13  C   UNL     1     -43.176  59.158 -52.619  1.00  0.00    -0.033 A 
HETATM   14  C   UNL     1     -42.070  58.988 -53.466  1.00  0.00     0.009 A 
HETATM   15  C   UNL     1     -41.867  59.840 -54.551  1.00  0.00     0.003 A 
HETATM   16  C   UNL     1     -42.777  60.862 -54.810  1.00  0.00     0.037 A 
HETATM   17  C   UNL     1     -43.900  61.035 -54.000  1.00  0.00     0.068 A 
HETATM   18  C   UNL     1     -44.096  60.184 -52.908  1.00  0.00     0.046 A 
BRANCH  17  19
HETATM   19  O   UNL     1     -44.722  62.062 -54.376  1.00  0.00    -0.356 OA
HETATM   20  C   UNL     1     -44.404  63.354 -53.875  1.00  0.00     0.210 C 
ENDBRANCH  17  19
ENDBRANCH  11  13
ENDBRANCH   9  11
ENDBRANCH   6   7
BRANCH   1  21
HETATM   21  O   UNL     1     -41.219  55.659 -53.944  1.00  0.00    -0.348 OA
BRANCH  21  22
HETATM   22  C   UNL     1     -41.955  55.004 -54.999  1.00  0.00     0.201 C 
BRANCH  22  23
HETATM   23  C   UNL     1     -43.106  55.887 -55.476  1.00  0.00     0.193 C 
BRANCH  23  24
HETATM   24  O   UNL     1     -44.003  56.140 -54.389  1.00  0.00    -0.394 OA
HETATM   25  C   UNL     1     -45.016  57.068 -54.754  1.00  0.00     0.201 C 
ENDBRANCH  23  24
ENDBRANCH  22  23
ENDBRANCH  21  22
ENDBRANCH   1  21
BRANCH   3  26
HETATM   26  C   UNL     1     -39.862  51.206 -52.647  1.00  0.00     0.010 A 
HETATM   27  C   UNL     1     -39.719  50.603 -53.920  1.00  0.00     0.152 A 
HETATM   28  N   UNL     1     -39.356  49.320 -53.850  1.00  0.00    -0.187 NA
HETATM   29  N   UNL     1     -39.270  49.091 -52.531  1.00  0.00    -0.289 N 
HETATM   30  H   UNL     1     -39.008  48.160 -52.221  1.00  0.00     0.188 HD
HETATM   31  C   UNL     1     -39.558  50.186 -51.768  1.00  0.00     0.123 A 
ENDBRANCH   3  26
TORSDOF 9
ENDMDL
MODEL 7
REMARK VINA RESULT:      -7.1      2.927      5.887
REMARK  9 active torsions:
REMARK  status: ('A' for Active; 'I' for Inactive)
REMARK    1  A    between atoms: O_2  and  C_3 
REMARK    2  A    between atoms: C_3  and  C_4 
REMARK    3  A    between atoms: C_4  and  O_5 
REMARK    4  A    between atoms: O_5  and  C_6 
REMARK    5  A    between atoms: C_8  and  C_25 
REMARK    6  A    between atoms: C_11  and  C_12 
REMARK       I    between atoms: C_12  and  N_14 
REMARK    7  A    between atoms: N_14  and  C_15 
REMARK    8  A    between atoms: C_15  and  C_17 
REMARK    9  A    between atoms: C_21  and  O_22 
ROOT
HETATM    1  C   UNL     1     -40.934  54.885 -53.052  1.00  0.00     0.085 A 
HETATM    2  C   UNL     1     -40.577  53.569 -53.374  1.00  0.00     0.050 A 
HETATM    3  C   UNL     1     -40.195  52.666 -52.371  1.00  0.00    -0.020 A 
HETATM    4  C   UNL     1     -40.174  53.109 -51.041  1.00  0.00     0.013 A 
HETATM    5  C   UNL     1     -40.559  54.414 -50.716  1.00  0.00     0.021 A 
HETATM    6  C   UNL     1     -40.973  55.303 -51.716  1.00  0.00     0.065 A 
ENDROOT
BRANCH   6   7
HETATM    7  C   UNL     1     -41.467  56.636 -51.276  1.00  0.00     0.255 C 
HETATM    8  O   UNL     1     -42.268  56.716 -50.351  1.00  0.00    -0.268 OA
HETATM    9  N   UNL     1     -41.015  57.718 -51.995  1.00  0.00    -0.349 N 
HETATM   10  H   UNL     1     -40.271  57.571 -52.667  1.00  0.00     0.163 HD
BRANCH   9  11
HETATM   11  C   UNL     1     -41.377  59.085 -51.664  1.00  0.00     0.114 C 
HETATM   12  C   UNL     1     -40.981  59.397 -50.221  1.00  0.00     0.037 C 
BRANCH  11  13
HETATM   13  C   UNL     1     -42.851  59.308 -51.952  1.00  0.00    -0.033 A 
HETATM   14  C   UNL     1     -43.358  58.981 -53.219  1.00  0.00     0.009 A 
HETATM   15  C   UNL     1     -44.710  59.158 -53.511  1.00  0.00     0.003 A 
HETATM   16  C   UNL     1     -45.572  59.649 -52.534  1.00  0.00     0.037 A 
HETATM   17  C   UNL     1     -45.098  59.955 -51.258  1.00  0.00     0.068 A 
HETATM   18  C   UNL     1     -43.741  59.785 -50.971  1.00  0.00     0.046 A 
BRANCH  17  19
HETATM   19  O   UNL     1     -46.052  60.409 -50.388  1.00  0.00    -0.356 OA
HETATM   20  C   UNL     1     -45.589  61.077 -49.221  1.00  0.00     0.210 C 
ENDBRANCH  17  19
ENDBRANCH  11  13
ENDBRANCH   9  11
ENDBRANCH   6   7
BRANCH   1  21
HETATM   21  O   UNL     1     -41.287  55.696 -54.101  1.00  0.00    -0.348 OA
BRANCH  21  22
HETATM   22  C   UNL     1     -42.540  55.289 -54.692  1.00  0.00     0.201 C 
BRANCH  22  23
HETATM   23  C   UNL     1     -42.816  56.089 -55.964  1.00  0.00     0.193 C 
BRANCH  23  24
HETATM   24  O   UNL     1     -43.072  55.194 -57.051  1.00  0.00    -0.394 OA
HETATM   25  C   UNL     1     -43.314  55.899 -58.261  1.00  0.00     0.201 C 
ENDBRANCH  23  24
ENDBRANCH  22  23
ENDBRANCH  21  22
ENDBRANCH   1  21
BRANCH   3  26
HETATM   26  C   UNL     1     -39.858  51.294 -52.711  1.00  0.00     0.010 A 
HETATM   27  C   UNL     1     -39.778  50.644 -53.966  1.00  0.00     0.152 A 
HETATM   28  N   UNL     1     -39.437  49.357 -53.864  1.00  0.00    -0.187 NA
HETATM   29  N   UNL     1     -39.300  49.173 -52.542  1.00  0.00    -0.289 N 
HETATM   30  H   UNL     1     -39.044  48.249 -52.210  1.00  0.00     0.188 HD
HETATM   31  C   UNL     1     -39.537  50.300 -51.809  1.00  0.00     0.123 A 
ENDBRANCH   3  26
TORSDOF 9
ENDMDL
MODEL 8
REMARK VINA RESULT:      -7.1      2.419      4.796
REMARK  9 active torsions:
REMARK  status: ('A' for Active; 'I' for Inactive)
REMARK    1  A    between atoms: O_2  and  C_3 
REMARK    2  A    between atoms: C_3  and  C_4 
REMARK    3  A    between atoms: C_4  and  O_5 
REMARK    4  A    between atoms: O_5  and  C_6 
REMARK    5  A    between atoms: C_8  and  C_25 
REMARK    6  A    between atoms: C_11  and  C_12 
REMARK       I    between atoms: C_12  and  N_14 
REMARK    7  A    between atoms: N_14  and  C_15 
REMARK    8  A    between atoms: C_15  and  C_17 
REMARK    9  A    between atoms: C_21  and  O_22 
ROOT
HETATM    1  C   UNL     1     -41.694  54.819 -53.267  1.00  0.00     0.085 A 
HETATM    2  C   UNL     1     -41.271  53.540 -53.649  1.00  0.00     0.050 A 
HETATM    3  C   UNL     1     -40.498  52.753 -52.783  1.00  0.00    -0.020 A 
HETATM    4  C   UNL     1     -40.155  53.274 -51.528  1.00  0.00     0.013 A 
HETATM    5  C   UNL     1     -40.603  54.540 -51.133  1.00  0.00     0.021 A 
HETATM    6  C   UNL     1     -41.403  55.309 -51.988  1.00  0.00     0.065 A 
ENDROOT
BRANCH   6   7
HETATM    7  C   UNL     1     -41.924  56.596 -51.451  1.00  0.00     0.255 C 
HETATM    8  O   UNL     1     -41.270  57.223 -50.626  1.00  0.00    -0.268 OA
HETATM    9  N   UNL     1     -43.169  56.978 -51.895  1.00  0.00    -0.349 N 
HETATM   10  H   UNL     1     -43.586  56.460 -52.659  1.00  0.00     0.163 HD
BRANCH   9  11
HETATM   11  C   UNL     1     -43.795  58.225 -51.493  1.00  0.00     0.114 C 
HETATM   12  C   UNL     1     -45.210  57.958 -50.976  1.00  0.00     0.037 C 
BRANCH  11  13
HETATM   13  C   UNL     1     -43.746  59.216 -52.643  1.00  0.00    -0.033 A 
HETATM   14  C   UNL     1     -42.652  60.089 -52.748  1.00  0.00     0.009 A 
HETATM   15  C   UNL     1     -42.567  61.000 -53.799  1.00  0.00     0.003 A 
HETATM   16  C   UNL     1     -43.567  61.036 -54.768  1.00  0.00     0.037 A 
HETATM   17  C   UNL     1     -44.652  60.159 -54.702  1.00  0.00     0.068 A 
HETATM   18  C   UNL     1     -44.737  59.254 -53.641  1.00  0.00     0.046 A 
BRANCH  17  19
HETATM   19  O   UNL     1     -45.551  60.287 -55.725  1.00  0.00    -0.356 OA
HETATM   20  C   UNL     1     -45.646  59.198 -56.634  1.00  0.00     0.210 C 
ENDBRANCH  17  19
ENDBRANCH  11  13
ENDBRANCH   9  11
ENDBRANCH   6   7
BRANCH   1  21
HETATM   21  O   UNL     1     -42.441  55.515 -54.183  1.00  0.00    -0.348 OA
BRANCH  21  22
HETATM   22  C   UNL     1     -41.607  56.221 -55.126  1.00  0.00     0.201 C 
BRANCH  22  23
HETATM   23  C   UNL     1     -42.378  57.379 -55.759  1.00  0.00     0.193 C 
BRANCH  23  24
HETATM   24  O   UNL     1     -42.276  57.304 -57.185  1.00  0.00    -0.394 OA
HETATM   25  C   UNL     1     -43.127  56.298 -57.717  1.00  0.00     0.201 C 
ENDBRANCH  23  24
ENDBRANCH  22  23
ENDBRANCH  21  22
ENDBRANCH   1  21
BRANCH   3  26
HETATM   26  C   UNL     1     -40.091  51.414 -53.176  1.00  0.00     0.010 A 
HETATM   27  C   UNL     1     -39.621  50.325 -52.404  1.00  0.00     0.152 A 
HETATM   28  N   UNL     1     -39.341  49.248 -53.141  1.00  0.00    -0.187 NA
HETATM   29  N   UNL     1     -39.625  49.641 -54.392  1.00  0.00    -0.289 N 
HETATM   30  H   UNL     1     -39.483  48.979 -55.148  1.00  0.00     0.188 HD
HETATM   31  C   UNL     1     -40.081  50.926 -54.467  1.00  0.00     0.123 A 
ENDBRANCH   3  26
TORSDOF 9
ENDMDL
MODEL 9
REMARK VINA RESULT:      -7.0      2.320      3.570
REMARK  9 active torsions:
REMARK  status: ('A' for Active; 'I' for Inactive)
REMARK    1  A    between atoms: O_2  and  C_3 
REMARK    2  A    between atoms: C_3  and  C_4 
REMARK    3  A    between atoms: C_4  and  O_5 
REMARK    4  A    between atoms: O_5  and  C_6 
REMARK    5  A    between atoms: C_8  and  C_25 
REMARK    6  A    between atoms: C_11  and  C_12 
REMARK       I    between atoms: C_12  and  N_14 
REMARK    7  A    between atoms: N_14  and  C_15 
REMARK    8  A    between atoms: C_15  and  C_17 
REMARK    9  A    between atoms: C_21  and  O_22 
ROOT
HETATM    1  C   UNL     1     -41.572  56.184 -54.454  1.00  0.00     0.085 A 
HETATM    2  C   UNL     1     -40.998  55.285 -53.546  1.00  0.00     0.050 A 
HETATM    3  C   UNL     1     -41.259  53.910 -53.639  1.00  0.00    -0.020 A 
HETATM    4  C   UNL     1     -42.109  53.455 -54.656  1.00  0.00     0.013 A 
HETATM    5  C   UNL     1     -42.658  54.349 -55.582  1.00  0.00     0.021 A 
HETATM    6  C   UNL     1     -42.368  55.717 -55.507  1.00  0.00     0.065 A 
ENDROOT
BRANCH   6   7
HETATM    7  C   UNL     1     -42.907  56.584 -56.590  1.00  0.00     0.255 C 
HETATM    8  O   UNL     1     -43.975  57.164 -56.435  1.00  0.00    -0.268 OA
HETATM    9  N   UNL     1     -42.169  56.634 -57.750  1.00  0.00    -0.349 N 
HETATM   10  H   UNL     1     -41.246  56.215 -57.750  1.00  0.00     0.163 HD
BRANCH   9  11
HETATM   11  C   UNL     1     -42.542  57.463 -58.882  1.00  0.00     0.114 C 
HETATM   12  C   UNL     1     -42.684  58.920 -58.440  1.00  0.00     0.037 C 
BRANCH  11  13
HETATM   13  C   UNL     1     -43.793  56.902 -59.536  1.00  0.00    -0.033 A 
HETATM   14  C   UNL     1     -43.798  55.569 -59.973  1.00  0.00     0.009 A 
HETATM   15  C   UNL     1     -44.934  55.018 -60.563  1.00  0.00     0.003 A 
HETATM   16  C   UNL     1     -46.085  55.790 -60.707  1.00  0.00     0.037 A 
HETATM   17  C   UNL     1     -46.115  57.110 -60.254  1.00  0.00     0.068 A 
HETATM   18  C   UNL     1     -44.971  57.661 -59.671  1.00  0.00     0.046 A 
BRANCH  17  19
HETATM   19  O   UNL     1     -47.311  57.749 -60.438  1.00  0.00    -0.356 OA
HETATM   20  C   UNL     1     -47.272  59.001 -61.111  1.00  0.00     0.210 C 
ENDBRANCH  17  19
ENDBRANCH  11  13
ENDBRANCH   9  11
ENDBRANCH   6   7
BRANCH   1  21
HETATM   21  O   UNL     1     -41.263  57.510 -54.280  1.00  0.00    -0.348 OA
BRANCH  21  22
HETATM   22  C   UNL     1     -41.352  57.901 -52.893  1.00  0.00     0.201 C 
BRANCH  22  23
HETATM   23  C   UNL     1     -41.009  59.381 -52.733  1.00  0.00     0.193 C 
BRANCH  23  24
HETATM   24  O   UNL     1     -40.129  59.556 -51.617  1.00  0.00    -0.394 OA
HETATM   25  C   UNL     1     -40.682  59.011 -50.427  1.00  0.00     0.201 C 
ENDBRANCH  23  24
ENDBRANCH  22  23
ENDBRANCH  21  22
ENDBRANCH   1  21
BRANCH   3  26
HETATM   26  C   UNL     1     -40.633  52.982 -52.712  1.00  0.00     0.010 A 
HETATM   27  C   UNL     1     -40.617  52.956 -51.297  1.00  0.00     0.152 A 
HETATM   28  N   UNL     1     -39.918  51.931 -50.803  1.00  0.00    -0.187 NA
HETATM   29  N   UNL     1     -39.477  51.296 -51.900  1.00  0.00    -0.289 N 
HETATM   30  H   UNL     1     -38.904  50.468 -51.778  1.00  0.00     0.188 HD
HETATM   31  C   UNL     1     -39.880  51.882 -53.066  1.00  0.00     0.123 A 
ENDBRANCH   3  26
TORSDOF 9
ENDMDL
MODEL 10
REMARK VINA RESULT:      -6.8      4.064      6.855
REMARK  9 active torsions:
REMARK  status: ('A' for Active; 'I' for Inactive)
REMARK    1  A    between atoms: O_2  and  C_3 
REMARK    2  A    between atoms: C_3  and  C_4 
REMARK    3  A    between atoms: C_4  and  O_5 
REMARK    4  A    between atoms: O_5  and  C_6 
REMARK    5  A    between atoms: C_8  and  C_25 
REMARK    6  A    between atoms: C_11  and  C_12 
REMARK       I    between atoms: C_12  and  N_14 
REMARK    7  A    between atoms: N_14  and  C_15 
REMARK    8  A    between atoms: C_15  and  C_17 
REMARK    9  A    between atoms: C_21  and  O_22 
ROOT
HETATM    1  C   UNL     1     -43.144  55.745 -53.166  1.00  0.00     0.085 A 
HETATM    2  C   UNL     1     -42.250  54.674 -53.290  1.00  0.00     0.050 A 
HETATM    3  C   UNL     1     -41.569  54.177 -52.169  1.00  0.00    -0.020 A 
HETATM    4  C   UNL     1     -41.799  54.776 -50.923  1.00  0.00     0.013 A 
HETATM    5  C   UNL     1     -42.714  55.826 -50.794  1.00  0.00     0.021 A 
HETATM    6  C   UNL     1     -43.418  56.298 -51.909  1.00  0.00     0.065 A 
ENDROOT
BRANCH   6   7
HETATM    7  C   UNL     1     -44.449  57.343 -51.667  1.00  0.00     0.255 C 
HETATM    8  O   UNL     1     -45.267  57.198 -50.765  1.00  0.00    -0.268 OA
HETATM    9  N   UNL     1     -44.446  58.411 -52.535  1.00  0.00    -0.349 N 
HETATM   10  H   UNL     1     -43.667  58.504 -53.177  1.00  0.00     0.163 HD
BRANCH   9  11
HETATM   11  C   UNL     1     -45.364  59.528 -52.406  1.00  0.00     0.114 C 
HETATM   12  C   UNL     1     -45.526  60.231 -53.755  1.00  0.00     0.037 C 
BRANCH  11  13
HETATM   13  C   UNL     1     -44.896  60.449 -51.293  1.00  0.00    -0.033 A 
HETATM   14  C   UNL     1     -43.625  61.038 -51.380  1.00  0.00     0.009 A 
HETATM   15  C   UNL     1     -43.171  61.900 -50.384  1.00  0.00     0.003 A 
HETATM   16  C   UNL     1     -43.990  62.196 -49.296  1.00  0.00     0.037 A 
HETATM   17  C   UNL     1     -45.269  61.646 -49.201  1.00  0.00     0.068 A 
HETATM   18  C   UNL     1     -45.717  60.775 -50.197  1.00  0.00     0.046 A 
BRANCH  17  19
HETATM   19  O   UNL     1     -45.976  62.034 -48.095  1.00  0.00    -0.356 OA
HETATM   20  C   UNL     1     -47.081  62.902 -48.313  1.00  0.00     0.210 C 
ENDBRANCH  17  19
ENDBRANCH  11  13
ENDBRANCH   9  11
ENDBRANCH   6   7
BRANCH   1  21
HETATM   21  O   UNL     1     -43.758  56.165 -54.319  1.00  0.00    -0.348 OA
BRANCH  21  22
HETATM   22  C   UNL     1     -42.802  56.429 -55.368  1.00  0.00     0.201 C 
BRANCH  22  23
HETATM   23  C   UNL     1     -42.688  57.931 -55.621  1.00  0.00     0.193 C 
BRANCH  23  24
HETATM   24  O   UNL     1     -41.988  58.552 -54.538  1.00  0.00    -0.394 OA
HETATM   25  C   UNL     1     -41.970  59.967 -54.671  1.00  0.00     0.201 C 
ENDBRANCH  23  24
ENDBRANCH  22  23
ENDBRANCH  21  22
ENDBRANCH   1  21
BRANCH   3  26
HETATM   26  C   UNL     1     -40.668  53.044 -52.303  1.00  0.00     0.010 A 
HETATM   27  C   UNL     1     -40.264  52.312 -53.445  1.00  0.00     0.152 A 
HETATM   28  N   UNL     1     -39.415  51.323 -53.155  1.00  0.00    -0.187 NA
HETATM   29  N   UNL     1     -39.274  51.411 -51.824  1.00  0.00    -0.289 N 
HETATM   30  H   UNL     1     -38.666  50.744 -51.360  1.00  0.00     0.188 HD
HETATM   31  C   UNL     1     -39.999  52.426 -51.267  1.00  0.00     0.123 A 
ENDBRANCH   3  26
TORSDOF 9
ENDMDL
