MODEL 1
REMARK VINA RESULT:      -7.5      0.000      0.000
REMARK  8 active torsions:
REMARK  status: ('A' for Active; 'I' for Inactive)
REMARK    1  A    between atoms: C_2  and  C_3 
REMARK    2  A    between atoms: C_3  and  N_4 
REMARK    3  A    between atoms: C_7  and  C_8 
REMARK       I    between atoms: C_8  and  N_9 
REMARK    4  A    between atoms: N_9  and  N_10 
REMARK       I    between atoms: N_10  and  C_11 
REMARK    5  A    between atoms: C_11  and  C_12 
REMARK    6  A    between atoms: C_15  and  O_16 
REMARK    7  A    between atoms: O_16  and  C_17 
REMARK    8  A    between atoms: C_23  and  C_24 
ROOT
HETATM    1  C   UNL     1     -43.201  55.022 -54.494  1.00  0.00     0.273 C 
HETATM    2  N   UNL     1     -43.268  56.307 -54.988  1.00  0.00    -0.263 N 
HETATM    3  O   UNL     1     -43.778  54.088 -55.050  1.00  0.00    -0.266 OA
HETATM    4  H   UNL     1     -42.891  57.120 -54.514  1.00  0.00     0.190 HD
ENDROOT
BRANCH   2   5
HETATM    5  N   UNL     1     -44.059  56.509 -56.131  1.00  0.00    -0.263 N 
HETATM    6  C   UNL     1     -43.430  56.834 -57.319  1.00  0.00     0.270 C 
HETATM    7  O   UNL     1     -42.270  57.222 -57.395  1.00  0.00    -0.266 OA
HETATM    8  H   UNL     1     -44.881  55.902 -56.163  1.00  0.00     0.190 HD
BRANCH   6   9
HETATM    9  C   UNL     1     -44.261  56.621 -58.541  1.00  0.00     0.033 A 
HETATM   10  C   UNL     1     -45.302  57.495 -58.876  1.00  0.00     0.020 A 
HETATM   11  C   UNL     1     -46.129  57.206 -59.963  1.00  0.00     0.038 A 
HETATM   12  C   UNL     1     -45.928  56.054 -60.726  1.00  0.00     0.068 A 
HETATM   13  C   UNL     1     -44.849  55.218 -60.432  1.00  0.00     0.038 A 
HETATM   14  C   UNL     1     -44.017  55.500 -59.341  1.00  0.00     0.020 A 
BRANCH  12  15
HETATM   15  O   UNL     1     -46.843  55.868 -61.722  1.00  0.00    -0.352 OA
BRANCH  15  16
HETATM   16  C   UNL     1     -48.039  56.645 -61.656  1.00  0.00     0.171 C 
HETATM   17  C   UNL     1     -48.515  56.883 -63.079  1.00  0.00     0.034 C 
ENDBRANCH  15  16
ENDBRANCH  12  15
ENDBRANCH   6   9
ENDBRANCH   2   5
BRANCH   1  18
HETATM   18  C   UNL     1     -42.534  54.864 -53.224  1.00  0.00     0.077 A 
HETATM   19  C   UNL     1     -43.184  55.086 -51.990  1.00  0.00     0.158 A 
HETATM   20  N   UNL     1     -42.419  54.809 -50.941  1.00  0.00    -0.183 NA
HETATM   21  N   UNL     1     -41.268  54.371 -51.487  1.00  0.00    -0.268 N 
HETATM   22  C   UNL     1     -41.284  54.370 -52.873  1.00  0.00     0.052 A 
BRANCH  21  23
HETATM   23  C   UNL     1     -40.224  53.850 -50.603  1.00  0.00     0.106 C 
HETATM   24  C   UNL     1     -40.457  52.357 -50.355  1.00  0.00     0.034 C 
BRANCH  23  25
HETATM   25  C   UNL     1     -40.104  54.597 -49.256  1.00  0.00     0.022 C 
HETATM   26  C   UNL     1     -40.435  53.724 -48.054  1.00  0.00     0.007 C 
ENDBRANCH  23  25
ENDBRANCH  21  23
BRANCH  22  27
HETATM   27  C   UNL     1     -40.155  53.796 -53.733  1.00  0.00     0.038 A 
HETATM   28  C   UNL     1     -40.363  52.498 -54.482  1.00  0.00     0.011 A 
HETATM   29  C   UNL     1     -40.222  53.775 -55.240  1.00  0.00     0.011 A 
ENDBRANCH  22  27
ENDBRANCH   1  18
TORSDOF 8
ENDMDL
MODEL 2
REMARK VINA RESULT:      -7.3      2.317      9.729
REMARK  8 active torsions:
REMARK  status: ('A' for Active; 'I' for Inactive)
REMARK    1  A    between atoms: C_2  and  C_3 
REMARK    2  A    between atoms: C_3  and  N_4 
REMARK    3  A    between atoms: C_7  and  C_8 
REMARK       I    between atoms: C_8  and  N_9 
REMARK    4  A    between atoms: N_9  and  N_10 
REMARK       I    between atoms: N_10  and  C_11 
REMARK    5  A    between atoms: C_11  and  C_12 
REMARK    6  A    between atoms: C_15  and  O_16 
REMARK    7  A    between atoms: O_16  and  C_17 
REMARK    8  A    between atoms: C_23  and  C_24 
ROOT
HETATM    1  C   UNL     1     -43.419  56.780 -57.188  1.00  0.00     0.273 C 
HETATM    2  N   UNL     1     -43.399  55.457 -56.802  1.00  0.00    -0.263 N 
HETATM    3  O   UNL     1     -42.576  57.580 -56.782  1.00  0.00    -0.266 OA
HETATM    4  H   UNL     1     -44.123  54.785 -57.033  1.00  0.00     0.190 HD
ENDROOT
BRANCH   2   5
HETATM    5  N   UNL     1     -42.399  55.073 -55.893  1.00  0.00    -0.263 N 
HETATM    6  C   UNL     1     -42.783  54.610 -54.648  1.00  0.00     0.270 C 
HETATM    7  O   UNL     1     -43.905  54.761 -54.177  1.00  0.00    -0.266 OA
HETATM    8  H   UNL     1     -41.589  54.645 -56.345  1.00  0.00     0.190 HD
BRANCH   6   9
HETATM    9  C   UNL     1     -41.730  53.846 -53.917  1.00  0.00     0.033 A 
HETATM   10  C   UNL     1     -40.907  52.925 -54.576  1.00  0.00     0.020 A 
HETATM   11  C   UNL     1     -40.008  52.147 -53.844  1.00  0.00     0.038 A 
HETATM   12  C   UNL     1     -39.916  52.279 -52.458  1.00  0.00     0.068 A 
HETATM   13  C   UNL     1     -40.689  53.243 -51.808  1.00  0.00     0.038 A 
HETATM   14  C   UNL     1     -41.595  54.025 -52.536  1.00  0.00     0.020 A 
BRANCH  12  15
HETATM   15  O   UNL     1     -39.038  51.418 -51.865  1.00  0.00    -0.352 OA
BRANCH  15  16
HETATM   16  C   UNL     1     -39.479  50.075 -51.668  1.00  0.00     0.171 C 
HETATM   17  C   UNL     1     -40.132  49.997 -50.299  1.00  0.00     0.034 C 
ENDBRANCH  15  16
ENDBRANCH  12  15
ENDBRANCH   6   9
ENDBRANCH   2   5
BRANCH   1  18
HETATM   18  C   UNL     1     -44.553  57.194 -57.977  1.00  0.00     0.077 A 
HETATM   19  C   UNL     1     -45.466  58.178 -57.540  1.00  0.00     0.158 A 
HETATM   20  N   UNL     1     -46.390  58.472 -58.447  1.00  0.00    -0.183 NA
HETATM   21  N   UNL     1     -46.065  57.699 -59.501  1.00  0.00    -0.268 N 
HETATM   22  C   UNL     1     -44.948  56.910 -59.279  1.00  0.00     0.052 A 
BRANCH  21  23
HETATM   23  C   UNL     1     -46.813  57.862 -60.749  1.00  0.00     0.106 C 
HETATM   24  C   UNL     1     -47.484  59.238 -60.771  1.00  0.00     0.034 C 
BRANCH  23  25
HETATM   25  C   UNL     1     -47.862  56.758 -61.006  1.00  0.00     0.022 C 
HETATM   26  C   UNL     1     -48.507  56.852 -62.382  1.00  0.00     0.007 C 
ENDBRANCH  23  25
ENDBRANCH  21  23
BRANCH  22  27
HETATM   27  C   UNL     1     -44.294  56.044 -60.358  1.00  0.00     0.038 A 
HETATM   28  C   UNL     1     -44.113  54.560 -60.127  1.00  0.00     0.011 A 
HETATM   29  C   UNL     1     -45.074  55.035 -61.163  1.00  0.00     0.011 A 
ENDBRANCH  22  27
ENDBRANCH   1  18
TORSDOF 8
ENDMDL
MODEL 3
REMARK VINA RESULT:      -7.1      2.310      9.835
REMARK  8 active torsions:
REMARK  status: ('A' for Active; 'I' for Inactive)
REMARK    1  A    between atoms: C_2  and  C_3 
REMARK    2  A    between atoms: C_3  and  N_4 
REMARK    3  A    between atoms: C_7  and  C_8 
REMARK       I    between atoms: C_8  and  N_9 
REMARK    4  A    between atoms: N_9  and  N_10 
REMARK       I    between atoms: N_10  and  C_11 
REMARK    5  A    between atoms: C_11  and  C_12 
REMARK    6  A    between atoms: C_15  and  O_16 
REMARK    7  A    between atoms: O_16  and  C_17 
REMARK    8  A    between atoms: C_23  and  C_24 
ROOT
HETATM    1  C   UNL     1     -43.227  56.298 -57.902  1.00  0.00     0.273 C 
HETATM    2  N   UNL     1     -43.241  55.066 -57.285  1.00  0.00    -0.263 N 
HETATM    3  O   UNL     1     -42.466  57.192 -57.534  1.00  0.00    -0.266 OA
HETATM    4  H   UNL     1     -43.914  54.334 -57.488  1.00  0.00     0.190 HD
ENDROOT
BRANCH   2   5
HETATM    5  N   UNL     1     -42.377  54.891 -56.191  1.00  0.00    -0.263 N 
HETATM    6  C   UNL     1     -42.929  54.649 -54.947  1.00  0.00     0.270 C 
HETATM    7  O   UNL     1     -44.108  54.842 -54.671  1.00  0.00    -0.266 OA
HETATM    8  H   UNL     1     -41.506  54.418 -56.440  1.00  0.00     0.190 HD
BRANCH   6   9
HETATM    9  C   UNL     1     -41.983  54.070 -53.949  1.00  0.00     0.033 A 
HETATM   10  C   UNL     1     -41.098  53.041 -54.294  1.00  0.00     0.020 A 
HETATM   11  C   UNL     1     -40.305  52.447 -53.311  1.00  0.00     0.038 A 
HETATM   12  C   UNL     1     -40.380  52.870 -51.982  1.00  0.00     0.068 A 
HETATM   13  C   UNL     1     -41.213  53.939 -51.650  1.00  0.00     0.038 A 
HETATM   14  C   UNL     1     -42.014  54.538 -52.631  1.00  0.00     0.020 A 
BRANCH  12  15
HETATM   15  O   UNL     1     -39.591  52.164 -51.119  1.00  0.00    -0.352 OA
BRANCH  15  16
HETATM   16  C   UNL     1     -40.215  51.111 -50.385  1.00  0.00     0.171 C 
HETATM   17  C   UNL     1     -39.615  49.798 -50.860  1.00  0.00     0.034 C 
ENDBRANCH  15  16
ENDBRANCH  12  15
ENDBRANCH   6   9
ENDBRANCH   2   5
BRANCH   1  18
HETATM   18  C   UNL     1     -44.243  56.518 -58.903  1.00  0.00     0.077 A 
HETATM   19  C   UNL     1     -44.388  55.687 -60.036  1.00  0.00     0.158 A 
HETATM   20  N   UNL     1     -45.431  56.013 -60.790  1.00  0.00    -0.183 NA
HETATM   21  N   UNL     1     -45.995  57.045 -60.134  1.00  0.00    -0.268 N 
HETATM   22  C   UNL     1     -45.323  57.389 -58.971  1.00  0.00     0.052 A 
BRANCH  21  23
HETATM   23  C   UNL     1     -47.264  57.583 -60.627  1.00  0.00     0.106 C 
HETATM   24  C   UNL     1     -47.865  56.621 -61.656  1.00  0.00     0.034 C 
BRANCH  23  25
HETATM   25  C   UNL     1     -47.160  59.002 -61.227  1.00  0.00     0.022 C 
HETATM   26  C   UNL     1     -47.973  60.038 -60.464  1.00  0.00     0.007 C 
ENDBRANCH  23  25
ENDBRANCH  21  23
BRANCH  22  27
HETATM   27  C   UNL     1     -45.831  58.436 -57.977  1.00  0.00     0.038 A 
HETATM   28  C   UNL     1     -47.048  58.142 -57.128  1.00  0.00     0.011 A 
HETATM   29  C   UNL     1     -45.708  58.256 -56.485  1.00  0.00     0.011 A 
ENDBRANCH  22  27
ENDBRANCH   1  18
TORSDOF 8
ENDMDL
MODEL 4
REMARK VINA RESULT:      -6.9      6.530     10.132
REMARK  8 active torsions:
REMARK  status: ('A' for Active; 'I' for Inactive)
REMARK    1  A    between atoms: C_2  and  C_3 
REMARK    2  A    between atoms: C_3  and  N_4 
REMARK    3  A    between atoms: C_7  and  C_8 
REMARK       I    between atoms: C_8  and  N_9 
REMARK    4  A    between atoms: N_9  and  N_10 
REMARK       I    between atoms: N_10  and  C_11 
REMARK    5  A    between atoms: C_11  and  C_12 
REMARK    6  A    between atoms: C_15  and  O_16 
REMARK    7  A    between atoms: O_16  and  C_17 
REMARK    8  A    between atoms: C_23  and  C_24 
ROOT
HETATM    1  C   UNL     1     -42.436  58.519 -51.142  1.00  0.00     0.273 C 
HETATM    2  N   UNL     1     -43.761  58.886 -51.047  1.00  0.00    -0.263 N 
HETATM    3  O   UNL     1     -41.550  59.157 -50.573  1.00  0.00    -0.266 OA
HETATM    4  H   UNL     1     -44.511  58.452 -51.573  1.00  0.00     0.190 HD
ENDROOT
BRANCH   2   5
HETATM    5  N   UNL     1     -44.050  60.043 -50.304  1.00  0.00    -0.263 N 
HETATM    6  C   UNL     1     -45.229  60.085 -49.582  1.00  0.00     0.270 C 
HETATM    7  O   UNL     1     -46.163  59.310 -49.751  1.00  0.00    -0.266 OA
HETATM    8  H   UNL     1     -43.217  60.484 -49.908  1.00  0.00     0.190 HD
BRANCH   6   9
HETATM    9  C   UNL     1     -45.267  61.130 -48.517  1.00  0.00     0.033 A 
HETATM   10  C   UNL     1     -44.924  62.460 -48.786  1.00  0.00     0.020 A 
HETATM   11  C   UNL     1     -44.865  63.388 -47.744  1.00  0.00     0.038 A 
HETATM   12  C   UNL     1     -45.149  63.005 -46.432  1.00  0.00     0.068 A 
HETATM   13  C   UNL     1     -45.555  61.694 -46.173  1.00  0.00     0.038 A 
HETATM   14  C   UNL     1     -45.614  60.758 -47.213  1.00  0.00     0.020 A 
BRANCH  12  15
HETATM   15  O   UNL     1     -44.997  63.998 -45.508  1.00  0.00    -0.352 OA
BRANCH  15  16
HETATM   16  C   UNL     1     -45.273  63.666 -44.147  1.00  0.00     0.171 C 
HETATM   17  C   UNL     1     -43.944  63.537 -43.423  1.00  0.00     0.034 C 
ENDBRANCH  15  16
ENDBRANCH  12  15
ENDBRANCH   6   9
ENDBRANCH   2   5
BRANCH   1  18
HETATM   18  C   UNL     1     -42.140  57.438 -52.051  1.00  0.00     0.077 A 
HETATM   19  C   UNL     1     -42.455  57.492 -53.427  1.00  0.00     0.158 A 
HETATM   20  N   UNL     1     -42.027  56.432 -54.101  1.00  0.00    -0.183 NA
HETATM   21  N   UNL     1     -41.398  55.689 -53.170  1.00  0.00    -0.268 N 
HETATM   22  C   UNL     1     -41.423  56.258 -51.906  1.00  0.00     0.052 A 
BRANCH  21  23
HETATM   23  C   UNL     1     -40.683  54.484 -53.596  1.00  0.00     0.106 C 
HETATM   24  C   UNL     1     -40.034  54.728 -54.961  1.00  0.00     0.034 C 
BRANCH  23  25
HETATM   25  C   UNL     1     -41.559  53.213 -53.647  1.00  0.00     0.022 C 
HETATM   26  C   UNL     1     -40.811  51.989 -54.157  1.00  0.00     0.007 C 
ENDBRANCH  23  25
ENDBRANCH  21  23
BRANCH  22  27
HETATM   27  C   UNL     1     -40.669  55.683 -50.704  1.00  0.00     0.038 A 
HETATM   28  C   UNL     1     -41.367  55.557 -49.367  1.00  0.00     0.011 A 
HETATM   29  C   UNL     1     -40.992  54.328 -50.124  1.00  0.00     0.011 A 
ENDBRANCH  22  27
ENDBRANCH   1  18
TORSDOF 8
ENDMDL
MODEL 5
REMARK VINA RESULT:      -6.8      4.983      6.531
REMARK  8 active torsions:
REMARK  status: ('A' for Active; 'I' for Inactive)
REMARK    1  A    between atoms: C_2  and  C_3 
REMARK    2  A    between atoms: C_3  and  N_4 
REMARK    3  A    between atoms: C_7  and  C_8 
REMARK       I    between atoms: C_8  and  N_9 
REMARK    4  A    between atoms: N_9  and  N_10 
REMARK       I    between atoms: N_10  and  C_11 
REMARK    5  A    between atoms: C_11  and  C_12 
REMARK    6  A    between atoms: C_15  and  O_16 
REMARK    7  A    between atoms: O_16  and  C_17 
REMARK    8  A    between atoms: C_23  and  C_24 
ROOT
HETATM    1  C   UNL     1     -42.438  55.565 -53.124  1.00  0.00     0.273 C 
HETATM    2  N   UNL     1     -43.757  55.541 -52.726  1.00  0.00    -0.263 N 
HETATM    3  O   UNL     1     -41.903  56.603 -53.512  1.00  0.00    -0.266 OA
HETATM    4  H   UNL     1     -44.266  54.695 -52.492  1.00  0.00     0.190 HD
ENDROOT
BRANCH   2   5
HETATM    5  N   UNL     1     -44.474  56.746 -52.820  1.00  0.00    -0.263 N 
HETATM    6  C   UNL     1     -44.834  57.391 -51.651  1.00  0.00     0.270 C 
HETATM    7  O   UNL     1     -44.816  56.864 -50.545  1.00  0.00    -0.266 OA
HETATM    8  H   UNL     1     -44.204  57.310 -53.628  1.00  0.00     0.190 HD
BRANCH   6   9
HETATM    9  C   UNL     1     -45.204  58.827 -51.823  1.00  0.00     0.033 A 
HETATM   10  C   UNL     1     -45.663  59.596 -50.748  1.00  0.00     0.020 A 
HETATM   11  C   UNL     1     -46.104  60.903 -50.965  1.00  0.00     0.038 A 
HETATM   12  C   UNL     1     -46.089  61.456 -52.247  1.00  0.00     0.068 A 
HETATM   13  C   UNL     1     -45.570  60.712 -53.308  1.00  0.00     0.038 A 
HETATM   14  C   UNL     1     -45.128  59.400 -53.097  1.00  0.00     0.020 A 
BRANCH  12  15
HETATM   15  O   UNL     1     -46.601  62.720 -52.323  1.00  0.00    -0.352 OA
BRANCH  15  16
HETATM   16  C   UNL     1     -47.928  62.912 -51.836  1.00  0.00     0.171 C 
HETATM   17  C   UNL     1     -48.889  62.378 -52.885  1.00  0.00     0.034 C 
ENDBRANCH  15  16
ENDBRANCH  12  15
ENDBRANCH   6   9
ENDBRANCH   2   5
BRANCH   1  18
HETATM   18  C   UNL     1     -41.771  54.287 -53.190  1.00  0.00     0.077 A 
HETATM   19  C   UNL     1     -41.822  53.460 -54.334  1.00  0.00     0.158 A 
HETATM   20  N   UNL     1     -41.077  52.367 -54.220  1.00  0.00    -0.183 NA
HETATM   21  N   UNL     1     -40.506  52.490 -53.006  1.00  0.00    -0.268 N 
HETATM   22  C   UNL     1     -40.881  53.646 -52.339  1.00  0.00     0.052 A 
BRANCH  21  23
HETATM   23  C   UNL     1     -39.504  51.504 -52.597  1.00  0.00     0.106 C 
HETATM   24  C   UNL     1     -39.479  50.349 -53.602  1.00  0.00     0.034 C 
BRANCH  23  25
HETATM   25  C   UNL     1     -39.703  50.956 -51.167  1.00  0.00     0.022 C 
HETATM   26  C   UNL     1     -39.810  49.438 -51.116  1.00  0.00     0.007 C 
ENDBRANCH  23  25
ENDBRANCH  21  23
BRANCH  22  27
HETATM   27  C   UNL     1     -40.274  54.088 -51.005  1.00  0.00     0.038 A 
HETATM   28  C   UNL     1     -40.800  55.325 -50.311  1.00  0.00     0.011 A 
HETATM   29  C   UNL     1     -41.029  53.983 -49.703  1.00  0.00     0.011 A 
ENDBRANCH  22  27
ENDBRANCH   1  18
TORSDOF 8
ENDMDL
MODEL 6
REMARK VINA RESULT:      -6.7      5.549      7.813
REMARK  8 active torsions:
REMARK  status: ('A' for Active; 'I' for Inactive)
REMARK    1  A    between atoms: C_2  and  C_3 
REMARK    2  A    between atoms: C_3  and  N_4 
REMARK    3  A    between atoms: C_7  and  C_8 
REMARK       I    between atoms: C_8  and  N_9 
REMARK    4  A    between atoms: N_9  and  N_10 
REMARK       I    between atoms: N_10  and  C_11 
REMARK    5  A    between atoms: C_11  and  C_12 
REMARK    6  A    between atoms: C_15  and  O_16 
REMARK    7  A    between atoms: O_16  and  C_17 
REMARK    8  A    between atoms: C_23  and  C_24 
ROOT
HETATM    1  C   UNL     1     -41.431  56.735 -50.720  1.00  0.00     0.273 C 
HETATM    2  N   UNL     1     -42.799  56.906 -50.713  1.00  0.00    -0.263 N 
HETATM    3  O   UNL     1     -40.666  57.680 -50.908  1.00  0.00    -0.266 OA
HETATM    4  H   UNL     1     -43.468  56.146 -50.658  1.00  0.00     0.190 HD
ENDROOT
BRANCH   2   5
HETATM    5  N   UNL     1     -43.280  58.201 -50.970  1.00  0.00    -0.263 N 
HETATM    6  C   UNL     1     -44.648  58.407 -50.969  1.00  0.00     0.270 C 
HETATM    7  O   UNL     1     -45.476  57.506 -51.030  1.00  0.00    -0.266 OA
HETATM    8  H   UNL     1     -42.674  58.935 -50.598  1.00  0.00     0.190 HD
BRANCH   6   9
HETATM    9  C   UNL     1     -45.060  59.835 -50.830  1.00  0.00     0.033 A 
HETATM   10  C   UNL     1     -44.405  60.701 -49.946  1.00  0.00     0.020 A 
HETATM   11  C   UNL     1     -44.886  61.998 -49.759  1.00  0.00     0.038 A 
HETATM   12  C   UNL     1     -46.014  62.446 -50.448  1.00  0.00     0.068 A 
HETATM   13  C   UNL     1     -46.628  61.605 -51.378  1.00  0.00     0.038 A 
HETATM   14  C   UNL     1     -46.153  60.301 -51.569  1.00  0.00     0.020 A 
BRANCH  12  15
HETATM   15  O   UNL     1     -46.407  63.714 -50.127  1.00  0.00    -0.352 OA
BRANCH  15  16
HETATM   16  C   UNL     1     -46.601  64.001 -48.743  1.00  0.00     0.171 C 
HETATM   17  C   UNL     1     -47.938  63.408 -48.330  1.00  0.00     0.034 C 
ENDBRANCH  15  16
ENDBRANCH  12  15
ENDBRANCH   6   9
ENDBRANCH   2   5
BRANCH   1  18
HETATM   18  C   UNL     1     -40.961  55.374 -50.633  1.00  0.00     0.077 A 
HETATM   19  C   UNL     1     -40.500  54.803 -49.426  1.00  0.00     0.158 A 
HETATM   20  N   UNL     1     -40.190  53.517 -49.542  1.00  0.00    -0.183 NA
HETATM   21  N   UNL     1     -40.477  53.231 -50.827  1.00  0.00    -0.268 N 
HETATM   22  C   UNL     1     -40.963  54.318 -51.536  1.00  0.00     0.052 A 
BRANCH  21  23
HETATM   23  C   UNL     1     -40.371  51.842 -51.278  1.00  0.00     0.106 C 
HETATM   24  C   UNL     1     -40.306  50.910 -50.064  1.00  0.00     0.034 C 
BRANCH  23  25
HETATM   25  C   UNL     1     -39.175  51.571 -52.217  1.00  0.00     0.022 C 
HETATM   26  C   UNL     1     -39.550  50.753 -53.445  1.00  0.00     0.007 C 
ENDBRANCH  23  25
ENDBRANCH  21  23
BRANCH  22  27
HETATM   27  C   UNL     1     -41.488  54.227 -52.971  1.00  0.00     0.038 A 
HETATM   28  C   UNL     1     -41.370  55.420 -53.894  1.00  0.00     0.011 A 
HETATM   29  C   UNL     1     -40.566  54.194 -54.165  1.00  0.00     0.011 A 
ENDBRANCH  22  27
ENDBRANCH   1  18
TORSDOF 8
ENDMDL
MODEL 7
REMARK VINA RESULT:      -6.7      5.584      8.088
REMARK  8 active torsions:
REMARK  status: ('A' for Active; 'I' for Inactive)
REMARK    1  A    between atoms: C_2  and  C_3 
REMARK    2  A    between atoms: C_3  and  N_4 
REMARK    3  A    between atoms: C_7  and  C_8 
REMARK       I    between atoms: C_8  and  N_9 
REMARK    4  A    between atoms: N_9  and  N_10 
REMARK       I    between atoms: N_10  and  C_11 
REMARK    5  A    between atoms: C_11  and  C_12 
REMARK    6  A    between atoms: C_15  and  O_16 
REMARK    7  A    between atoms: O_16  and  C_17 
REMARK    8  A    between atoms: C_23  and  C_24 
ROOT
HETATM    1  C   UNL     1     -42.505  55.708 -51.636  1.00  0.00     0.273 C 
HETATM    2  N   UNL     1     -41.763  56.862 -51.511  1.00  0.00    -0.263 N 
HETATM    3  O   UNL     1     -43.653  55.632 -51.199  1.00  0.00    -0.266 OA
HETATM    4  H   UNL     1     -40.785  56.941 -51.768  1.00  0.00     0.190 HD
ENDROOT
BRANCH   2   5
HETATM    5  N   UNL     1     -42.361  57.934 -50.827  1.00  0.00    -0.263 N 
HETATM    6  C   UNL     1     -42.320  59.190 -51.405  1.00  0.00     0.270 C 
HETATM    7  O   UNL     1     -41.574  59.494 -52.329  1.00  0.00    -0.266 OA
HETATM    8  H   UNL     1     -43.198  57.661 -50.309  1.00  0.00     0.190 HD
BRANCH   6   9
HETATM    9  C   UNL     1     -43.309  60.161 -50.852  1.00  0.00     0.033 A 
HETATM   10  C   UNL     1     -42.917  61.432 -50.413  1.00  0.00     0.020 A 
HETATM   11  C   UNL     1     -43.847  62.273 -49.800  1.00  0.00     0.038 A 
HETATM   12  C   UNL     1     -45.170  61.863 -49.621  1.00  0.00     0.068 A 
HETATM   13  C   UNL     1     -45.576  60.623 -50.117  1.00  0.00     0.038 A 
HETATM   14  C   UNL     1     -44.648  59.773 -50.731  1.00  0.00     0.020 A 
BRANCH  12  15
HETATM   15  O   UNL     1     -45.955  62.762 -48.957  1.00  0.00    -0.352 OA
BRANCH  15  16
HETATM   16  C   UNL     1     -46.601  62.305 -47.770  1.00  0.00     0.171 C 
HETATM   17  C   UNL     1     -45.694  62.628 -46.595  1.00  0.00     0.034 C 
ENDBRANCH  15  16
ENDBRANCH  12  15
ENDBRANCH   6   9
ENDBRANCH   2   5
BRANCH   1  18
HETATM   18  C   UNL     1     -41.814  54.564 -52.180  1.00  0.00     0.077 A 
HETATM   19  C   UNL     1     -41.756  54.298 -53.566  1.00  0.00     0.158 A 
HETATM   20  N   UNL     1     -41.005  53.244 -53.863  1.00  0.00    -0.183 NA
HETATM   21  N   UNL     1     -40.540  52.832 -52.668  1.00  0.00    -0.268 N 
HETATM   22  C   UNL     1     -40.987  53.606 -51.609  1.00  0.00     0.052 A 
BRANCH  21  23
HETATM   23  C   UNL     1     -39.559  51.745 -52.633  1.00  0.00     0.106 C 
HETATM   24  C   UNL     1     -39.713  50.872 -53.881  1.00  0.00     0.034 C 
BRANCH  23  25
HETATM   25  C   UNL     1     -39.631  50.870 -51.362  1.00  0.00     0.022 C 
HETATM   26  C   UNL     1     -39.733  49.381 -51.665  1.00  0.00     0.007 C 
ENDBRANCH  23  25
ENDBRANCH  21  23
BRANCH  22  27
HETATM   27  C   UNL     1     -40.501  53.431 -50.168  1.00  0.00     0.038 A 
HETATM   28  C   UNL     1     -39.518  54.419 -49.579  1.00  0.00     0.011 A 
HETATM   29  C   UNL     1     -40.915  54.367 -49.060  1.00  0.00     0.011 A 
ENDBRANCH  22  27
ENDBRANCH   1  18
TORSDOF 8
ENDMDL
MODEL 8
REMARK VINA RESULT:      -6.7      6.137      9.111
REMARK  8 active torsions:
REMARK  status: ('A' for Active; 'I' for Inactive)
REMARK    1  A    between atoms: C_2  and  C_3 
REMARK    2  A    between atoms: C_3  and  N_4 
REMARK    3  A    between atoms: C_7  and  C_8 
REMARK       I    between atoms: C_8  and  N_9 
REMARK    4  A    between atoms: N_9  and  N_10 
REMARK       I    between atoms: N_10  and  C_11 
REMARK    5  A    between atoms: C_11  and  C_12 
REMARK    6  A    between atoms: C_15  and  O_16 
REMARK    7  A    between atoms: O_16  and  C_17 
REMARK    8  A    between atoms: C_23  and  C_24 
ROOT
HETATM    1  C   UNL     1     -43.834  57.035 -51.372  1.00  0.00     0.273 C 
HETATM    2  N   UNL     1     -43.411  58.343 -51.456  1.00  0.00    -0.263 N 
HETATM    3  O   UNL     1     -44.712  56.693 -50.579  1.00  0.00    -0.266 OA
HETATM    4  H   UNL     1     -42.628  58.653 -52.022  1.00  0.00     0.190 HD
ENDROOT
BRANCH   2   5
HETATM    5  N   UNL     1     -43.997  59.262 -50.570  1.00  0.00    -0.263 N 
HETATM    6  C   UNL     1     -43.326  60.441 -50.303  1.00  0.00     0.270 C 
HETATM    7  O   UNL     1     -42.144  60.630 -50.565  1.00  0.00    -0.266 OA
HETATM    8  H   UNL     1     -45.017  59.282 -50.630  1.00  0.00     0.190 HD
BRANCH   6   9
HETATM    9  C   UNL     1     -44.173  61.518 -49.711  1.00  0.00     0.033 A 
HETATM   10  C   UNL     1     -43.717  62.838 -49.618  1.00  0.00     0.020 A 
HETATM   11  C   UNL     1     -44.489  63.797 -48.960  1.00  0.00     0.038 A 
HETATM   12  C   UNL     1     -45.719  63.455 -48.394  1.00  0.00     0.068 A 
HETATM   13  C   UNL     1     -46.205  62.155 -48.544  1.00  0.00     0.038 A 
HETATM   14  C   UNL     1     -45.434  61.187 -49.201  1.00  0.00     0.020 A 
BRANCH  12  15
HETATM   15  O   UNL     1     -46.341  64.475 -47.733  1.00  0.00    -0.352 OA
BRANCH  15  16
HETATM   16  C   UNL     1     -47.418  64.125 -46.866  1.00  0.00     0.171 C 
HETATM   17  C   UNL     1     -46.900  64.175 -45.439  1.00  0.00     0.034 C 
ENDBRANCH  15  16
ENDBRANCH  12  15
ENDBRANCH   6   9
ENDBRANCH   2   5
BRANCH   1  18
HETATM   18  C   UNL     1     -43.098  56.077 -52.160  1.00  0.00     0.077 A 
HETATM   19  C   UNL     1     -43.492  55.700 -53.464  1.00  0.00     0.158 A 
HETATM   20  N   UNL     1     -42.636  54.869 -54.047  1.00  0.00    -0.183 NA
HETATM   21  N   UNL     1     -41.657  54.722 -53.135  1.00  0.00    -0.268 N 
HETATM   22  C   UNL     1     -41.876  55.443 -51.972  1.00  0.00     0.052 A 
BRANCH  21  23
HETATM   23  C   UNL     1     -40.464  53.955 -53.502  1.00  0.00     0.106 C 
HETATM   24  C   UNL     1     -40.185  54.123 -54.998  1.00  0.00     0.034 C 
BRANCH  23  25
HETATM   25  C   UNL     1     -40.541  52.455 -53.143  1.00  0.00     0.022 C 
HETATM   26  C   UNL     1     -39.836  51.560 -54.153  1.00  0.00     0.007 C 
ENDBRANCH  23  25
ENDBRANCH  21  23
BRANCH  22  27
HETATM   27  C   UNL     1     -40.854  55.553 -50.837  1.00  0.00     0.038 A 
HETATM   28  C   UNL     1     -41.302  55.389 -49.402  1.00  0.00     0.011 A 
HETATM   29  C   UNL     1     -40.423  54.358 -50.024  1.00  0.00     0.011 A 
ENDBRANCH  22  27
ENDBRANCH   1  18
TORSDOF 8
ENDMDL
MODEL 9
REMARK VINA RESULT:      -6.6      2.563      9.864
REMARK  8 active torsions:
REMARK  status: ('A' for Active; 'I' for Inactive)
REMARK    1  A    between atoms: C_2  and  C_3 
REMARK    2  A    between atoms: C_3  and  N_4 
REMARK    3  A    between atoms: C_7  and  C_8 
REMARK       I    between atoms: C_8  and  N_9 
REMARK    4  A    between atoms: N_9  and  N_10 
REMARK       I    between atoms: N_10  and  C_11 
REMARK    5  A    between atoms: C_11  and  C_12 
REMARK    6  A    between atoms: C_15  and  O_16 
REMARK    7  A    between atoms: O_16  and  C_17 
REMARK    8  A    between atoms: C_23  and  C_24 
ROOT
HETATM    1  C   UNL     1     -43.350  56.741 -58.152  1.00  0.00     0.273 C 
HETATM    2  N   UNL     1     -42.793  57.041 -56.928  1.00  0.00    -0.263 N 
HETATM    3  O   UNL     1     -43.143  55.661 -58.706  1.00  0.00    -0.266 OA
HETATM    4  H   UNL     1     -42.857  57.949 -56.480  1.00  0.00     0.190 HD
ENDROOT
BRANCH   2   5
HETATM    5  N   UNL     1     -41.944  56.076 -56.360  1.00  0.00    -0.263 N 
HETATM    6  C   UNL     1     -41.533  56.249 -55.052  1.00  0.00     0.270 C 
HETATM    7  O   UNL     1     -41.627  57.306 -54.438  1.00  0.00    -0.266 OA
HETATM    8  H   UNL     1     -42.137  55.128 -56.692  1.00  0.00     0.190 HD
BRANCH   6   9
HETATM    9  C   UNL     1     -41.002  55.016 -54.399  1.00  0.00     0.033 A 
HETATM   10  C   UNL     1     -40.502  53.948 -55.154  1.00  0.00     0.020 A 
HETATM   11  C   UNL     1     -40.116  52.766 -54.518  1.00  0.00     0.038 A 
HETATM   12  C   UNL     1     -40.218  52.638 -53.132  1.00  0.00     0.068 A 
HETATM   13  C   UNL     1     -40.654  53.725 -52.373  1.00  0.00     0.038 A 
HETATM   14  C   UNL     1     -41.046  54.912 -53.005  1.00  0.00     0.020 A 
BRANCH  12  15
HETATM   15  O   UNL     1     -39.860  51.411 -52.650  1.00  0.00    -0.352 OA
BRANCH  15  16
HETATM   16  C   UNL     1     -39.773  51.271 -51.232  1.00  0.00     0.171 C 
HETATM   17  C   UNL     1     -39.551  49.800 -50.925  1.00  0.00     0.034 C 
ENDBRANCH  15  16
ENDBRANCH  12  15
ENDBRANCH   6   9
ENDBRANCH   2   5
BRANCH   1  18
HETATM   18  C   UNL     1     -44.071  57.809 -58.801  1.00  0.00     0.077 A 
HETATM   19  C   UNL     1     -43.478  59.055 -59.102  1.00  0.00     0.158 A 
HETATM   20  N   UNL     1     -44.286  59.869 -59.771  1.00  0.00    -0.183 NA
HETATM   21  N   UNL     1     -45.408  59.143 -59.938  1.00  0.00    -0.268 N 
HETATM   22  C   UNL     1     -45.331  57.877 -59.381  1.00  0.00     0.052 A 
BRANCH  21  23
HETATM   23  C   UNL     1     -46.487  59.697 -60.760  1.00  0.00     0.106 C 
HETATM   24  C   UNL     1     -45.916  60.742 -61.722  1.00  0.00     0.034 C 
BRANCH  23  25
HETATM   25  C   UNL     1     -47.652  60.304 -59.949  1.00  0.00     0.022 C 
HETATM   26  C   UNL     1     -48.985  60.254 -60.684  1.00  0.00     0.007 C 
ENDBRANCH  23  25
ENDBRANCH  21  23
BRANCH  22  27
HETATM   27  C   UNL     1     -46.417  56.810 -59.548  1.00  0.00     0.038 A 
HETATM   28  C   UNL     1     -47.011  56.546 -60.914  1.00  0.00     0.011 A 
HETATM   29  C   UNL     1     -46.163  55.507 -60.263  1.00  0.00     0.011 A 
ENDBRANCH  22  27
ENDBRANCH   1  18
TORSDOF 8
ENDMDL
MODEL 10
REMARK VINA RESULT:      -6.6      2.432      9.613
REMARK  8 active torsions:
REMARK  status: ('A' for Active; 'I' for Inactive)
REMARK    1  A    between atoms: C_2  and  C_3 
REMARK    2  A    between atoms: C_3  and  N_4 
REMARK    3  A    between atoms: C_7  and  C_8 
REMARK       I    between atoms: C_8  and  N_9 
REMARK    4  A    between atoms: N_9  and  N_10 
REMARK       I    between atoms: N_10  and  C_11 
REMARK    5  A    between atoms: C_11  and  C_12 
REMARK    6  A    between atoms: C_15  and  O_16 
REMARK    7  A    between atoms: O_16  and  C_17 
REMARK    8  A    between atoms: C_23  and  C_24 
ROOT
HETATM    1  C   UNL     1     -43.333  57.394 -56.360  1.00  0.00     0.273 C 
HETATM    2  N   UNL     1     -44.193  56.435 -55.871  1.00  0.00    -0.263 N 
HETATM    3  O   UNL     1     -42.253  57.625 -55.817  1.00  0.00    -0.266 OA
HETATM    4  H   UNL     1     -45.130  56.277 -56.225  1.00  0.00     0.190 HD
ENDROOT
BRANCH   2   5
HETATM    5  N   UNL     1     -43.800  55.763 -54.701  1.00  0.00    -0.263 N 
HETATM    6  C   UNL     1     -43.250  54.500 -54.820  1.00  0.00     0.270 C 
HETATM    7  O   UNL     1     -43.325  53.813 -55.832  1.00  0.00    -0.266 OA
HETATM    8  H   UNL     1     -43.435  56.391 -53.982  1.00  0.00     0.190 HD
BRANCH   6   9
HETATM    9  C   UNL     1     -42.490  54.039 -53.621  1.00  0.00     0.033 A 
HETATM   10  C   UNL     1     -42.968  54.261 -52.324  1.00  0.00     0.020 A 
HETATM   11  C   UNL     1     -42.181  53.915 -51.224  1.00  0.00     0.038 A 
HETATM   12  C   UNL     1     -40.919  53.343 -51.402  1.00  0.00     0.068 A 
HETATM   13  C   UNL     1     -40.471  53.061 -52.694  1.00  0.00     0.038 A 
HETATM   14  C   UNL     1     -41.254  53.408 -53.802  1.00  0.00     0.020 A 
BRANCH  12  15
HETATM   15  O   UNL     1     -40.236  53.108 -50.243  1.00  0.00    -0.352 OA
BRANCH  15  16
HETATM   16  C   UNL     1     -39.858  54.247 -49.471  1.00  0.00     0.171 C 
HETATM   17  C   UNL     1     -40.326  54.015 -48.044  1.00  0.00     0.034 C 
ENDBRANCH  15  16
ENDBRANCH  12  15
ENDBRANCH   6   9
ENDBRANCH   2   5
BRANCH   1  18
HETATM   18  C   UNL     1     -43.829  58.195 -57.452  1.00  0.00     0.077 A 
HETATM   19  C   UNL     1     -44.242  59.536 -57.287  1.00  0.00     0.158 A 
HETATM   20  N   UNL     1     -44.588  60.119 -58.429  1.00  0.00    -0.183 NA
HETATM   21  N   UNL     1     -44.372  59.166 -59.356  1.00  0.00    -0.268 N 
HETATM   22  C   UNL     1     -43.897  57.979 -58.823  1.00  0.00     0.052 A 
BRANCH  21  23
HETATM   23  C   UNL     1     -44.532  59.512 -60.770  1.00  0.00     0.106 C 
HETATM   24  C   UNL     1     -43.453  60.519 -61.179  1.00  0.00     0.034 C 
BRANCH  23  25
HETATM   25  C   UNL     1     -45.930  60.059 -61.133  1.00  0.00     0.022 C 
HETATM   26  C   UNL     1     -45.915  61.528 -61.532  1.00  0.00     0.007 C 
ENDBRANCH  23  25
ENDBRANCH  21  23
BRANCH  22  27
HETATM   27  C   UNL     1     -43.447  56.788 -59.673  1.00  0.00     0.038 A 
HETATM   28  C   UNL     1     -43.889  55.389 -59.305  1.00  0.00     0.011 A 
HETATM   29  C   UNL     1     -44.402  56.022 -60.554  1.00  0.00     0.011 A 
ENDBRANCH  22  27
ENDBRANCH   1  18
TORSDOF 8
ENDMDL
