MODEL 1
REMARK VINA RESULT:      -8.5      0.000      0.000
REMARK  3 active torsions:
REMARK  status: ('A' for Active; 'I' for Inactive)
REMARK    1  A    between atoms: C_5  and  C_6 
REMARK    2  A    between atoms: C_10  and  C_11 
REMARK       I    between atoms: C_11  and  N_12 
REMARK    3  A    between atoms: N_12  and  N_13 
ROOT
HETATM    1  C   UNL     1     -43.662  56.501 -56.033  1.00  0.00     0.289 C 
HETATM    2  N   UNL     1     -43.690  56.525 -57.418  1.00  0.00    -0.241 N 
HETATM    3  O   UNL     1     -44.431  57.140 -55.317  1.00  0.00    -0.264 OA
HETATM    4  H   UNL     1     -43.018  55.984 -57.960  1.00  0.00     0.192 HD
ENDROOT
BRANCH   1   5
HETATM    5  C   UNL     1     -42.637  55.666 -55.462  1.00  0.00     0.121 A 
HETATM    6  N   UNL     1     -41.320  55.857 -55.773  1.00  0.00    -0.272 N 
HETATM    7  N   UNL     1     -40.484  54.988 -55.191  1.00  0.00    -0.174 NA
HETATM    8  H   UNL     1     -40.942  56.568 -56.393  1.00  0.00     0.189 HD
HETATM    9  C   UNL     1     -41.275  54.201 -54.444  1.00  0.00     0.089 A 
HETATM   10  C   UNL     1     -42.637  54.596 -54.588  1.00  0.00     0.071 A 
BRANCH   9  11
HETATM   11  C   UNL     1     -40.725  53.107 -53.637  1.00  0.00    -0.006 A 
HETATM   12  C   UNL     1     -40.368  51.882 -54.217  1.00  0.00     0.014 A 
HETATM   13  C   UNL     1     -39.840  50.848 -53.436  1.00  0.00     0.007 A 
HETATM   14  C   UNL     1     -39.667  51.015 -52.058  1.00  0.00    -0.062 A 
HETATM   15  C   UNL     1     -39.076  49.922 -51.218  1.00  0.00     0.048 C 
HETATM   16  C   UNL     1     -40.012  52.238 -51.475  1.00  0.00     0.007 A 
HETATM   17  C   UNL     1     -40.542  53.269 -52.256  1.00  0.00     0.014 A 
ENDBRANCH   9  11
ENDBRANCH   1   5
BRANCH   2  18
HETATM   18  N   UNL     1     -44.595  57.309 -58.080  1.00  0.00    -0.165 NA
HETATM   19  C   UNL     1     -45.224  56.760 -59.069  1.00  0.00     0.157 A 
HETATM   20  C   UNL     1     -45.095  55.331 -59.605  1.00  0.00     0.277 A 
HETATM   21  C   UNL     1     -46.217  57.414 -59.912  1.00  0.00     0.027 A 
HETATM   22  O   UNL     1     -44.353  54.487 -59.146  1.00  0.00    -0.266 OA
HETATM   23  N   UNL     1     -45.971  55.251 -60.665  1.00  0.00    -0.321 N 
HETATM   24  C   UNL     1     -46.628  56.466 -60.849  1.00  0.00     0.048 A 
HETATM   25  H   UNL     1     -46.101  54.419 -61.220  1.00  0.00     0.169 HD
HETATM   26  C   UNL     1     -47.570  56.773 -61.808  1.00  0.00     0.030 A 
HETATM   27  C   UNL     1     -48.095  58.072 -61.800  1.00  0.00     0.002 A 
HETATM   28  C   UNL     1     -47.673  59.025 -60.848  1.00  0.00     0.001 A 
HETATM   29  C   UNL     1     -46.717  58.698 -59.884  1.00  0.00     0.016 A 
ENDBRANCH   2  18
TORSDOF 3
ENDMDL
MODEL 2
REMARK VINA RESULT:      -8.5      5.739      9.953
REMARK  3 active torsions:
REMARK  status: ('A' for Active; 'I' for Inactive)
REMARK    1  A    between atoms: C_5  and  C_6 
REMARK    2  A    between atoms: C_10  and  C_11 
REMARK       I    between atoms: C_11  and  N_12 
REMARK    3  A    between atoms: N_12  and  N_13 
ROOT
HETATM    1  C   UNL     1     -42.418  56.312 -52.963  1.00  0.00     0.289 C 
HETATM    2  N   UNL     1     -41.137  55.789 -53.028  1.00  0.00    -0.241 N 
HETATM    3  O   UNL     1     -43.426  55.717 -53.337  1.00  0.00    -0.264 OA
HETATM    4  H   UNL     1     -40.336  56.335 -52.714  1.00  0.00     0.192 HD
ENDROOT
BRANCH   1   5
HETATM    5  C   UNL     1     -42.500  57.645 -52.422  1.00  0.00     0.121 A 
HETATM    6  N   UNL     1     -41.527  58.570 -52.679  1.00  0.00    -0.272 N 
HETATM    7  N   UNL     1     -41.722  59.755 -52.087  1.00  0.00    -0.174 NA
HETATM    8  H   UNL     1     -40.698  58.432 -53.248  1.00  0.00     0.189 HD
HETATM    9  C   UNL     1     -42.885  59.620 -51.429  1.00  0.00     0.089 A 
HETATM   10  C   UNL     1     -43.405  58.307 -51.615  1.00  0.00     0.071 A 
BRANCH   9  11
HETATM   11  C   UNL     1     -43.453  60.722 -50.644  1.00  0.00    -0.006 A 
HETATM   12  C   UNL     1     -44.659  60.572 -49.945  1.00  0.00     0.014 A 
HETATM   13  C   UNL     1     -45.187  61.630 -49.197  1.00  0.00     0.007 A 
HETATM   14  C   UNL     1     -44.526  62.861 -49.140  1.00  0.00    -0.062 A 
HETATM   15  C   UNL     1     -45.070  63.991 -48.317  1.00  0.00     0.048 C 
HETATM   16  C   UNL     1     -43.318  63.013 -49.827  1.00  0.00     0.007 A 
HETATM   17  C   UNL     1     -42.792  61.956 -50.577  1.00  0.00     0.014 A 
ENDBRANCH   9  11
ENDBRANCH   1   5
BRANCH   2  18
HETATM   18  N   UNL     1     -40.922  54.545 -53.556  1.00  0.00    -0.165 NA
HETATM   19  C   UNL     1     -40.550  53.621 -52.730  1.00  0.00     0.157 A 
HETATM   20  C   UNL     1     -40.317  53.729 -51.220  1.00  0.00     0.277 A 
HETATM   21  C   UNL     1     -40.259  52.236 -53.079  1.00  0.00     0.027 A 
HETATM   22  O   UNL     1     -40.463  54.745 -50.572  1.00  0.00    -0.266 OA
HETATM   23  N   UNL     1     -39.928  52.473 -50.813  1.00  0.00    -0.321 N 
HETATM   24  C   UNL     1     -39.891  51.597 -51.896  1.00  0.00     0.048 A 
HETATM   25  H   UNL     1     -39.701  52.241 -49.858  1.00  0.00     0.169 HD
HETATM   26  C   UNL     1     -39.545  50.262 -51.884  1.00  0.00     0.030 A 
HETATM   27  C   UNL     1     -39.579  49.578 -53.107  1.00  0.00     0.002 A 
HETATM   28  C   UNL     1     -39.952  50.234 -54.300  1.00  0.00     0.001 A 
HETATM   29  C   UNL     1     -40.300  51.586 -54.295  1.00  0.00     0.016 A 
ENDBRANCH   2  18
TORSDOF 3
ENDMDL
MODEL 3
REMARK VINA RESULT:      -8.4      6.280      8.200
REMARK  3 active torsions:
REMARK  status: ('A' for Active; 'I' for Inactive)
REMARK    1  A    between atoms: C_5  and  C_6 
REMARK    2  A    between atoms: C_10  and  C_11 
REMARK       I    between atoms: C_11  and  N_12 
REMARK    3  A    between atoms: N_12  and  N_13 
ROOT
HETATM    1  C   UNL     1     -44.081  57.275 -51.064  1.00  0.00     0.289 C 
HETATM    2  N   UNL     1     -43.791  58.628 -51.127  1.00  0.00    -0.241 N 
HETATM    3  O   UNL     1     -45.102  56.811 -50.562  1.00  0.00    -0.264 OA
HETATM    4  H   UNL     1     -42.921  58.954 -51.545  1.00  0.00     0.192 HD
ENDROOT
BRANCH   1   5
HETATM    5  C   UNL     1     -43.074  56.414 -51.632  1.00  0.00     0.121 A 
HETATM    6  N   UNL     1     -41.949  56.932 -52.209  1.00  0.00    -0.272 N 
HETATM    7  N   UNL     1     -41.118  56.014 -52.718  1.00  0.00    -0.174 NA
HETATM    8  H   UNL     1     -41.709  57.916 -52.288  1.00  0.00     0.189 HD
HETATM    9  C   UNL     1     -41.703  54.836 -52.449  1.00  0.00     0.089 A 
HETATM   10  C   UNL     1     -42.937  55.046 -51.766  1.00  0.00     0.071 A 
BRANCH   9  11
HETATM   11  C   UNL     1     -41.091  53.566 -52.852  1.00  0.00    -0.006 A 
HETATM   12  C   UNL     1     -40.222  52.873 -51.997  1.00  0.00     0.014 A 
HETATM   13  C   UNL     1     -39.648  51.659 -52.393  1.00  0.00     0.007 A 
HETATM   14  C   UNL     1     -39.925  51.119 -53.653  1.00  0.00    -0.062 A 
HETATM   15  C   UNL     1     -39.336  49.805 -54.074  1.00  0.00     0.048 C 
HETATM   16  C   UNL     1     -40.798  51.801 -54.506  1.00  0.00     0.007 A 
HETATM   17  C   UNL     1     -41.369  53.015 -54.110  1.00  0.00     0.014 A 
ENDBRANCH   9  11
ENDBRANCH   1   5
BRANCH   2  18
HETATM   18  N   UNL     1     -44.651  59.547 -50.590  1.00  0.00    -0.165 NA
HETATM   19  C   UNL     1     -44.172  60.728 -50.367  1.00  0.00     0.157 A 
HETATM   20  C   UNL     1     -42.756  61.248 -50.631  1.00  0.00     0.277 A 
HETATM   21  C   UNL     1     -44.907  61.849 -49.794  1.00  0.00     0.027 A 
HETATM   22  O   UNL     1     -41.857  60.587 -51.109  1.00  0.00    -0.266 OA
HETATM   23  N   UNL     1     -42.759  62.561 -50.216  1.00  0.00    -0.321 N 
HETATM   24  C   UNL     1     -44.013  62.917 -49.725  1.00  0.00     0.048 A 
HETATM   25  H   UNL     1     -41.952  63.164 -50.267  1.00  0.00     0.169 HD
HETATM   26  C   UNL     1     -44.400  64.140 -49.219  1.00  0.00     0.030 A 
HETATM   27  C   UNL     1     -45.724  64.263 -48.778  1.00  0.00     0.002 A 
HETATM   28  C   UNL     1     -46.623  63.176 -48.851  1.00  0.00     0.001 A 
HETATM   29  C   UNL     1     -46.214  61.944 -49.366  1.00  0.00     0.016 A 
ENDBRANCH   2  18
TORSDOF 3
ENDMDL
MODEL 4
REMARK VINA RESULT:      -8.4      5.374      6.416
REMARK  3 active torsions:
REMARK  status: ('A' for Active; 'I' for Inactive)
REMARK    1  A    between atoms: C_5  and  C_6 
REMARK    2  A    between atoms: C_10  and  C_11 
REMARK       I    between atoms: C_11  and  N_12 
REMARK    3  A    between atoms: N_12  and  N_13 
ROOT
HETATM    1  C   UNL     1     -42.128  58.152 -51.045  1.00  0.00     0.289 C 
HETATM    2  N   UNL     1     -43.503  58.313 -51.011  1.00  0.00    -0.241 N 
HETATM    3  O   UNL     1     -41.324  59.080 -51.003  1.00  0.00    -0.264 OA
HETATM    4  H   UNL     1     -44.122  57.506 -51.063  1.00  0.00     0.192 HD
ENDROOT
BRANCH   1   5
HETATM    5  C   UNL     1     -41.681  56.786 -51.150  1.00  0.00     0.121 A 
HETATM    6  N   UNL     1     -41.386  56.055 -50.033  1.00  0.00    -0.272 N 
HETATM    7  N   UNL     1     -40.956  54.812 -50.285  1.00  0.00    -0.174 NA
HETATM    8  H   UNL     1     -41.453  56.370 -49.070  1.00  0.00     0.189 HD
HETATM    9  C   UNL     1     -40.989  54.704 -51.623  1.00  0.00     0.089 A 
HETATM   10  C   UNL     1     -41.440  55.926 -52.203  1.00  0.00     0.071 A 
BRANCH   9  11
HETATM   11  C   UNL     1     -40.586  53.468 -52.302  1.00  0.00    -0.006 A 
HETATM   12  C   UNL     1     -39.865  52.471 -51.632  1.00  0.00     0.014 A 
HETATM   13  C   UNL     1     -39.491  51.294 -52.291  1.00  0.00     0.007 A 
HETATM   14  C   UNL     1     -39.824  51.095 -53.635  1.00  0.00    -0.062 A 
HETATM   15  C   UNL     1     -39.452  49.825 -54.341  1.00  0.00     0.048 C 
HETATM   16  C   UNL     1     -40.551  52.083 -54.306  1.00  0.00     0.007 A 
HETATM   17  C   UNL     1     -40.922  53.259 -53.647  1.00  0.00     0.014 A 
ENDBRANCH   9  11
ENDBRANCH   1   5
BRANCH   2  18
HETATM   18  N   UNL     1     -44.053  59.565 -50.950  1.00  0.00    -0.165 NA
HETATM   19  C   UNL     1     -44.741  59.947 -51.977  1.00  0.00     0.157 A 
HETATM   20  C   UNL     1     -45.032  59.177 -53.269  1.00  0.00     0.277 A 
HETATM   21  C   UNL     1     -45.402  61.237 -52.126  1.00  0.00     0.027 A 
HETATM   22  O   UNL     1     -44.638  58.053 -53.505  1.00  0.00    -0.266 OA
HETATM   23  N   UNL     1     -45.798  60.022 -54.041  1.00  0.00    -0.321 N 
HETATM   24  C   UNL     1     -46.015  61.228 -53.377  1.00  0.00     0.048 A 
HETATM   25  H   UNL     1     -46.141  59.782 -54.959  1.00  0.00     0.169 HD
HETATM   26  C   UNL     1     -46.729  62.317 -53.831  1.00  0.00     0.030 A 
HETATM   27  C   UNL     1     -46.811  63.430 -52.982  1.00  0.00     0.002 A 
HETATM   28  C   UNL     1     -46.185  63.431 -51.717  1.00  0.00     0.001 A 
HETATM   29  C   UNL     1     -45.466  62.319 -51.273  1.00  0.00     0.016 A 
ENDBRANCH   2  18
TORSDOF 3
ENDMDL
MODEL 5
REMARK VINA RESULT:      -8.3      3.892      4.409
REMARK  3 active torsions:
REMARK  status: ('A' for Active; 'I' for Inactive)
REMARK    1  A    between atoms: C_5  and  C_6 
REMARK    2  A    between atoms: C_10  and  C_11 
REMARK       I    between atoms: C_11  and  N_12 
REMARK    3  A    between atoms: N_12  and  N_13 
ROOT
HETATM    1  C   UNL     1     -41.251  58.620 -54.147  1.00  0.00     0.289 C 
HETATM    2  N   UNL     1     -41.878  58.778 -55.372  1.00  0.00    -0.241 N 
HETATM    3  O   UNL     1     -40.751  59.541 -53.504  1.00  0.00    -0.264 OA
HETATM    4  H   UNL     1     -42.264  57.974 -55.865  1.00  0.00     0.192 HD
ENDROOT
BRANCH   1   5
HETATM    5  C   UNL     1     -41.209  57.265 -53.659  1.00  0.00     0.121 A 
HETATM    6  N   UNL     1     -41.785  56.928 -52.466  1.00  0.00    -0.272 N 
HETATM    7  N   UNL     1     -41.641  55.640 -52.128  1.00  0.00    -0.174 NA
HETATM    8  H   UNL     1     -42.281  57.552 -51.837  1.00  0.00     0.189 HD
HETATM    9  C   UNL     1     -40.962  55.093 -53.150  1.00  0.00     0.089 A 
HETATM   10  C   UNL     1     -40.671  56.084 -54.132  1.00  0.00     0.071 A 
BRANCH   9  11
HETATM   11  C   UNL     1     -40.604  53.671 -53.157  1.00  0.00    -0.006 A 
HETATM   12  C   UNL     1     -40.702  52.901 -54.324  1.00  0.00     0.014 A 
HETATM   13  C   UNL     1     -40.352  51.546 -54.318  1.00  0.00     0.007 A 
HETATM   14  C   UNL     1     -39.905  50.932 -53.143  1.00  0.00    -0.062 A 
HETATM   15  C   UNL     1     -39.502  49.488 -53.134  1.00  0.00     0.048 C 
HETATM   16  C   UNL     1     -39.796  51.697 -51.978  1.00  0.00     0.007 A 
HETATM   17  C   UNL     1     -40.149  53.050 -51.985  1.00  0.00     0.014 A 
ENDBRANCH   9  11
ENDBRANCH   1   5
BRANCH   2  18
HETATM   18  N   UNL     1     -41.952  60.012 -55.959  1.00  0.00    -0.165 NA
HETATM   19  C   UNL     1     -42.014  60.036 -57.251  1.00  0.00     0.157 A 
HETATM   20  C   UNL     1     -42.021  58.855 -58.228  1.00  0.00     0.277 A 
HETATM   21  C   UNL     1     -42.088  61.235 -58.077  1.00  0.00     0.027 A 
HETATM   22  O   UNL     1     -41.970  57.688 -57.898  1.00  0.00    -0.266 OA
HETATM   23  N   UNL     1     -42.093  59.413 -59.484  1.00  0.00    -0.321 N 
HETATM   24  C   UNL     1     -42.131  60.803 -59.401  1.00  0.00     0.048 A 
HETATM   25  H   UNL     1     -42.112  58.871 -60.335  1.00  0.00     0.169 HD
HETATM   26  C   UNL     1     -42.200  61.704 -60.443  1.00  0.00     0.030 A 
HETATM   27  C   UNL     1     -42.224  63.066 -60.115  1.00  0.00     0.002 A 
HETATM   28  C   UNL     1     -42.179  63.494 -58.770  1.00  0.00     0.001 A 
HETATM   29  C   UNL     1     -42.109  62.569 -57.727  1.00  0.00     0.016 A 
ENDBRANCH   2  18
TORSDOF 3
ENDMDL
MODEL 6
REMARK VINA RESULT:      -8.3      3.699      4.845
REMARK  3 active torsions:
REMARK  status: ('A' for Active; 'I' for Inactive)
REMARK    1  A    between atoms: C_5  and  C_6 
REMARK    2  A    between atoms: C_10  and  C_11 
REMARK       I    between atoms: C_11  and  N_12 
REMARK    3  A    between atoms: N_12  and  N_13 
ROOT
HETATM    1  C   UNL     1     -42.737  56.183 -56.937  1.00  0.00     0.289 C 
HETATM    2  N   UNL     1     -42.116  57.411 -57.099  1.00  0.00    -0.241 N 
HETATM    3  O   UNL     1     -43.287  55.565 -57.845  1.00  0.00    -0.264 OA
HETATM    4  H   UNL     1     -41.687  57.884 -56.305  1.00  0.00     0.192 HD
ENDROOT
BRANCH   1   5
HETATM    5  C   UNL     1     -42.710  55.663 -55.594  1.00  0.00     0.121 A 
HETATM    6  N   UNL     1     -43.761  54.946 -55.095  1.00  0.00    -0.272 N 
HETATM    7  N   UNL     1     -43.607  54.552 -53.825  1.00  0.00    -0.174 NA
HETATM    8  H   UNL     1     -44.618  54.710 -55.586  1.00  0.00     0.189 HD
HETATM    9  C   UNL     1     -42.393  55.005 -53.472  1.00  0.00     0.089 A 
HETATM   10  C   UNL     1     -41.796  55.709 -54.558  1.00  0.00     0.071 A 
BRANCH   9  11
HETATM   11  C   UNL     1     -41.847  54.769 -52.131  1.00  0.00    -0.006 A 
HETATM   12  C   UNL     1     -42.202  55.584 -51.047  1.00  0.00     0.014 A 
HETATM   13  C   UNL     1     -41.677  55.346 -49.772  1.00  0.00     0.007 A 
HETATM   14  C   UNL     1     -40.782  54.293 -49.557  1.00  0.00    -0.062 A 
HETATM   15  C   UNL     1     -40.237  54.013 -48.188  1.00  0.00     0.048 C 
HETATM   16  C   UNL     1     -40.432  53.471 -50.632  1.00  0.00     0.007 A 
HETATM   17  C   UNL     1     -40.955  53.712 -51.906  1.00  0.00     0.014 A 
ENDBRANCH   9  11
ENDBRANCH   1   5
BRANCH   2  18
HETATM   18  N   UNL     1     -42.107  58.028 -58.320  1.00  0.00    -0.165 NA
HETATM   19  C   UNL     1     -41.916  59.308 -58.321  1.00  0.00     0.157 A 
HETATM   20  C   UNL     1     -41.692  60.240 -57.126  1.00  0.00     0.277 A 
HETATM   21  C   UNL     1     -41.879  60.160 -59.503  1.00  0.00     0.027 A 
HETATM   22  O   UNL     1     -41.659  59.879 -55.968  1.00  0.00    -0.266 OA
HETATM   23  N   UNL     1     -41.548  61.500 -57.660  1.00  0.00    -0.321 N 
HETATM   24  C   UNL     1     -41.658  61.460 -59.049  1.00  0.00     0.048 A 
HETATM   25  H   UNL     1     -41.389  62.327 -57.104  1.00  0.00     0.169 HD
HETATM   26  C   UNL     1     -41.573  62.519 -59.928  1.00  0.00     0.030 A 
HETATM   27  C   UNL     1     -41.719  62.234 -61.292  1.00  0.00     0.002 A 
HETATM   28  C   UNL     1     -41.943  60.915 -61.744  1.00  0.00     0.001 A 
HETATM   29  C   UNL     1     -42.026  59.854 -60.839  1.00  0.00     0.016 A 
ENDBRANCH   2  18
TORSDOF 3
ENDMDL
MODEL 7
REMARK VINA RESULT:      -8.2      3.575      4.492
REMARK  3 active torsions:
REMARK  status: ('A' for Active; 'I' for Inactive)
REMARK    1  A    between atoms: C_5  and  C_6 
REMARK    2  A    between atoms: C_10  and  C_11 
REMARK       I    between atoms: C_11  and  N_12 
REMARK    3  A    between atoms: N_12  and  N_13 
ROOT
HETATM    1  C   UNL     1     -43.028  56.756 -57.469  1.00  0.00     0.289 C 
HETATM    2  N   UNL     1     -41.924  57.517 -57.814  1.00  0.00    -0.241 N 
HETATM    3  O   UNL     1     -44.122  56.836 -58.023  1.00  0.00    -0.264 OA
HETATM    4  H   UNL     1     -41.045  57.417 -57.309  1.00  0.00     0.192 HD
ENDROOT
BRANCH   1   5
HETATM    5  C   UNL     1     -42.814  55.841 -56.375  1.00  0.00     0.121 A 
HETATM    6  N   UNL     1     -43.822  55.542 -55.502  1.00  0.00    -0.272 N 
HETATM    7  N   UNL     1     -43.469  54.701 -54.521  1.00  0.00    -0.174 NA
HETATM    8  H   UNL     1     -44.772  55.900 -55.529  1.00  0.00     0.189 HD
HETATM    9  C   UNL     1     -42.181  54.411 -54.766  1.00  0.00     0.089 A 
HETATM   10  C   UNL     1     -41.733  55.109 -55.925  1.00  0.00     0.071 A 
BRANCH   9  11
HETATM   11  C   UNL     1     -41.422  53.503 -53.900  1.00  0.00    -0.006 A 
HETATM   12  C   UNL     1     -40.771  52.376 -54.419  1.00  0.00     0.014 A 
HETATM   13  C   UNL     1     -40.046  51.521 -53.582  1.00  0.00     0.007 A 
HETATM   14  C   UNL     1     -39.964  51.771 -52.208  1.00  0.00    -0.062 A 
HETATM   15  C   UNL     1     -39.166  50.876 -51.308  1.00  0.00     0.048 C 
HETATM   16  C   UNL     1     -40.603  52.899 -51.686  1.00  0.00     0.007 A 
HETATM   17  C   UNL     1     -41.329  53.752 -52.524  1.00  0.00     0.014 A 
ENDBRANCH   9  11
ENDBRANCH   1   5
BRANCH   2  18
HETATM   18  N   UNL     1     -42.010  58.449 -58.813  1.00  0.00    -0.165 NA
HETATM   19  C   UNL     1     -41.932  59.690 -58.456  1.00  0.00     0.157 A 
HETATM   20  C   UNL     1     -41.749  60.268 -57.050  1.00  0.00     0.277 A 
HETATM   21  C   UNL     1     -42.009  60.838 -59.351  1.00  0.00     0.027 A 
HETATM   22  O   UNL     1     -41.647  59.603 -56.040  1.00  0.00    -0.266 OA
HETATM   23  N   UNL     1     -41.735  61.636 -57.209  1.00  0.00    -0.321 N 
HETATM   24  C   UNL     1     -41.887  61.974 -58.552  1.00  0.00     0.048 A 
HETATM   25  H   UNL     1     -41.630  62.286 -56.444  1.00  0.00     0.169 HD
HETATM   26  C   UNL     1     -41.925  63.239 -59.099  1.00  0.00     0.030 A 
HETATM   27  C   UNL     1     -42.091  63.334 -60.487  1.00  0.00     0.002 A 
HETATM   28  C   UNL     1     -42.214  62.178 -61.289  1.00  0.00     0.001 A 
HETATM   29  C   UNL     1     -42.174  60.905 -60.719  1.00  0.00     0.016 A 
ENDBRANCH   2  18
TORSDOF 3
ENDMDL
MODEL 8
REMARK VINA RESULT:      -8.1     15.696     18.104
REMARK  3 active torsions:
REMARK  status: ('A' for Active; 'I' for Inactive)
REMARK    1  A    between atoms: C_5  and  C_6 
REMARK    2  A    between atoms: C_10  and  C_11 
REMARK       I    between atoms: C_11  and  N_12 
REMARK    3  A    between atoms: N_12  and  N_13 
ROOT
HETATM    1  C   UNL     1     -34.778  41.261 -53.109  1.00  0.00     0.289 C 
HETATM    2  N   UNL     1     -34.226  41.265 -54.379  1.00  0.00    -0.241 N 
HETATM    3  O   UNL     1     -35.929  41.608 -52.856  1.00  0.00    -0.264 OA
HETATM    4  H   UNL     1     -33.259  40.978 -54.526  1.00  0.00     0.192 HD
ENDROOT
BRANCH   1   5
HETATM    5  C   UNL     1     -33.889  40.820 -52.064  1.00  0.00     0.121 A 
HETATM    6  N   UNL     1     -32.538  40.766 -52.266  1.00  0.00    -0.272 N 
HETATM    7  N   UNL     1     -31.841  40.311 -51.217  1.00  0.00    -0.174 NA
HETATM    8  H   UNL     1     -32.044  41.020 -53.116  1.00  0.00     0.189 HD
HETATM    9  C   UNL     1     -32.764  40.076 -50.270  1.00  0.00     0.089 A 
HETATM   10  C   UNL     1     -34.065  40.384 -50.765  1.00  0.00     0.071 A 
BRANCH   9  11
HETATM   11  C   UNL     1     -32.392  39.562 -48.948  1.00  0.00    -0.006 A 
HETATM   12  C   UNL     1     -31.290  40.075 -48.251  1.00  0.00     0.014 A 
HETATM   13  C   UNL     1     -30.948  39.578 -46.988  1.00  0.00     0.007 A 
HETATM   14  C   UNL     1     -31.696  38.553 -46.401  1.00  0.00    -0.062 A 
HETATM   15  C   UNL     1     -31.355  38.034 -45.036  1.00  0.00     0.048 C 
HETATM   16  C   UNL     1     -32.803  38.043 -47.087  1.00  0.00     0.007 A 
HETATM   17  C   UNL     1     -33.141  38.538 -48.350  1.00  0.00     0.014 A 
ENDBRANCH   9  11
ENDBRANCH   1   5
BRANCH   2  18
HETATM   18  N   UNL     1     -34.957  41.697 -55.451  1.00  0.00    -0.165 NA
HETATM   19  C   UNL     1     -35.217  40.820 -56.367  1.00  0.00     0.157 A 
HETATM   20  C   UNL     1     -34.815  39.343 -56.413  1.00  0.00     0.277 A 
HETATM   21  C   UNL     1     -35.969  41.067 -57.591  1.00  0.00     0.027 A 
HETATM   22  O   UNL     1     -34.173  38.776 -55.553  1.00  0.00    -0.266 OA
HETATM   23  N   UNL     1     -35.329  38.855 -57.594  1.00  0.00    -0.321 N 
HETATM   24  C   UNL     1     -36.002  39.859 -58.287  1.00  0.00     0.048 A 
HETATM   25  H   UNL     1     -35.218  37.899 -57.898  1.00  0.00     0.169 HD
HETATM   26  C   UNL     1     -36.642  39.753 -59.504  1.00  0.00     0.030 A 
HETATM   27  C   UNL     1     -37.254  40.908 -60.010  1.00  0.00     0.002 A 
HETATM   28  C   UNL     1     -37.214  42.127 -59.299  1.00  0.00     0.001 A 
HETATM   29  C   UNL     1     -36.562  42.216 -58.068  1.00  0.00     0.016 A 
ENDBRANCH   2  18
TORSDOF 3
ENDMDL
MODEL 9
REMARK VINA RESULT:      -8.1      5.885      7.569
REMARK  3 active torsions:
REMARK  status: ('A' for Active; 'I' for Inactive)
REMARK    1  A    between atoms: C_5  and  C_6 
REMARK    2  A    between atoms: C_10  and  C_11 
REMARK       I    between atoms: C_11  and  N_12 
REMARK    3  A    between atoms: N_12  and  N_13 
ROOT
HETATM    1  C   UNL     1     -41.531  58.783 -52.616  1.00  0.00     0.289 C 
HETATM    2  N   UNL     1     -42.269  58.890 -51.448  1.00  0.00    -0.241 N 
HETATM    3  O   UNL     1     -41.086  59.744 -53.240  1.00  0.00    -0.264 OA
HETATM    4  H   UNL     1     -42.624  58.058 -50.980  1.00  0.00     0.192 HD
ENDROOT
BRANCH   1   5
HETATM    5  C   UNL     1     -41.318  57.435 -53.076  1.00  0.00     0.121 A 
HETATM    6  N   UNL     1     -41.572  57.086 -54.373  1.00  0.00    -0.272 N 
HETATM    7  N   UNL     1     -41.356  55.793 -54.648  1.00  0.00    -0.174 NA
HETATM    8  H   UNL     1     -41.908  57.699 -55.109  1.00  0.00     0.189 HD
HETATM    9  C   UNL     1     -40.918  55.266 -53.493  1.00  0.00     0.089 A 
HETATM   10  C   UNL     1     -40.880  56.268 -52.480  1.00  0.00     0.071 A 
BRANCH   9  11
HETATM   11  C   UNL     1     -40.565  53.847 -53.384  1.00  0.00    -0.006 A 
HETATM   12  C   UNL     1     -40.227  53.274 -52.150  1.00  0.00     0.014 A 
HETATM   13  C   UNL     1     -39.896  51.917 -52.060  1.00  0.00     0.007 A 
HETATM   14  C   UNL     1     -39.890  51.108 -53.201  1.00  0.00    -0.062 A 
HETATM   15  C   UNL     1     -39.564  49.647 -53.109  1.00  0.00     0.048 C 
HETATM   16  C   UNL     1     -40.236  51.672 -54.433  1.00  0.00     0.007 A 
HETATM   17  C   UNL     1     -40.563  53.029 -54.522  1.00  0.00     0.014 A 
ENDBRANCH   9  11
ENDBRANCH   1   5
BRANCH   2  18
HETATM   18  N   UNL     1     -42.570  60.120 -50.929  1.00  0.00    -0.165 NA
HETATM   19  C   UNL     1     -43.826  60.395 -50.781  1.00  0.00     0.157 A 
HETATM   20  C   UNL     1     -45.039  59.519 -51.109  1.00  0.00     0.277 A 
HETATM   21  C   UNL     1     -44.367  61.643 -50.258  1.00  0.00     0.027 A 
HETATM   22  O   UNL     1     -44.974  58.397 -51.569  1.00  0.00    -0.266 OA
HETATM   23  N   UNL     1     -46.142  60.272 -50.775  1.00  0.00    -0.321 N 
HETATM   24  C   UNL     1     -45.755  61.514 -50.279  1.00  0.00     0.048 A 
HETATM   25  H   UNL     1     -47.092  59.950 -50.886  1.00  0.00     0.169 HD
HETATM   26  C   UNL     1     -46.573  62.537 -49.846  1.00  0.00     0.030 A 
HETATM   27  C   UNL     1     -45.952  63.706 -49.388  1.00  0.00     0.002 A 
HETATM   28  C   UNL     1     -44.545  63.828 -49.371  1.00  0.00     0.001 A 
HETATM   29  C   UNL     1     -43.732  62.783 -49.812  1.00  0.00     0.016 A 
ENDBRANCH   2  18
TORSDOF 3
ENDMDL
MODEL 10
REMARK VINA RESULT:      -7.9      3.248      9.858
REMARK  3 active torsions:
REMARK  status: ('A' for Active; 'I' for Inactive)
REMARK    1  A    between atoms: C_5  and  C_6 
REMARK    2  A    between atoms: C_10  and  C_11 
REMARK       I    between atoms: C_11  and  N_12 
REMARK    3  A    between atoms: N_12  and  N_13 
ROOT
HETATM    1  C   UNL     1     -42.096  55.221 -55.804  1.00  0.00     0.289 C 
HETATM    2  N   UNL     1     -40.823  54.837 -55.416  1.00  0.00    -0.241 N 
HETATM    3  O   UNL     1     -43.040  54.445 -55.935  1.00  0.00    -0.264 OA
HETATM    4  H   UNL     1     -40.075  55.525 -55.337  1.00  0.00     0.192 HD
ENDROOT
BRANCH   1   5
HETATM    5  C   UNL     1     -42.250  56.629 -56.067  1.00  0.00     0.121 A 
HETATM    6  N   UNL     1     -42.152  57.548 -55.060  1.00  0.00    -0.272 N 
HETATM    7  N   UNL     1     -42.346  58.815 -55.448  1.00  0.00    -0.174 NA
HETATM    8  H   UNL     1     -41.964  57.353 -54.081  1.00  0.00     0.189 HD
HETATM    9  C   UNL     1     -42.558  58.737 -56.772  1.00  0.00     0.089 A 
HETATM   10  C   UNL     1     -42.506  57.379 -57.199  1.00  0.00     0.071 A 
BRANCH   9  11
HETATM   11  C   UNL     1     -42.813  59.936 -57.578  1.00  0.00    -0.006 A 
HETATM   12  C   UNL     1     -43.756  59.930 -58.615  1.00  0.00     0.014 A 
HETATM   13  C   UNL     1     -43.992  61.082 -59.373  1.00  0.00     0.007 A 
HETATM   14  C   UNL     1     -43.285  62.260 -59.116  1.00  0.00    -0.062 A 
HETATM   15  C   UNL     1     -43.551  63.508 -59.905  1.00  0.00     0.048 C 
HETATM   16  C   UNL     1     -42.350  62.276 -58.076  1.00  0.00     0.007 A 
HETATM   17  C   UNL     1     -42.113  61.123 -57.321  1.00  0.00     0.014 A 
ENDBRANCH   9  11
ENDBRANCH   1   5
BRANCH   2  18
HETATM   18  N   UNL     1     -40.540  53.521 -55.172  1.00  0.00    -0.165 NA
HETATM   19  C   UNL     1     -40.396  53.179 -53.932  1.00  0.00     0.157 A 
HETATM   20  C   UNL     1     -40.507  54.057 -52.682  1.00  0.00     0.277 A 
HETATM   21  C   UNL     1     -40.084  51.838 -53.451  1.00  0.00     0.027 A 
HETATM   22  O   UNL     1     -40.758  55.244 -52.694  1.00  0.00    -0.266 OA
HETATM   23  N   UNL     1     -40.264  53.218 -51.617  1.00  0.00    -0.321 N 
HETATM   24  C   UNL     1     -40.015  51.922 -52.061  1.00  0.00     0.048 A 
HETATM   25  H   UNL     1     -40.268  53.523 -50.655  1.00  0.00     0.169 HD
HETATM   26  C   UNL     1     -39.729  50.812 -51.294  1.00  0.00     0.030 A 
HETATM   27  C   UNL     1     -39.511  49.604 -51.968  1.00  0.00     0.002 A 
HETATM   28  C   UNL     1     -39.582  49.529 -53.376  1.00  0.00     0.001 A 
HETATM   29  C   UNL     1     -39.873  50.662 -54.138  1.00  0.00     0.016 A 
ENDBRANCH   2  18
TORSDOF 3
ENDMDL
