MODEL 1
REMARK VINA RESULT:      -8.2      0.000      0.000
REMARK  4 active torsions:
REMARK  status: ('A' for Active; 'I' for Inactive)
REMARK    1  A    between atoms: C_2  and  C_3 
REMARK    2  A    between atoms: C_7  and  C_8 
REMARK    3  A    between atoms: C_8  and  N_9 
REMARK       I    between atoms: N_9  and  C_10 
REMARK       I    between atoms: C_10  and  N_11 
REMARK    4  A    between atoms: N_11  and  C_12 
ROOT
HETATM    1  N   UNL     1     -41.804  55.686 -54.080  1.00  0.00    -0.333 N 
HETATM    2  C   UNL     1     -41.707  54.300 -54.108  1.00  0.00     0.322 C 
HETATM    3  N   UNL     1     -40.692  53.790 -53.333  1.00  0.00    -0.307 N 
HETATM    4  O   UNL     1     -42.507  53.617 -54.746  1.00  0.00    -0.247 OA
HETATM    5  C   UNL     1     -40.700  56.592 -53.788  1.00  0.00     0.155 C 
HETATM    6  H   UNL     1     -40.371  54.398 -52.591  1.00  0.00     0.170 HD
ENDROOT
BRANCH   1   7
HETATM    7  C   UNL     1     -43.056  56.294 -54.512  1.00  0.00     0.185 C 
BRANCH   7   8
HETATM    8  C   UNL     1     -43.027  56.587 -55.963  1.00  0.00     0.047 A 
HETATM    9  N   UNL     1     -43.484  55.691 -56.889  1.00  0.00    -0.280 N 
HETATM   10  N   UNL     1     -43.432  56.151 -58.149  1.00  0.00    -0.178 NA
HETATM   11  H   UNL     1     -43.846  54.755 -56.713  1.00  0.00     0.189 HD
HETATM   12  C   UNL     1     -42.931  57.389 -58.037  1.00  0.00     0.064 A 
HETATM   13  C   UNL     1     -42.657  57.703 -56.679  1.00  0.00     0.058 A 
BRANCH  12  14
HETATM   14  C   UNL     1     -42.767  58.293 -59.249  1.00  0.00    -0.005 C 
HETATM   15  C   UNL     1     -44.130  58.456 -59.952  1.00  0.00     0.021 C 
HETATM   16  C   UNL     1     -41.761  57.719 -60.270  1.00  0.00     0.021 C 
HETATM   17  C   UNL     1     -42.257  59.685 -58.824  1.00  0.00     0.021 C 
ENDBRANCH  12  14
ENDBRANCH   7   8
ENDBRANCH   1   7
BRANCH   3  18
HETATM   18  C   UNL     1     -40.308  52.434 -53.201  1.00  0.00     0.064 A 
HETATM   19  C   UNL     1     -39.988  51.946 -51.919  1.00  0.00     0.099 A 
HETATM   20 CL   UNL     1     -40.080  52.980 -50.533  1.00  0.00    -0.079 Cl
HETATM   21  C   UNL     1     -39.609  50.612 -51.748  1.00  0.00     0.143 A 
HETATM   22  F   UNL     1     -39.319  50.136 -50.528  1.00  0.00    -0.204 F 
HETATM   23  C   UNL     1     -39.525  49.751 -52.833  1.00  0.00     0.086 A 
HETATM   24  C   UNL     1     -39.823  50.239 -54.097  1.00  0.00     0.121 A 
HETATM   25  F   UNL     1     -39.732  49.419 -55.152  1.00  0.00    -0.206 F 
HETATM   26  C   UNL     1     -40.210  51.564 -54.292  1.00  0.00     0.073 A 
ENDBRANCH   3  18
TORSDOF 4
ENDMDL
MODEL 2
REMARK VINA RESULT:      -7.8      1.363      1.758
REMARK  4 active torsions:
REMARK  status: ('A' for Active; 'I' for Inactive)
REMARK    1  A    between atoms: C_2  and  C_3 
REMARK    2  A    between atoms: C_7  and  C_8 
REMARK    3  A    between atoms: C_8  and  N_9 
REMARK       I    between atoms: N_9  and  C_10 
REMARK       I    between atoms: C_10  and  N_11 
REMARK    4  A    between atoms: N_11  and  C_12 
ROOT
HETATM    1  N   UNL     1     -42.346  56.212 -54.246  1.00  0.00    -0.333 N 
HETATM    2  C   UNL     1     -41.373  55.221 -54.208  1.00  0.00     0.322 C 
HETATM    3  N   UNL     1     -41.799  54.033 -53.666  1.00  0.00    -0.307 N 
HETATM    4  O   UNL     1     -40.250  55.412 -54.674  1.00  0.00    -0.247 OA
HETATM    5  C   UNL     1     -43.491  56.290 -53.345  1.00  0.00     0.155 C 
HETATM    6  H   UNL     1     -42.801  53.888 -53.679  1.00  0.00     0.170 HD
ENDROOT
BRANCH   1   7
HETATM    7  C   UNL     1     -42.143  57.338 -55.148  1.00  0.00     0.185 C 
BRANCH   7   8
HETATM    8  C   UNL     1     -42.694  57.045 -56.491  1.00  0.00     0.047 A 
HETATM    9  N   UNL     1     -42.386  55.894 -57.160  1.00  0.00    -0.280 N 
HETATM   10  N   UNL     1     -43.022  55.773 -58.337  1.00  0.00    -0.178 NA
HETATM   11  H   UNL     1     -41.754  55.156 -56.857  1.00  0.00     0.189 HD
HETATM   12  C   UNL     1     -43.771  56.881 -58.431  1.00  0.00     0.064 A 
HETATM   13  C   UNL     1     -43.592  57.711 -57.294  1.00  0.00     0.058 A 
BRANCH  12  14
HETATM   14  C   UNL     1     -44.708  57.108 -59.608  1.00  0.00    -0.005 C 
HETATM   15  C   UNL     1     -44.583  55.930 -60.595  1.00  0.00     0.021 C 
HETATM   16  C   UNL     1     -44.381  58.413 -60.366  1.00  0.00     0.021 C 
HETATM   17  C   UNL     1     -46.171  57.202 -59.128  1.00  0.00     0.021 C 
ENDBRANCH  12  14
ENDBRANCH   7   8
ENDBRANCH   1   7
BRANCH   3  18
HETATM   18  C   UNL     1     -41.032  52.864 -53.441  1.00  0.00     0.064 A 
HETATM   19  C   UNL     1     -40.526  52.628 -52.148  1.00  0.00     0.099 A 
HETATM   20 CL   UNL     1     -40.850  53.737 -50.857  1.00  0.00    -0.079 Cl
HETATM   21  C   UNL     1     -39.768  51.483 -51.887  1.00  0.00     0.143 A 
HETATM   22  F   UNL     1     -39.297  51.244 -50.654  1.00  0.00    -0.204 F 
HETATM   23  C   UNL     1     -39.488  50.569 -52.893  1.00  0.00     0.086 A 
HETATM   24  C   UNL     1     -39.973  50.813 -54.169  1.00  0.00     0.121 A 
HETATM   25  F   UNL     1     -39.697  49.944 -55.150  1.00  0.00    -0.206 F 
HETATM   26  C   UNL     1     -40.736  51.945 -54.454  1.00  0.00     0.073 A 
ENDBRANCH   3  18
TORSDOF 4
ENDMDL
MODEL 3
REMARK VINA RESULT:      -7.7      2.724      4.362
REMARK  4 active torsions:
REMARK  status: ('A' for Active; 'I' for Inactive)
REMARK    1  A    between atoms: C_2  and  C_3 
REMARK    2  A    between atoms: C_7  and  C_8 
REMARK    3  A    between atoms: C_8  and  N_9 
REMARK       I    between atoms: N_9  and  C_10 
REMARK       I    between atoms: C_10  and  N_11 
REMARK    4  A    between atoms: N_11  and  C_12 
ROOT
HETATM    1  N   UNL     1     -41.984  55.645 -54.159  1.00  0.00    -0.333 N 
HETATM    2  C   UNL     1     -41.840  54.263 -54.189  1.00  0.00     0.322 C 
HETATM    3  N   UNL     1     -40.822  53.786 -53.398  1.00  0.00    -0.307 N 
HETATM    4  O   UNL     1     -42.605  53.556 -54.843  1.00  0.00    -0.247 OA
HETATM    5  C   UNL     1     -40.917  56.588 -53.845  1.00  0.00     0.155 C 
HETATM    6  H   UNL     1     -40.535  54.401 -52.648  1.00  0.00     0.170 HD
ENDROOT
BRANCH   1   7
HETATM    7  C   UNL     1     -43.248  56.212 -54.612  1.00  0.00     0.185 C 
BRANCH   7   8
HETATM    8  C   UNL     1     -43.872  57.030 -53.547  1.00  0.00     0.047 A 
HETATM    9  N   UNL     1     -44.194  56.503 -52.328  1.00  0.00    -0.280 N 
HETATM   10  N   UNL     1     -44.698  57.406 -51.471  1.00  0.00    -0.178 NA
HETATM   11  H   UNL     1     -44.086  55.536 -52.028  1.00  0.00     0.189 HD
HETATM   12  C   UNL     1     -44.696  58.559 -52.155  1.00  0.00     0.064 A 
HETATM   13  C   UNL     1     -44.190  58.367 -53.468  1.00  0.00     0.058 A 
BRANCH  12  14
HETATM   14  C   UNL     1     -45.140  59.864 -51.513  1.00  0.00    -0.005 C 
HETATM   15  C   UNL     1     -43.955  60.851 -51.491  1.00  0.00     0.021 C 
HETATM   16  C   UNL     1     -45.629  59.661 -50.063  1.00  0.00     0.021 C 
HETATM   17  C   UNL     1     -46.298  60.496 -52.312  1.00  0.00     0.021 C 
ENDBRANCH  12  14
ENDBRANCH   7   8
ENDBRANCH   1   7
BRANCH   3  18
HETATM   18  C   UNL     1     -40.394  52.442 -53.262  1.00  0.00     0.064 A 
HETATM   19  C   UNL     1     -40.029  51.977 -51.985  1.00  0.00     0.099 A 
HETATM   20 CL   UNL     1     -40.117  53.022 -50.606  1.00  0.00    -0.079 Cl
HETATM   21  C   UNL     1     -39.606  50.657 -51.811  1.00  0.00     0.143 A 
HETATM   22  F   UNL     1     -39.272  50.202 -50.594  1.00  0.00    -0.204 F 
HETATM   23  C   UNL     1     -39.524  49.788 -52.889  1.00  0.00     0.086 A 
HETATM   24  C   UNL     1     -39.867  50.254 -54.149  1.00  0.00     0.121 A 
HETATM   25  F   UNL     1     -39.778  49.426 -55.199  1.00  0.00    -0.206 F 
HETATM   26  C   UNL     1     -40.298  51.565 -54.348  1.00  0.00     0.073 A 
ENDBRANCH   3  18
TORSDOF 4
ENDMDL
MODEL 4
REMARK VINA RESULT:      -7.6      3.855      5.651
REMARK  4 active torsions:
REMARK  status: ('A' for Active; 'I' for Inactive)
REMARK    1  A    between atoms: C_2  and  C_3 
REMARK    2  A    between atoms: C_7  and  C_8 
REMARK    3  A    between atoms: C_8  and  N_9 
REMARK       I    between atoms: N_9  and  C_10 
REMARK       I    between atoms: C_10  and  N_11 
REMARK    4  A    between atoms: N_11  and  C_12 
ROOT
HETATM    1  N   UNL     1     -42.834  56.584 -53.486  1.00  0.00    -0.333 N 
HETATM    2  C   UNL     1     -42.602  55.251 -53.167  1.00  0.00     0.322 C 
HETATM    3  N   UNL     1     -41.353  55.004 -52.649  1.00  0.00    -0.307 N 
HETATM    4  O   UNL     1     -43.479  54.400 -53.307  1.00  0.00    -0.247 OA
HETATM    5  C   UNL     1     -41.796  57.553 -53.818  1.00  0.00     0.155 C 
HETATM    6  H   UNL     1     -40.890  55.807 -52.241  1.00  0.00     0.170 HD
ENDROOT
BRANCH   1   7
HETATM    7  C   UNL     1     -44.215  57.019 -53.644  1.00  0.00     0.185 C 
BRANCH   7   8
HETATM    8  C   UNL     1     -44.632  57.875 -52.510  1.00  0.00     0.047 A 
HETATM    9  N   UNL     1     -45.191  57.350 -51.379  1.00  0.00    -0.280 N 
HETATM   10  N   UNL     1     -45.452  58.269 -50.435  1.00  0.00    -0.178 NA
HETATM   11  H   UNL     1     -45.409  56.372 -51.197  1.00  0.00     0.189 HD
HETATM   12  C   UNL     1     -45.044  59.428 -50.971  1.00  0.00     0.064 A 
HETATM   13  C   UNL     1     -44.526  59.227 -52.277  1.00  0.00     0.058 A 
BRANCH  12  14
HETATM   14  C   UNL     1     -45.109  60.730 -50.188  1.00  0.00    -0.005 C 
HETATM   15  C   UNL     1     -43.722  61.404 -50.202  1.00  0.00     0.021 C 
HETATM   16  C   UNL     1     -45.523  60.505 -48.718  1.00  0.00     0.021 C 
HETATM   17  C   UNL     1     -46.135  61.694 -50.819  1.00  0.00     0.021 C 
ENDBRANCH  12  14
ENDBRANCH   7   8
ENDBRANCH   1   7
BRANCH   3  18
HETATM   18  C   UNL     1     -40.803  53.751 -52.284  1.00  0.00     0.064 A 
HETATM   19  C   UNL     1     -40.200  52.963 -53.283  1.00  0.00     0.099 A 
HETATM   20 CL   UNL     1     -40.117  53.524 -54.920  1.00  0.00    -0.079 Cl
HETATM   21  C   UNL     1     -39.643  51.723 -52.960  1.00  0.00     0.143 A 
HETATM   22  F   UNL     1     -39.052  50.974 -53.904  1.00  0.00    -0.204 F 
HETATM   23  C   UNL     1     -39.686  51.239 -51.661  1.00  0.00     0.086 A 
HETATM   24  C   UNL     1     -40.298  52.009 -50.682  1.00  0.00     0.121 A 
HETATM   25  F   UNL     1     -40.357  51.545 -49.427  1.00  0.00    -0.206 F 
HETATM   26  C   UNL     1     -40.855  53.252 -50.978  1.00  0.00     0.073 A 
ENDBRANCH   3  18
TORSDOF 4
ENDMDL
MODEL 5
REMARK VINA RESULT:      -7.5      2.042      3.032
REMARK  4 active torsions:
REMARK  status: ('A' for Active; 'I' for Inactive)
REMARK    1  A    between atoms: C_2  and  C_3 
REMARK    2  A    between atoms: C_7  and  C_8 
REMARK    3  A    between atoms: C_8  and  N_9 
REMARK       I    between atoms: N_9  and  C_10 
REMARK       I    between atoms: C_10  and  N_11 
REMARK    4  A    between atoms: N_11  and  C_12 
ROOT
HETATM    1  N   UNL     1     -42.750  56.795 -54.184  1.00  0.00    -0.333 N 
HETATM    2  C   UNL     1     -41.725  56.004 -53.677  1.00  0.00     0.322 C 
HETATM    3  N   UNL     1     -42.151  54.832 -53.100  1.00  0.00    -0.307 N 
HETATM    4  O   UNL     1     -40.546  56.336 -53.794  1.00  0.00    -0.247 OA
HETATM    5  C   UNL     1     -44.130  56.773 -53.713  1.00  0.00     0.155 C 
HETATM    6  H   UNL     1     -43.063  54.510 -53.401  1.00  0.00     0.170 HD
ENDROOT
BRANCH   1   7
HETATM    7  C   UNL     1     -42.404  57.824 -55.156  1.00  0.00     0.185 C 
BRANCH   7   8
HETATM    8  C   UNL     1     -42.881  57.455 -56.508  1.00  0.00     0.047 A 
HETATM    9  N   UNL     1     -42.378  56.378 -57.182  1.00  0.00    -0.280 N 
HETATM   10  N   UNL     1     -42.970  56.164 -58.368  1.00  0.00    -0.178 NA
HETATM   11  H   UNL     1     -41.635  55.752 -56.875  1.00  0.00     0.189 HD
HETATM   12  C   UNL     1     -43.892  57.132 -58.464  1.00  0.00     0.064 A 
HETATM   13  C   UNL     1     -43.867  57.970 -57.319  1.00  0.00     0.058 A 
BRANCH  12  14
HETATM   14  C   UNL     1     -44.839  57.212 -59.652  1.00  0.00    -0.005 C 
HETATM   15  C   UNL     1     -44.601  58.535 -60.407  1.00  0.00     0.021 C 
HETATM   16  C   UNL     1     -46.320  57.160 -59.219  1.00  0.00     0.021 C 
HETATM   17  C   UNL     1     -44.595  56.037 -60.621  1.00  0.00     0.021 C 
ENDBRANCH  12  14
ENDBRANCH   7   8
ENDBRANCH   1   7
BRANCH   3  18
HETATM   18  C   UNL     1     -41.359  53.853 -52.451  1.00  0.00     0.064 A 
HETATM   19  C   UNL     1     -40.584  52.982 -53.240  1.00  0.00     0.099 A 
HETATM   20 CL   UNL     1     -40.587  53.116 -54.967  1.00  0.00    -0.079 Cl
HETATM   21  C   UNL     1     -39.786  52.007 -52.636  1.00  0.00     0.143 A 
HETATM   22  F   UNL     1     -39.032  51.184 -53.381  1.00  0.00    -0.204 F 
HETATM   23  C   UNL     1     -39.754  51.868 -51.256  1.00  0.00     0.086 A 
HETATM   24  C   UNL     1     -40.532  52.716 -50.482  1.00  0.00     0.121 A 
HETATM   25  F   UNL     1     -40.518  52.581 -49.149  1.00  0.00    -0.206 F 
HETATM   26  C   UNL     1     -41.331  53.701 -51.061  1.00  0.00     0.073 A 
ENDBRANCH   3  18
TORSDOF 4
ENDMDL
MODEL 6
REMARK VINA RESULT:      -7.3      2.299      2.946
REMARK  4 active torsions:
REMARK  status: ('A' for Active; 'I' for Inactive)
REMARK    1  A    between atoms: C_2  and  C_3 
REMARK    2  A    between atoms: C_7  and  C_8 
REMARK    3  A    between atoms: C_8  and  N_9 
REMARK       I    between atoms: N_9  and  C_10 
REMARK       I    between atoms: C_10  and  N_11 
REMARK    4  A    between atoms: N_11  and  C_12 
ROOT
HETATM    1  N   UNL     1     -43.085  57.602 -53.660  1.00  0.00    -0.333 N 
HETATM    2  C   UNL     1     -42.002  56.774 -53.387  1.00  0.00     0.322 C 
HETATM    3  N   UNL     1     -42.325  55.637 -52.686  1.00  0.00    -0.307 N 
HETATM    4  O   UNL     1     -40.874  57.044 -53.796  1.00  0.00    -0.247 OA
HETATM    5  C   UNL     1     -44.309  57.660 -52.869  1.00  0.00     0.155 C 
HETATM    6  H   UNL     1     -43.295  55.354 -52.747  1.00  0.00     0.170 HD
ENDROOT
BRANCH   1   7
HETATM    7  C   UNL     1     -42.941  58.591 -54.721  1.00  0.00     0.185 C 
BRANCH   7   8
HETATM    8  C   UNL     1     -43.449  58.062 -56.007  1.00  0.00     0.047 A 
HETATM    9  N   UNL     1     -44.700  58.364 -56.467  1.00  0.00    -0.280 N 
HETATM   10  N   UNL     1     -44.966  57.844 -57.676  1.00  0.00    -0.178 NA
HETATM   11  H   UNL     1     -45.409  58.925 -55.998  1.00  0.00     0.189 HD
HETATM   12  C   UNL     1     -43.847  57.187 -58.014  1.00  0.00     0.064 A 
HETATM   13  C   UNL     1     -42.868  57.294 -56.991  1.00  0.00     0.058 A 
BRANCH  12  14
HETATM   14  C   UNL     1     -43.709  56.497 -59.362  1.00  0.00    -0.005 C 
HETATM   15  C   UNL     1     -42.281  56.713 -59.902  1.00  0.00     0.021 C 
HETATM   16  C   UNL     1     -44.709  57.046 -60.402  1.00  0.00     0.021 C 
HETATM   17  C   UNL     1     -43.964  54.982 -59.226  1.00  0.00     0.021 C 
ENDBRANCH  12  14
ENDBRANCH   7   8
ENDBRANCH   1   7
BRANCH   3  18
HETATM   18  C   UNL     1     -41.441  54.636 -52.214  1.00  0.00     0.064 A 
HETATM   19  C   UNL     1     -40.891  54.776 -50.926  1.00  0.00     0.099 A 
HETATM   20 CL   UNL     1     -41.298  56.136 -49.934  1.00  0.00    -0.079 Cl
HETATM   21  C   UNL     1     -40.018  53.806 -50.424  1.00  0.00     0.143 A 
HETATM   22  F   UNL     1     -39.503  53.924 -49.191  1.00  0.00    -0.204 F 
HETATM   23  C   UNL     1     -39.668  52.701 -51.186  1.00  0.00     0.086 A 
HETATM   24  C   UNL     1     -40.198  52.575 -52.462  1.00  0.00     0.121 A 
HETATM   25  F   UNL     1     -39.856  51.518 -53.210  1.00  0.00    -0.206 F 
HETATM   26  C   UNL     1     -41.075  53.525 -52.982  1.00  0.00     0.073 A 
ENDBRANCH   3  18
TORSDOF 4
ENDMDL
MODEL 7
REMARK VINA RESULT:      -7.1      6.215      8.229
REMARK  4 active torsions:
REMARK  status: ('A' for Active; 'I' for Inactive)
REMARK    1  A    between atoms: C_2  and  C_3 
REMARK    2  A    between atoms: C_7  and  C_8 
REMARK    3  A    between atoms: C_8  and  N_9 
REMARK       I    between atoms: N_9  and  C_10 
REMARK       I    between atoms: C_10  and  N_11 
REMARK    4  A    between atoms: N_11  and  C_12 
ROOT
HETATM    1  N   UNL     1     -42.651  60.035 -51.201  1.00  0.00    -0.333 N 
HETATM    2  C   UNL     1     -42.767  58.911 -52.010  1.00  0.00     0.322 C 
HETATM    3  N   UNL     1     -41.863  57.915 -51.726  1.00  0.00    -0.307 N 
HETATM    4  O   UNL     1     -43.647  58.830 -52.867  1.00  0.00    -0.247 OA
HETATM    5  C   UNL     1     -41.428  60.450 -50.524  1.00  0.00     0.155 C 
HETATM    6  H   UNL     1     -41.472  57.943 -50.793  1.00  0.00     0.170 HD
ENDROOT
BRANCH   1   7
HETATM    7  C   UNL     1     -43.782  60.950 -51.133  1.00  0.00     0.185 C 
BRANCH   7   8
HETATM    8  C   UNL     1     -44.588  60.704 -49.916  1.00  0.00     0.047 A 
HETATM    9  N   UNL     1     -45.444  59.643 -49.820  1.00  0.00    -0.280 N 
HETATM   10  N   UNL     1     -46.046  59.547 -48.623  1.00  0.00    -0.178 NA
HETATM   11  H   UNL     1     -45.650  58.952 -50.539  1.00  0.00     0.189 HD
HETATM   12  C   UNL     1     -45.560  60.578 -47.917  1.00  0.00     0.064 A 
HETATM   13  C   UNL     1     -44.643  61.335 -48.694  1.00  0.00     0.058 A 
BRANCH  12  14
HETATM   14  C   UNL     1     -45.947  60.798 -46.463  1.00  0.00    -0.005 C 
HETATM   15  C   UNL     1     -46.943  61.971 -46.372  1.00  0.00     0.021 C 
HETATM   16  C   UNL     1     -44.724  61.130 -45.580  1.00  0.00     0.021 C 
HETATM   17  C   UNL     1     -46.612  59.534 -45.881  1.00  0.00     0.021 C 
ENDBRANCH  12  14
ENDBRANCH   7   8
ENDBRANCH   1   7
BRANCH   3  18
HETATM   18  C   UNL     1     -41.696  56.684 -52.405  1.00  0.00     0.064 A 
HETATM   19  C   UNL     1     -42.427  55.565 -51.962  1.00  0.00     0.099 A 
HETATM   20 CL   UNL     1     -43.520  55.698 -50.625  1.00  0.00    -0.079 Cl
HETATM   21  C   UNL     1     -42.291  54.334 -52.609  1.00  0.00     0.143 A 
HETATM   22  F   UNL     1     -42.997  53.268 -52.203  1.00  0.00    -0.204 F 
HETATM   23  C   UNL     1     -41.428  54.187 -53.685  1.00  0.00     0.086 A 
HETATM   24  C   UNL     1     -40.695  55.286 -54.108  1.00  0.00     0.121 A 
HETATM   25  F   UNL     1     -39.849  55.151 -55.137  1.00  0.00    -0.206 F 
HETATM   26  C   UNL     1     -40.818  56.526 -53.482  1.00  0.00     0.073 A 
ENDBRANCH   3  18
TORSDOF 4
ENDMDL
MODEL 8
REMARK VINA RESULT:      -7.0      2.615      3.171
REMARK  4 active torsions:
REMARK  status: ('A' for Active; 'I' for Inactive)
REMARK    1  A    between atoms: C_2  and  C_3 
REMARK    2  A    between atoms: C_7  and  C_8 
REMARK    3  A    between atoms: C_8  and  N_9 
REMARK       I    between atoms: N_9  and  C_10 
REMARK       I    between atoms: C_10  and  N_11 
REMARK    4  A    between atoms: N_11  and  C_12 
ROOT
HETATM    1  N   UNL     1     -43.243  57.809 -52.230  1.00  0.00    -0.333 N 
HETATM    2  C   UNL     1     -42.174  56.920 -52.244  1.00  0.00     0.322 C 
HETATM    3  N   UNL     1     -42.541  55.597 -52.309  1.00  0.00    -0.307 N 
HETATM    4  O   UNL     1     -41.011  57.322 -52.245  1.00  0.00    -0.247 OA
HETATM    5  C   UNL     1     -44.584  57.490 -51.756  1.00  0.00     0.155 C 
HETATM    6  H   UNL     1     -43.468  55.425 -52.678  1.00  0.00     0.170 HD
ENDROOT
BRANCH   1   7
HETATM    7  C   UNL     1     -42.981  59.200 -52.573  1.00  0.00     0.185 C 
BRANCH   7   8
HETATM    8  C   UNL     1     -42.779  59.355 -54.032  1.00  0.00     0.047 A 
HETATM    9  N   UNL     1     -41.791  60.149 -54.543  1.00  0.00    -0.280 N 
HETATM   10  N   UNL     1     -41.721  60.122 -55.883  1.00  0.00    -0.178 NA
HETATM   11  H   UNL     1     -41.134  60.726 -54.020  1.00  0.00     0.189 HD
HETATM   12  C   UNL     1     -42.693  59.277 -56.255  1.00  0.00     0.064 A 
HETATM   13  C   UNL     1     -43.387  58.774 -55.122  1.00  0.00     0.058 A 
BRANCH  12  14
HETATM   14  C   UNL     1     -42.915  58.914 -57.715  1.00  0.00    -0.005 C 
HETATM   15  C   UNL     1     -42.591  57.420 -57.924  1.00  0.00     0.021 C 
HETATM   16  C   UNL     1     -42.019  59.741 -58.662  1.00  0.00     0.021 C 
HETATM   17  C   UNL     1     -44.381  59.166 -58.121  1.00  0.00     0.021 C 
ENDBRANCH  12  14
ENDBRANCH   7   8
ENDBRANCH   1   7
BRANCH   3  18
HETATM   18  C   UNL     1     -41.692  54.465 -52.282  1.00  0.00     0.064 A 
HETATM   19  C   UNL     1     -41.343  53.913 -51.034  1.00  0.00     0.099 A 
HETATM   20 CL   UNL     1     -41.954  54.597 -49.565  1.00  0.00    -0.079 Cl
HETATM   21  C   UNL     1     -40.510  52.793 -50.968  1.00  0.00     0.143 A 
HETATM   22  F   UNL     1     -40.187  52.252 -49.784  1.00  0.00    -0.204 F 
HETATM   23  C   UNL     1     -40.002  52.214 -52.122  1.00  0.00     0.086 A 
HETATM   24  C   UNL     1     -40.332  52.771 -53.349  1.00  0.00     0.121 A 
HETATM   25  F   UNL     1     -39.835  52.228 -54.468  1.00  0.00    -0.206 F 
HETATM   26  C   UNL     1     -41.166  53.884 -53.441  1.00  0.00     0.073 A 
ENDBRANCH   3  18
TORSDOF 4
ENDMDL
MODEL 9
REMARK VINA RESULT:      -7.0      2.743      3.658
REMARK  4 active torsions:
REMARK  status: ('A' for Active; 'I' for Inactive)
REMARK    1  A    between atoms: C_2  and  C_3 
REMARK    2  A    between atoms: C_7  and  C_8 
REMARK    3  A    between atoms: C_8  and  N_9 
REMARK       I    between atoms: N_9  and  C_10 
REMARK       I    between atoms: C_10  and  N_11 
REMARK    4  A    between atoms: N_11  and  C_12 
ROOT
HETATM    1  N   UNL     1     -43.223  57.790 -52.247  1.00  0.00    -0.333 N 
HETATM    2  C   UNL     1     -42.156  56.900 -52.189  1.00  0.00     0.322 C 
HETATM    3  N   UNL     1     -42.521  55.577 -52.258  1.00  0.00    -0.307 N 
HETATM    4  O   UNL     1     -40.995  57.302 -52.130  1.00  0.00    -0.247 OA
HETATM    5  C   UNL     1     -44.590  57.477 -51.845  1.00  0.00     0.155 C 
HETATM    6  H   UNL     1     -43.425  55.401 -52.677  1.00  0.00     0.170 HD
ENDROOT
BRANCH   1   7
HETATM    7  C   UNL     1     -42.941  59.176 -52.592  1.00  0.00     0.185 C 
BRANCH   7   8
HETATM    8  C   UNL     1     -42.754  59.329 -54.053  1.00  0.00     0.047 A 
HETATM    9  N   UNL     1     -41.807  60.164 -54.576  1.00  0.00    -0.280 N 
HETATM   10  N   UNL     1     -41.743  60.130 -55.916  1.00  0.00    -0.178 NA
HETATM   11  H   UNL     1     -41.175  60.775 -54.062  1.00  0.00     0.189 HD
HETATM   12  C   UNL     1     -42.676  59.237 -56.276  1.00  0.00     0.064 A 
HETATM   13  C   UNL     1     -43.340  58.712 -55.135  1.00  0.00     0.058 A 
BRANCH  12  14
HETATM   14  C   UNL     1     -42.888  58.852 -57.732  1.00  0.00    -0.005 C 
HETATM   15  C   UNL     1     -42.587  57.351 -57.912  1.00  0.00     0.021 C 
HETATM   16  C   UNL     1     -41.970  59.649 -58.683  1.00  0.00     0.021 C 
HETATM   17  C   UNL     1     -44.346  59.121 -58.158  1.00  0.00     0.021 C 
ENDBRANCH  12  14
ENDBRANCH   7   8
ENDBRANCH   1   7
BRANCH   3  18
HETATM   18  C   UNL     1     -41.675  54.445 -52.169  1.00  0.00     0.064 A 
HETATM   19  C   UNL     1     -41.149  53.902 -53.357  1.00  0.00     0.099 A 
HETATM   20 CL   UNL     1     -41.517  54.615 -54.893  1.00  0.00    -0.079 Cl
HETATM   21  C   UNL     1     -40.307  52.787 -53.310  1.00  0.00     0.143 A 
HETATM   22  F   UNL     1     -39.790  52.275 -54.436  1.00  0.00    -0.204 F 
HETATM   23  C   UNL     1     -39.987  52.188 -52.100  1.00  0.00     0.086 A 
HETATM   24  C   UNL     1     -40.521  52.714 -50.933  1.00  0.00     0.121 A 
HETATM   25  F   UNL     1     -40.228  52.135 -49.761  1.00  0.00    -0.206 F 
HETATM   26  C   UNL     1     -41.358  53.829 -50.954  1.00  0.00     0.073 A 
ENDBRANCH   3  18
TORSDOF 4
ENDMDL
MODEL 10
REMARK VINA RESULT:      -6.9      6.963      8.852
REMARK  4 active torsions:
REMARK  status: ('A' for Active; 'I' for Inactive)
REMARK    1  A    between atoms: C_2  and  C_3 
REMARK    2  A    between atoms: C_7  and  C_8 
REMARK    3  A    between atoms: C_8  and  N_9 
REMARK       I    between atoms: N_9  and  C_10 
REMARK       I    between atoms: C_10  and  N_11 
REMARK    4  A    between atoms: N_11  and  C_12 
ROOT
HETATM    1  N   UNL     1     -43.329  60.149 -50.946  1.00  0.00    -0.333 N 
HETATM    2  C   UNL     1     -43.562  58.908 -51.526  1.00  0.00     0.322 C 
HETATM    3  N   UNL     1     -42.669  57.934 -51.151  1.00  0.00    -0.307 N 
HETATM    4  O   UNL     1     -44.524  58.723 -52.271  1.00  0.00    -0.247 OA
HETATM    5  C   UNL     1     -42.032  60.615 -50.468  1.00  0.00     0.155 C 
HETATM    6  H   UNL     1     -42.186  58.105 -50.278  1.00  0.00     0.170 HD
ENDROOT
BRANCH   1   7
HETATM    7  C   UNL     1     -44.417  61.118 -50.940  1.00  0.00     0.185 C 
BRANCH   7   8
HETATM    8  C   UNL     1     -44.918  61.342 -49.565  1.00  0.00     0.047 A 
HETATM    9  N   UNL     1     -45.495  60.340 -48.836  1.00  0.00    -0.280 N 
HETATM   10  N   UNL     1     -45.836  60.712 -47.592  1.00  0.00    -0.178 NA
HETATM   11  H   UNL     1     -45.673  59.384 -49.138  1.00  0.00     0.189 HD
HETATM   12  C   UNL     1     -45.463  61.997 -47.509  1.00  0.00     0.064 A 
HETATM   13  C   UNL     1     -44.886  62.436 -48.730  1.00  0.00     0.058 A 
BRANCH  12  14
HETATM   14  C   UNL     1     -45.620  62.788 -46.220  1.00  0.00    -0.005 C 
HETATM   15  C   UNL     1     -44.895  62.050 -45.076  1.00  0.00     0.021 C 
HETATM   16  C   UNL     1     -47.101  62.963 -45.821  1.00  0.00     0.021 C 
HETATM   17  C   UNL     1     -45.008  64.196 -46.368  1.00  0.00     0.021 C 
ENDBRANCH  12  14
ENDBRANCH   7   8
ENDBRANCH   1   7
BRANCH   3  18
HETATM   18  C   UNL     1     -42.610  56.595 -51.611  1.00  0.00     0.064 A 
HETATM   19  C   UNL     1     -41.675  56.266 -52.610  1.00  0.00     0.099 A 
HETATM   20 CL   UNL     1     -40.608  57.471 -53.252  1.00  0.00    -0.079 Cl
HETATM   21  C   UNL     1     -41.584  54.956 -53.086  1.00  0.00     0.143 A 
HETATM   22  F   UNL     1     -40.684  54.632 -54.027  1.00  0.00    -0.204 F 
HETATM   23  C   UNL     1     -42.419  53.961 -52.596  1.00  0.00     0.086 A 
HETATM   24  C   UNL     1     -43.351  54.292 -51.624  1.00  0.00     0.121 A 
HETATM   25  F   UNL     1     -44.171  53.342 -51.155  1.00  0.00    -0.206 F 
HETATM   26  C   UNL     1     -43.457  55.591 -51.129  1.00  0.00     0.073 A 
ENDBRANCH   3  18
TORSDOF 4
ENDMDL
