MODEL 1
REMARK VINA RESULT:      -9.5      0.000      0.000
REMARK  2 active torsions:
REMARK  status: ('A' for Active; 'I' for Inactive)
REMARK    1  A    between atoms: O_2  and  C_3 
REMARK    2  A    between atoms: C_5  and  N_6 
ROOT
HETATM    1  N   UNL     1     -42.137  54.699 -52.080  1.00  0.00    -0.252 N 
HETATM    2  C   UNL     1     -43.095  54.831 -53.060  1.00  0.00     0.239 C 
HETATM    3  O   UNL     1     -43.572  54.017 -53.835  1.00  0.00    -0.272 OA
HETATM    4  C   UNL     1     -43.502  56.264 -53.146  1.00  0.00     0.145 C 
HETATM    5  C   UNL     1     -43.066  56.843 -51.815  1.00  0.00     0.126 C 
HETATM    6  C   UNL     1     -41.965  55.893 -51.408  1.00  0.00     0.238 C 
HETATM    7  O   UNL     1     -41.080  56.230 -50.639  1.00  0.00    -0.272 OA
HETATM    8  C   UNL     1     -42.749  57.025 -54.250  1.00  0.00     0.250 A 
HETATM    9  C   UNL     1     -41.714  56.180 -55.087  1.00  0.00     0.264 A 
HETATM   10  O   UNL     1     -40.707  55.649 -54.649  1.00  0.00    -0.270 OA
HETATM   11  N   UNL     1     -42.109  56.210 -56.410  1.00  0.00    -0.324 N 
HETATM   12  C   UNL     1     -43.252  56.971 -56.578  1.00  0.00     0.044 A 
HETATM   13  C   UNL     1     -43.680  57.494 -55.353  1.00  0.00     0.015 A 
HETATM   14  C   UNL     1     -43.906  57.219 -57.765  1.00  0.00     0.030 A 
HETATM   15  C   UNL     1     -45.037  58.033 -57.713  1.00  0.00     0.002 A 
HETATM   16  C   UNL     1     -45.480  58.574 -56.492  1.00  0.00     0.001 A 
HETATM   17  C   UNL     1     -44.803  58.306 -55.298  1.00  0.00     0.012 A 
HETATM   18  N   UNL     1     -42.115  58.233 -53.525  1.00  0.00    -0.043 N 
HETATM   19  H   UNL     1     -42.364  59.087 -54.046  1.00  0.00     0.282 HD
HETATM   20  C   UNL     1     -42.691  58.283 -52.130  1.00  0.00     0.204 C 
HETATM   21  C   UNL     1     -40.613  58.269 -53.332  1.00  0.00     0.237 C 
HETATM   22  C   UNL     1     -40.463  59.271 -52.206  1.00  0.00     0.030 C 
HETATM   23  C   UNL     1     -41.663  59.034 -51.294  1.00  0.00     0.036 C 
HETATM   24  H   UNL     1     -41.615  55.724 -57.149  1.00  0.00     0.169 HD
ENDROOT
BRANCH   1  25
HETATM   25  C   UNL     1     -41.324  53.532 -51.891  1.00  0.00     0.048 A 
HETATM   26  C   UNL     1     -40.714  52.877 -52.974  1.00  0.00     0.066 A 
HETATM   27  C   UNL     1     -39.859  51.780 -52.799  1.00  0.00     0.070 A 
HETATM   28  C   UNL     1     -39.623  51.291 -51.520  1.00  0.00     0.037 A 
HETATM   29  C   UNL     1     -40.235  51.902 -50.430  1.00  0.00     0.005 A 
HETATM   30  C   UNL     1     -41.073  53.009 -50.614  1.00  0.00     0.030 A 
BRANCH  27  31
HETATM   31  O   UNL     1     -39.328  51.284 -53.958  1.00  0.00    -0.356 OA
HETATM   32  C   UNL     1     -39.736  49.976 -54.340  1.00  0.00     0.210 C 
ENDBRANCH  27  31
ENDBRANCH   1  25
TORSDOF 2
ENDMDL
MODEL 2
REMARK VINA RESULT:      -9.1      1.143      1.633
REMARK  2 active torsions:
REMARK  status: ('A' for Active; 'I' for Inactive)
REMARK    1  A    between atoms: O_2  and  C_3 
REMARK    2  A    between atoms: C_5  and  N_6 
ROOT
HETATM    1  N   UNL     1     -42.325  54.487 -53.151  1.00  0.00    -0.252 N 
HETATM    2  C   UNL     1     -43.283  54.641 -54.128  1.00  0.00     0.239 C 
HETATM    3  O   UNL     1     -43.621  53.910 -55.046  1.00  0.00    -0.272 OA
HETATM    4  C   UNL     1     -43.905  55.989 -53.986  1.00  0.00     0.145 C 
HETATM    5  C   UNL     1     -43.577  56.389 -52.561  1.00  0.00     0.126 C 
HETATM    6  C   UNL     1     -42.346  55.559 -52.280  1.00  0.00     0.238 C 
HETATM    7  O   UNL     1     -41.532  55.888 -51.433  1.00  0.00    -0.272 OA
HETATM    8  C   UNL     1     -43.268  57.033 -54.916  1.00  0.00     0.250 A 
HETATM    9  C   UNL     1     -42.106  56.512 -55.846  1.00  0.00     0.264 A 
HETATM   10  O   UNL     1     -41.034  56.070 -55.468  1.00  0.00    -0.270 OA
HETATM   11  N   UNL     1     -42.488  56.709 -57.158  1.00  0.00    -0.324 N 
HETATM   12  C   UNL     1     -43.733  57.308 -57.237  1.00  0.00     0.044 A 
HETATM   13  C   UNL     1     -44.249  57.541 -55.958  1.00  0.00     0.015 A 
HETATM   14  C   UNL     1     -44.406  57.655 -58.388  1.00  0.00     0.030 A 
HETATM   15  C   UNL     1     -45.650  58.268 -58.240  1.00  0.00     0.002 A 
HETATM   16  C   UNL     1     -46.183  58.517 -56.962  1.00  0.00     0.001 A 
HETATM   17  C   UNL     1     -45.484  58.153 -55.806  1.00  0.00     0.012 A 
HETATM   18  N   UNL     1     -42.835  58.180 -53.976  1.00  0.00    -0.043 N 
HETATM   19  H   UNL     1     -43.208  59.064 -54.353  1.00  0.00     0.282 HD
HETATM   20  C   UNL     1     -43.425  57.901 -52.614  1.00  0.00     0.204 C 
HETATM   21  C   UNL     1     -41.359  58.407 -53.725  1.00  0.00     0.237 C 
HETATM   22  C   UNL     1     -41.376  59.211 -52.440  1.00  0.00     0.030 C 
HETATM   23  C   UNL     1     -42.535  58.643 -51.626  1.00  0.00     0.036 C 
HETATM   24  H   UNL     1     -41.918  56.438 -57.951  1.00  0.00     0.169 HD
ENDROOT
BRANCH   1  25
HETATM   25  C   UNL     1     -41.344  53.441 -53.132  1.00  0.00     0.048 A 
HETATM   26  C   UNL     1     -40.980  52.794 -51.940  1.00  0.00     0.066 A 
HETATM   27  C   UNL     1     -40.076  51.723 -51.916  1.00  0.00     0.070 A 
HETATM   28  C   UNL     1     -39.484  51.297 -53.099  1.00  0.00     0.037 A 
HETATM   29  C   UNL     1     -39.805  51.936 -54.293  1.00  0.00     0.005 A 
HETATM   30  C   UNL     1     -40.723  52.994 -54.308  1.00  0.00     0.030 A 
BRANCH  27  31
HETATM   31  O   UNL     1     -39.859  51.190 -50.675  1.00  0.00    -0.356 OA
HETATM   32  C   UNL     1     -39.556  49.801 -50.619  1.00  0.00     0.210 C 
ENDBRANCH  27  31
ENDBRANCH   1  25
TORSDOF 2
ENDMDL
MODEL 3
REMARK VINA RESULT:      -8.7      2.107      6.178
REMARK  2 active torsions:
REMARK  status: ('A' for Active; 'I' for Inactive)
REMARK    1  A    between atoms: O_2  and  C_3 
REMARK    2  A    between atoms: C_5  and  N_6 
ROOT
HETATM    1  N   UNL     1     -42.005  57.595 -55.018  1.00  0.00    -0.252 N 
HETATM    2  C   UNL     1     -41.134  56.760 -54.354  1.00  0.00     0.239 C 
HETATM    3  O   UNL     1     -40.416  55.860 -54.759  1.00  0.00    -0.272 OA
HETATM    4  C   UNL     1     -41.209  57.049 -52.892  1.00  0.00     0.145 C 
HETATM    5  C   UNL     1     -41.816  58.436 -52.830  1.00  0.00     0.126 C 
HETATM    6  C   UNL     1     -42.556  58.513 -54.145  1.00  0.00     0.238 C 
HETATM    7  O   UNL     1     -43.507  59.260 -54.302  1.00  0.00    -0.272 OA
HETATM    8  C   UNL     1     -42.160  56.095 -52.152  1.00  0.00     0.250 A 
HETATM    9  C   UNL     1     -42.864  54.997 -53.038  1.00  0.00     0.264 A 
HETATM   10  O   UNL     1     -43.648  55.209 -53.946  1.00  0.00    -0.270 OA
HETATM   11  N   UNL     1     -42.491  53.757 -52.557  1.00  0.00    -0.324 N 
HETATM   12  C   UNL     1     -41.653  53.871 -51.462  1.00  0.00     0.044 A 
HETATM   13  C   UNL     1     -41.423  55.217 -51.156  1.00  0.00     0.015 A 
HETATM   14  C   UNL     1     -41.105  52.837 -50.735  1.00  0.00     0.030 A 
HETATM   15  C   UNL     1     -40.297  53.176 -49.651  1.00  0.00     0.002 A 
HETATM   16  C   UNL     1     -40.058  54.523 -49.323  1.00  0.00     0.001 A 
HETATM   17  C   UNL     1     -40.621  55.558 -50.077  1.00  0.00     0.012 A 
HETATM   18  N   UNL     1     -43.153  57.026 -51.422  1.00  0.00    -0.043 N 
HETATM   19  H   UNL     1     -43.189  56.744 -50.431  1.00  0.00     0.282 HD
HETATM   20  C   UNL     1     -42.632  58.438 -51.547  1.00  0.00     0.204 C 
HETATM   21  C   UNL     1     -44.588  57.092 -51.903  1.00  0.00     0.237 C 
HETATM   22  C   UNL     1     -45.059  58.405 -51.312  1.00  0.00     0.030 C 
HETATM   23  C   UNL     1     -43.852  59.335 -51.385  1.00  0.00     0.036 C 
HETATM   24  H   UNL     1     -42.798  52.884 -52.971  1.00  0.00     0.169 HD
ENDROOT
BRANCH   1  25
HETATM   25  C   UNL     1     -42.401  57.434 -56.387  1.00  0.00     0.048 A 
HETATM   26  C   UNL     1     -42.908  56.216 -56.868  1.00  0.00     0.066 A 
HETATM   27  C   UNL     1     -43.366  56.063 -58.184  1.00  0.00     0.070 A 
HETATM   28  C   UNL     1     -43.291  57.134 -59.065  1.00  0.00     0.037 A 
HETATM   29  C   UNL     1     -42.768  58.347 -58.626  1.00  0.00     0.005 A 
HETATM   30  C   UNL     1     -42.329  58.494 -57.303  1.00  0.00     0.030 A 
BRANCH  27  31
HETATM   31  O   UNL     1     -43.856  54.819 -58.474  1.00  0.00    -0.356 OA
HETATM   32  C   UNL     1     -44.414  54.638 -59.770  1.00  0.00     0.210 C 
ENDBRANCH  27  31
ENDBRANCH   1  25
TORSDOF 2
ENDMDL
MODEL 4
REMARK VINA RESULT:      -8.5      2.716      6.581
REMARK  2 active torsions:
REMARK  status: ('A' for Active; 'I' for Inactive)
REMARK    1  A    between atoms: O_2  and  C_3 
REMARK    2  A    between atoms: C_5  and  N_6 
ROOT
HETATM    1  N   UNL     1     -42.327  58.054 -56.148  1.00  0.00    -0.252 N 
HETATM    2  C   UNL     1     -41.790  57.108 -55.303  1.00  0.00     0.239 C 
HETATM    3  O   UNL     1     -41.544  55.925 -55.473  1.00  0.00    -0.272 OA
HETATM    4  C   UNL     1     -41.570  57.727 -53.963  1.00  0.00     0.145 C 
HETATM    5  C   UNL     1     -41.562  59.215 -54.251  1.00  0.00     0.126 C 
HETATM    6  C   UNL     1     -42.360  59.290 -55.532  1.00  0.00     0.238 C 
HETATM    7  O   UNL     1     -42.945  60.307 -55.863  1.00  0.00    -0.272 OA
HETATM    8  C   UNL     1     -42.728  57.451 -52.991  1.00  0.00     0.250 A 
HETATM    9  C   UNL     1     -43.911  56.575 -53.555  1.00  0.00     0.264 A 
HETATM   10  O   UNL     1     -44.647  56.880 -54.478  1.00  0.00    -0.270 OA
HETATM   11  N   UNL     1     -44.009  55.438 -52.777  1.00  0.00    -0.324 N 
HETATM   12  C   UNL     1     -43.072  55.440 -51.760  1.00  0.00     0.044 A 
HETATM   13  C   UNL     1     -42.290  56.599 -51.813  1.00  0.00     0.015 A 
HETATM   14  C   UNL     1     -42.901  54.468 -50.799  1.00  0.00     0.030 A 
HETATM   15  C   UNL     1     -41.902  54.678 -49.848  1.00  0.00     0.002 A 
HETATM   16  C   UNL     1     -41.110  55.840 -49.881  1.00  0.00     0.001 A 
HETATM   17  C   UNL     1     -41.298  56.813 -50.868  1.00  0.00     0.012 A 
HETATM   18  N   UNL     1     -43.175  58.850 -52.511  1.00  0.00    -0.043 N 
HETATM   19  H   UNL     1     -43.203  58.844 -51.480  1.00  0.00     0.282 HD
HETATM   20  C   UNL     1     -42.153  59.849 -53.001  1.00  0.00     0.204 C 
HETATM   21  C   UNL     1     -44.510  59.395 -52.974  1.00  0.00     0.237 C 
HETATM   22  C   UNL     1     -44.345  60.882 -52.734  1.00  0.00     0.030 C 
HETATM   23  C   UNL     1     -42.885  61.183 -53.059  1.00  0.00     0.036 C 
HETATM   24  H   UNL     1     -44.685  54.702 -52.949  1.00  0.00     0.169 HD
ENDROOT
BRANCH   1  25
HETATM   25  C   UNL     1     -42.914  57.764 -57.424  1.00  0.00     0.048 A 
HETATM   26  C   UNL     1     -44.301  57.607 -57.578  1.00  0.00     0.066 A 
HETATM   27  C   UNL     1     -44.895  57.395 -58.830  1.00  0.00     0.070 A 
HETATM   28  C   UNL     1     -44.096  57.299 -59.963  1.00  0.00     0.037 A 
HETATM   29  C   UNL     1     -42.715  57.423 -59.838  1.00  0.00     0.005 A 
HETATM   30  C   UNL     1     -42.133  57.653 -58.584  1.00  0.00     0.030 A 
BRANCH  27  31
HETATM   31  O   UNL     1     -46.259  57.296 -58.802  1.00  0.00    -0.356 OA
HETATM   32  C   UNL     1     -46.879  56.671 -59.920  1.00  0.00     0.210 C 
ENDBRANCH  27  31
ENDBRANCH   1  25
TORSDOF 2
ENDMDL
MODEL 5
REMARK VINA RESULT:      -8.5      2.184      4.785
REMARK  2 active torsions:
REMARK  status: ('A' for Active; 'I' for Inactive)
REMARK    1  A    between atoms: O_2  and  C_3 
REMARK    2  A    between atoms: C_5  and  N_6 
ROOT
HETATM    1  N   UNL     1     -41.304  56.672 -54.347  1.00  0.00    -0.252 N 
HETATM    2  C   UNL     1     -41.074  57.751 -53.522  1.00  0.00     0.239 C 
HETATM    3  O   UNL     1     -40.413  57.857 -52.502  1.00  0.00    -0.272 OA
HETATM    4  C   UNL     1     -41.867  58.913 -54.017  1.00  0.00     0.145 C 
HETATM    5  C   UNL     1     -42.173  58.554 -55.458  1.00  0.00     0.126 C 
HETATM    6  C   UNL     1     -42.074  57.047 -55.430  1.00  0.00     0.238 C 
HETATM    7  O   UNL     1     -42.655  56.352 -56.248  1.00  0.00    -0.272 OA
HETATM    8  C   UNL     1     -43.209  59.066 -53.284  1.00  0.00     0.250 A 
HETATM    9  C   UNL     1     -43.504  58.004 -52.157  1.00  0.00     0.264 A 
HETATM   10  O   UNL     1     -43.636  56.803 -52.325  1.00  0.00    -0.270 OA
HETATM   11  N   UNL     1     -43.658  58.680 -50.963  1.00  0.00    -0.324 N 
HETATM   12  C   UNL     1     -43.526  60.047 -51.136  1.00  0.00     0.044 A 
HETATM   13  C   UNL     1     -43.275  60.350 -52.478  1.00  0.00     0.015 A 
HETATM   14  C   UNL     1     -43.632  61.012 -50.159  1.00  0.00     0.030 A 
HETATM   15  C   UNL     1     -43.482  62.341 -50.555  1.00  0.00     0.002 A 
HETATM   16  C   UNL     1     -43.235  62.668 -51.901  1.00  0.00     0.001 A 
HETATM   17  C   UNL     1     -43.127  61.671 -52.877  1.00  0.00     0.012 A 
HETATM   18  N   UNL     1     -44.268  59.078 -54.409  1.00  0.00    -0.043 N 
HETATM   19  H   UNL     1     -44.873  59.902 -54.274  1.00  0.00     0.282 HD
HETATM   20  C   UNL     1     -43.534  59.178 -55.725  1.00  0.00     0.204 C 
HETATM   21  C   UNL     1     -45.191  57.887 -54.563  1.00  0.00     0.237 C 
HETATM   22  C   UNL     1     -45.678  58.047 -55.990  1.00  0.00     0.030 C 
HETATM   23  C   UNL     1     -44.483  58.594 -56.764  1.00  0.00     0.036 C 
HETATM   24  H   UNL     1     -43.837  58.217 -50.079  1.00  0.00     0.169 HD
ENDROOT
BRANCH   1  25
HETATM   25  C   UNL     1     -40.930  55.321 -54.041  1.00  0.00     0.048 A 
HETATM   26  C   UNL     1     -41.166  54.761 -52.775  1.00  0.00     0.066 A 
HETATM   27  C   UNL     1     -40.873  53.422 -52.483  1.00  0.00     0.070 A 
HETATM   28  C   UNL     1     -40.296  52.617 -53.458  1.00  0.00     0.037 A 
HETATM   29  C   UNL     1     -40.025  53.151 -54.714  1.00  0.00     0.005 A 
HETATM   30  C   UNL     1     -40.339  54.486 -55.001  1.00  0.00     0.030 A 
BRANCH  27  31
HETATM   31  O   UNL     1     -41.196  53.034 -51.211  1.00  0.00    -0.356 OA
HETATM   32  C   UNL     1     -40.235  52.245 -50.520  1.00  0.00     0.210 C 
ENDBRANCH  27  31
ENDBRANCH   1  25
TORSDOF 2
ENDMDL
MODEL 6
REMARK VINA RESULT:      -8.4      2.671      6.172
REMARK  2 active torsions:
REMARK  status: ('A' for Active; 'I' for Inactive)
REMARK    1  A    between atoms: O_2  and  C_3 
REMARK    2  A    between atoms: C_5  and  N_6 
ROOT
HETATM    1  N   UNL     1     -43.661  56.993 -56.280  1.00  0.00    -0.252 N 
HETATM    2  C   UNL     1     -44.331  57.960 -55.565  1.00  0.00     0.239 C 
HETATM    3  O   UNL     1     -44.798  59.035 -55.907  1.00  0.00    -0.272 OA
HETATM    4  C   UNL     1     -44.382  57.553 -54.131  1.00  0.00     0.145 C 
HETATM    5  C   UNL     1     -44.125  56.059 -54.171  1.00  0.00     0.126 C 
HETATM    6  C   UNL     1     -43.377  55.907 -55.475  1.00  0.00     0.238 C 
HETATM    7  O   UNL     1     -42.627  54.966 -55.675  1.00  0.00    -0.272 OA
HETATM    8  C   UNL     1     -43.259  58.192 -53.297  1.00  0.00     0.250 A 
HETATM    9  C   UNL     1     -42.281  59.151 -54.077  1.00  0.00     0.264 A 
HETATM   10  O   UNL     1     -41.536  58.825 -54.986  1.00  0.00    -0.270 OA
HETATM   11  N   UNL     1     -42.365  60.404 -53.503  1.00  0.00    -0.324 N 
HETATM   12  C   UNL     1     -43.246  60.413 -52.437  1.00  0.00     0.044 A 
HETATM   13  C   UNL     1     -43.801  59.143 -52.246  1.00  0.00     0.015 A 
HETATM   14  C   UNL     1     -43.558  61.491 -51.637  1.00  0.00     0.030 A 
HETATM   15  C   UNL     1     -44.464  61.276 -50.599  1.00  0.00     0.002 A 
HETATM   16  C   UNL     1     -45.028  60.005 -50.387  1.00  0.00     0.001 A 
HETATM   17  C   UNL     1     -44.701  58.924 -51.214  1.00  0.00     0.012 A 
HETATM   18  N   UNL     1     -42.543  56.997 -52.628  1.00  0.00    -0.043 N 
HETATM   19  H   UNL     1     -42.478  57.185 -51.617  1.00  0.00     0.282 HD
HETATM   20  C   UNL     1     -43.381  55.765 -52.878  1.00  0.00     0.204 C 
HETATM   21  C   UNL     1     -41.149  56.624 -53.087  1.00  0.00     0.237 C 
HETATM   22  C   UNL     1     -41.027  55.194 -52.598  1.00  0.00     0.030 C 
HETATM   23  C   UNL     1     -42.417  54.591 -52.769  1.00  0.00     0.036 C 
HETATM   24  H   UNL     1     -41.844  61.207 -53.838  1.00  0.00     0.169 HD
ENDROOT
BRANCH   1  25
HETATM   25  C   UNL     1     -43.187  57.157 -57.623  1.00  0.00     0.048 A 
HETATM   26  C   UNL     1     -43.717  56.408 -58.687  1.00  0.00     0.066 A 
HETATM   27  C   UNL     1     -43.315  56.608 -60.015  1.00  0.00     0.070 A 
HETATM   28  C   UNL     1     -42.336  57.551 -60.302  1.00  0.00     0.037 A 
HETATM   29  C   UNL     1     -41.773  58.290 -59.266  1.00  0.00     0.005 A 
HETATM   30  C   UNL     1     -42.194  58.094 -57.944  1.00  0.00     0.030 A 
BRANCH  27  31
HETATM   31  O   UNL     1     -43.956  55.815 -60.927  1.00  0.00    -0.356 OA
HETATM   32  C   UNL     1     -44.802  54.796 -60.407  1.00  0.00     0.210 C 
ENDBRANCH  27  31
ENDBRANCH   1  25
TORSDOF 2
ENDMDL
MODEL 7
REMARK VINA RESULT:      -8.0     15.840     19.098
REMARK  2 active torsions:
REMARK  status: ('A' for Active; 'I' for Inactive)
REMARK    1  A    between atoms: O_2  and  C_3 
REMARK    2  A    between atoms: C_5  and  N_6 
ROOT
HETATM    1  N   UNL     1     -35.400  38.436 -56.258  1.00  0.00    -0.252 N 
HETATM    2  C   UNL     1     -35.462  38.409 -54.883  1.00  0.00     0.239 C 
HETATM    3  O   UNL     1     -36.380  38.647 -54.114  1.00  0.00    -0.272 OA
HETATM    4  C   UNL     1     -34.109  38.084 -54.344  1.00  0.00     0.145 C 
HETATM    5  C   UNL     1     -33.396  37.448 -55.521  1.00  0.00     0.126 C 
HETATM    6  C   UNL     1     -34.155  38.024 -56.694  1.00  0.00     0.238 C 
HETATM    7  O   UNL     1     -33.651  38.114 -57.801  1.00  0.00    -0.272 OA
HETATM    8  C   UNL     1     -33.317  39.341 -53.949  1.00  0.00     0.250 A 
HETATM    9  C   UNL     1     -34.054  40.718 -54.161  1.00  0.00     0.264 A 
HETATM   10  O   UNL     1     -34.411  41.177 -55.233  1.00  0.00    -0.270 OA
HETATM   11  N   UNL     1     -34.159  41.340 -52.933  1.00  0.00    -0.324 N 
HETATM   12  C   UNL     1     -33.578  40.582 -51.932  1.00  0.00     0.044 A 
HETATM   13  C   UNL     1     -33.049  39.398 -52.455  1.00  0.00     0.015 A 
HETATM   14  C   UNL     1     -33.497  40.910 -50.596  1.00  0.00     0.030 A 
HETATM   15  C   UNL     1     -32.849  40.005 -49.755  1.00  0.00     0.002 A 
HETATM   16  C   UNL     1     -32.305  38.812 -50.263  1.00  0.00     0.001 A 
HETATM   17  C   UNL     1     -32.402  38.497 -51.623  1.00  0.00     0.012 A 
HETATM   18  N   UNL     1     -31.990  39.226 -54.732  1.00  0.00    -0.043 N 
HETATM   19  H   UNL     1     -31.212  39.351 -54.068  1.00  0.00     0.282 HD
HETATM   20  C   UNL     1     -31.939  37.847 -55.345  1.00  0.00     0.204 C 
HETATM   21  C   UNL     1     -31.731  40.177 -55.882  1.00  0.00     0.237 C 
HETATM   22  C   UNL     1     -30.652  39.449 -56.658  1.00  0.00     0.030 C 
HETATM   23  C   UNL     1     -31.001  37.968 -56.539  1.00  0.00     0.036 C 
HETATM   24  H   UNL     1     -34.614  42.236 -52.800  1.00  0.00     0.169 HD
ENDROOT
BRANCH   1  25
HETATM   25  C   UNL     1     -36.426  38.967 -57.108  1.00  0.00     0.048 A 
HETATM   26  C   UNL     1     -36.448  40.321 -57.477  1.00  0.00     0.066 A 
HETATM   27  C   UNL     1     -37.402  40.840 -58.364  1.00  0.00     0.070 A 
HETATM   28  C   UNL     1     -38.387  40.005 -58.877  1.00  0.00     0.037 A 
HETATM   29  C   UNL     1     -38.408  38.663 -58.508  1.00  0.00     0.005 A 
HETATM   30  C   UNL     1     -37.439  38.152 -57.635  1.00  0.00     0.030 A 
BRANCH  27  31
HETATM   31  O   UNL     1     -37.257  42.172 -58.638  1.00  0.00    -0.356 OA
HETATM   32  C   UNL     1     -37.301  42.551 -60.009  1.00  0.00     0.210 C 
ENDBRANCH  27  31
ENDBRANCH   1  25
TORSDOF 2
ENDMDL
MODEL 8
REMARK VINA RESULT:      -8.0      2.683      6.772
REMARK  2 active torsions:
REMARK  status: ('A' for Active; 'I' for Inactive)
REMARK    1  A    between atoms: O_2  and  C_3 
REMARK    2  A    between atoms: C_5  and  N_6 
ROOT
HETATM    1  N   UNL     1     -42.292  59.048 -54.748  1.00  0.00    -0.252 N 
HETATM    2  C   UNL     1     -41.750  57.893 -54.229  1.00  0.00     0.239 C 
HETATM    3  O   UNL     1     -41.548  56.801 -54.735  1.00  0.00    -0.272 OA
HETATM    4  C   UNL     1     -41.457  58.105 -52.782  1.00  0.00     0.145 C 
HETATM    5  C   UNL     1     -41.414  59.614 -52.640  1.00  0.00     0.126 C 
HETATM    6  C   UNL     1     -42.261  60.061 -53.809  1.00  0.00     0.238 C 
HETATM    7  O   UNL     1     -42.827  61.141 -53.813  1.00  0.00    -0.272 OA
HETATM    8  C   UNL     1     -42.582  57.588 -51.871  1.00  0.00     0.250 A 
HETATM    9  C   UNL     1     -43.813  56.928 -52.602  1.00  0.00     0.264 A 
HETATM   10  O   UNL     1     -44.577  57.494 -53.365  1.00  0.00    -0.270 OA
HETATM   11  N   UNL     1     -43.915  55.620 -52.170  1.00  0.00    -0.324 N 
HETATM   12  C   UNL     1     -42.937  55.318 -51.239  1.00  0.00     0.044 A 
HETATM   13  C   UNL     1     -42.123  56.431 -51.002  1.00  0.00     0.015 A 
HETATM   14  C   UNL     1     -42.757  54.112 -50.599  1.00  0.00     0.030 A 
HETATM   15  C   UNL     1     -41.714  54.027 -49.676  1.00  0.00     0.002 A 
HETATM   16  C   UNL     1     -40.888  55.136 -49.419  1.00  0.00     0.001 A 
HETATM   17  C   UNL     1     -41.086  56.352 -50.084  1.00  0.00     0.012 A 
HETATM   18  N   UNL     1     -42.965  58.803 -50.997  1.00  0.00    -0.043 N 
HETATM   19  H   UNL     1     -42.950  58.507 -50.010  1.00  0.00     0.282 HD
HETATM   20  C   UNL     1     -41.933  59.880 -51.236  1.00  0.00     0.204 C 
HETATM   21  C   UNL     1     -44.300  59.481 -51.224  1.00  0.00     0.237 C 
HETATM   22  C   UNL     1     -44.079  60.837 -50.585  1.00  0.00     0.030 C 
HETATM   23  C   UNL     1     -42.625  61.190 -50.882  1.00  0.00     0.036 C 
HETATM   24  H   UNL     1     -44.620  54.975 -52.509  1.00  0.00     0.169 HD
ENDROOT
BRANCH   1  25
HETATM   25  C   UNL     1     -42.939  59.140 -56.025  1.00  0.00     0.048 A 
HETATM   26  C   UNL     1     -42.204  59.280 -57.213  1.00  0.00     0.066 A 
HETATM   27  C   UNL     1     -42.817  59.299 -58.474  1.00  0.00     0.070 A 
HETATM   28  C   UNL     1     -44.201  59.211 -58.566  1.00  0.00     0.037 A 
HETATM   29  C   UNL     1     -44.958  59.099 -57.403  1.00  0.00     0.005 A 
HETATM   30  C   UNL     1     -44.334  59.063 -56.150  1.00  0.00     0.030 A 
BRANCH  27  31
HETATM   31  O   UNL     1     -41.949  59.410 -59.526  1.00  0.00    -0.356 OA
HETATM   32  C   UNL     1     -42.464  59.984 -60.722  1.00  0.00     0.210 C 
ENDBRANCH  27  31
ENDBRANCH   1  25
TORSDOF 2
ENDMDL
MODEL 9
REMARK VINA RESULT:      -7.9     16.260     18.444
REMARK  2 active torsions:
REMARK  status: ('A' for Active; 'I' for Inactive)
REMARK    1  A    between atoms: O_2  and  C_3 
REMARK    2  A    between atoms: C_5  and  N_6 
ROOT
HETATM    1  N   UNL     1     -32.985  40.060 -53.026  1.00  0.00    -0.252 N 
HETATM    2  C   UNL     1     -33.981  40.815 -53.605  1.00  0.00     0.239 C 
HETATM    3  O   UNL     1     -34.951  41.375 -53.120  1.00  0.00    -0.272 OA
HETATM    4  C   UNL     1     -33.778  40.830 -55.083  1.00  0.00     0.145 C 
HETATM    5  C   UNL     1     -32.322  40.442 -55.250  1.00  0.00     0.126 C 
HETATM    6  C   UNL     1     -32.053  39.682 -53.972  1.00  0.00     0.238 C 
HETATM    7  O   UNL     1     -31.163  38.851 -53.898  1.00  0.00    -0.272 OA
HETATM    8  C   UNL     1     -34.624  39.768 -55.804  1.00  0.00     0.250 A 
HETATM    9  C   UNL     1     -35.546  38.879 -54.885  1.00  0.00     0.264 A 
HETATM   10  O   UNL     1     -35.162  38.108 -54.022  1.00  0.00    -0.270 OA
HETATM   11  N   UNL     1     -36.856  39.075 -55.278  1.00  0.00    -0.324 N 
HETATM   12  C   UNL     1     -36.938  39.954 -56.343  1.00  0.00     0.044 A 
HETATM   13  C   UNL     1     -35.664  40.394 -56.717  1.00  0.00     0.015 A 
HETATM   14  C   UNL     1     -38.087  40.360 -56.986  1.00  0.00     0.030 A 
HETATM   15  C   UNL     1     -37.942  41.244 -58.055  1.00  0.00     0.002 A 
HETATM   16  C   UNL     1     -36.669  41.694 -58.450  1.00  0.00     0.001 A 
HETATM   17  C   UNL     1     -35.515  41.271 -57.780  1.00  0.00     0.012 A 
HETATM   18  N   UNL     1     -33.604  38.950 -56.626  1.00  0.00    -0.043 N 
HETATM   19  H   UNL     1     -33.939  38.903 -57.600  1.00  0.00     0.282 HD
HETATM   20  C   UNL     1     -32.280  39.675 -56.563  1.00  0.00     0.204 C 
HETATM   21  C   UNL     1     -33.294  37.528 -56.208  1.00  0.00     0.237 C 
HETATM   22  C   UNL     1     -31.965  37.280 -56.893  1.00  0.00     0.030 C 
HETATM   23  C   UNL     1     -31.223  38.611 -56.825  1.00  0.00     0.036 C 
HETATM   24  H   UNL     1     -37.645  38.626 -54.826  1.00  0.00     0.169 HD
ENDROOT
BRANCH   1  25
HETATM   25  C   UNL     1     -32.998  39.602 -51.667  1.00  0.00     0.048 A 
HETATM   26  C   UNL     1     -31.921  39.843 -50.798  1.00  0.00     0.066 A 
HETATM   27  C   UNL     1     -31.949  39.465 -49.449  1.00  0.00     0.070 A 
HETATM   28  C   UNL     1     -33.059  38.798 -48.946  1.00  0.00     0.037 A 
HETATM   29  C   UNL     1     -34.131  38.520 -49.789  1.00  0.00     0.005 A 
HETATM   30  C   UNL     1     -34.100  38.918 -51.132  1.00  0.00     0.030 A 
BRANCH  27  31
HETATM   31  O   UNL     1     -30.829  39.805 -48.740  1.00  0.00    -0.356 OA
HETATM   32  C   UNL     1     -30.933  39.764 -47.322  1.00  0.00     0.210 C 
ENDBRANCH  27  31
ENDBRANCH   1  25
TORSDOF 2
ENDMDL
MODEL 10
REMARK VINA RESULT:      -7.8     15.814     17.576
REMARK  2 active torsions:
REMARK  status: ('A' for Active; 'I' for Inactive)
REMARK    1  A    between atoms: O_2  and  C_3 
REMARK    2  A    between atoms: C_5  and  N_6 
ROOT
HETATM    1  N   UNL     1     -36.503  39.939 -50.732  1.00  0.00    -0.252 N 
HETATM    2  C   UNL     1     -36.923  40.615 -51.857  1.00  0.00     0.239 C 
HETATM    3  O   UNL     1     -38.032  40.751 -52.346  1.00  0.00    -0.272 OA
HETATM    4  C   UNL     1     -35.731  41.182 -52.552  1.00  0.00     0.145 C 
HETATM    5  C   UNL     1     -34.661  41.198 -51.478  1.00  0.00     0.126 C 
HETATM    6  C   UNL     1     -35.148  40.120 -50.538  1.00  0.00     0.238 C 
HETATM    7  O   UNL     1     -34.383  39.526 -49.795  1.00  0.00    -0.272 OA
HETATM    8  C   UNL     1     -35.228  40.279 -53.691  1.00  0.00     0.250 A 
HETATM    9  C   UNL     1     -36.044  38.952 -53.931  1.00  0.00     0.264 A 
HETATM   10  O   UNL     1     -36.158  38.032 -53.138  1.00  0.00    -0.270 OA
HETATM   11  N   UNL     1     -36.544  38.985 -55.218  1.00  0.00    -0.324 N 
HETATM   12  C   UNL     1     -36.161  40.139 -55.878  1.00  0.00     0.044 A 
HETATM   13  C   UNL     1     -35.374  40.943 -55.049  1.00  0.00     0.015 A 
HETATM   14  C   UNL     1     -36.476  40.486 -57.174  1.00  0.00     0.030 A 
HETATM   15  C   UNL     1     -35.968  41.693 -57.653  1.00  0.00     0.002 A 
HETATM   16  C   UNL     1     -35.169  42.514 -56.836  1.00  0.00     0.001 A 
HETATM   17  C   UNL     1     -34.866  42.144 -55.521  1.00  0.00     0.012 A 
HETATM   18  N   UNL     1     -33.738  40.035 -53.364  1.00  0.00    -0.043 N 
HETATM   19  H   UNL     1     -33.184  40.256 -54.205  1.00  0.00     0.282 HD
HETATM   20  C   UNL     1     -33.361  40.959 -52.231  1.00  0.00     0.204 C 
HETATM   21  C   UNL     1     -33.302  38.658 -52.910  1.00  0.00     0.237 C 
HETATM   22  C   UNL     1     -31.976  38.952 -52.236  1.00  0.00     0.030 C 
HETATM   23  C   UNL     1     -32.163  40.304 -51.556  1.00  0.00     0.036 C 
HETATM   24  H   UNL     1     -37.123  38.251 -55.609  1.00  0.00     0.169 HD
ENDROOT
BRANCH   1  25
HETATM   25  C   UNL     1     -37.325  39.049 -49.965  1.00  0.00     0.048 A 
HETATM   26  C   UNL     1     -37.158  38.905 -48.578  1.00  0.00     0.066 A 
HETATM   27  C   UNL     1     -38.000  38.094 -47.804  1.00  0.00     0.070 A 
HETATM   28  C   UNL     1     -39.017  37.374 -48.419  1.00  0.00     0.037 A 
HETATM   29  C   UNL     1     -39.189  37.476 -49.797  1.00  0.00     0.005 A 
HETATM   30  C   UNL     1     -38.354  38.303 -50.559  1.00  0.00     0.030 A 
BRANCH  27  31
HETATM   31  O   UNL     1     -37.715  38.094 -46.466  1.00  0.00    -0.356 OA
HETATM   32  C   UNL     1     -36.407  37.679 -46.090  1.00  0.00     0.210 C 
ENDBRANCH  27  31
ENDBRANCH   1  25
TORSDOF 2
ENDMDL
