MODEL 1
REMARK VINA RESULT:      -9.3      0.000      0.000
REMARK  7 active torsions:
REMARK  status: ('A' for Active; 'I' for Inactive)
REMARK    1  A    between atoms: C_2  and  C_3 
REMARK       I    between atoms: C_3  and  N_4 
REMARK    2  A    between atoms: N_7  and  C_8 
REMARK    3  A    between atoms: C_11  and  N_12 
REMARK    4  A    between atoms: N_12  and  C_13 
REMARK    5  A    between atoms: C_13  and  N_14 
REMARK       I    between atoms: N_14  and  C_15 
REMARK    6  A    between atoms: C_15  and  C_16 
REMARK    7  A    between atoms: C_18  and  C_19 
ROOT
HETATM    1  C   UNL     1     -42.240  59.799 -51.514  1.00  0.00     0.179 C 
HETATM    2  S   UNL     1     -42.863  60.958 -50.476  1.00  0.00    -0.040 SA
ENDROOT
BRANCH   1   3
HETATM    3  N   UNL     1     -41.980  59.906 -52.859  1.00  0.00    -0.333 N 
HETATM    4  H   UNL     1     -41.092  60.347 -53.089  1.00  0.00     0.168 HD
BRANCH   3   5
HETATM    5  C   UNL     1     -42.696  59.348 -53.940  1.00  0.00     0.034 A 
HETATM    6  C   UNL     1     -42.108  58.499 -54.870  1.00  0.00     0.032 A 
HETATM    7  C   UNL     1     -42.856  57.974 -55.926  1.00  0.00     0.031 A 
HETATM    8  C   UNL     1     -44.211  58.290 -56.112  1.00  0.00     0.030 A 
HETATM    9  C   UNL     1     -44.805  59.087 -55.124  1.00  0.00     0.031 A 
HETATM   10  C   UNL     1     -44.063  59.597 -54.042  1.00  0.00     0.032 A 
BRANCH   8  11
HETATM   11  N   UNL     1     -44.895  57.766 -57.216  1.00  0.00    -0.378 N 
HETATM   12  C   UNL     1     -44.018  57.280 -58.312  1.00  0.00     0.143 C 
HETATM   13  C   UNL     1     -44.795  56.332 -59.234  1.00  0.00     0.145 C 
HETATM   14  N   UNL     1     -46.056  56.900 -59.723  1.00  0.00    -0.349 N 
HETATM   15  C   UNL     1     -46.588  56.324 -60.875  1.00  0.00     0.219 C 
HETATM   16  C   UNL     1     -46.879  57.563 -58.699  1.00  0.00     0.145 C 
HETATM   17  O   UNL     1     -45.947  55.527 -61.561  1.00  0.00    -0.273 OA
HETATM   18  C   UNL     1     -46.080  58.472 -57.740  1.00  0.00     0.143 C 
BRANCH  15  19
HETATM   19  C   UNL     1     -47.996  56.745 -61.264  1.00  0.00     0.098 C 
HETATM   20  C   UNL     1     -48.250  56.594 -62.756  1.00  0.00     0.014 C 
ENDBRANCH  15  19
ENDBRANCH   8  11
ENDBRANCH   3   5
ENDBRANCH   1   3
BRANCH   1  21
HETATM   21  N   UNL     1     -41.967  58.578 -50.945  1.00  0.00    -0.298 N 
HETATM   22  C   UNL     1     -42.654  57.374 -51.020  1.00  0.00     0.281 C 
HETATM   23  O   UNL     1     -43.840  57.289 -51.328  1.00  0.00    -0.265 OA
HETATM   24  H   UNL     1     -41.026  58.511 -50.573  1.00  0.00     0.171 HD
BRANCH  22  25
HETATM   25  C   UNL     1     -41.819  56.251 -50.644  1.00  0.00     0.144 A 
HETATM   26  O   UNL     1     -41.567  55.297 -51.595  1.00  0.00    -0.304 OA
HETATM   27  C   UNL     1     -40.809  54.315 -51.028  1.00  0.00     0.086 A 
HETATM   28  C   UNL     1     -40.556  54.647 -49.710  1.00  0.00     0.041 A 
HETATM   29  C   UNL     1     -41.201  55.890 -49.465  1.00  0.00     0.046 A 
BRANCH  27  30
HETATM   30  C   UNL     1     -40.481  53.190 -51.900  1.00  0.00    -0.001 A 
HETATM   31  C   UNL     1     -40.057  51.964 -51.366  1.00  0.00     0.038 A 
HETATM   32  C   UNL     1     -39.719  50.891 -52.197  1.00  0.00     0.040 A 
HETATM   33 CL   UNL     1     -39.199  49.423 -51.446  1.00  0.00    -0.084 Cl
HETATM   34  C   UNL     1     -39.799  51.013 -53.589  1.00  0.00    -0.040 A 
HETATM   35  C   UNL     1     -39.428  49.884 -54.508  1.00  0.00     0.050 C 
HETATM   36  C   UNL     1     -40.224  52.236 -54.127  1.00  0.00     0.009 A 
HETATM   37  C   UNL     1     -40.563  53.309 -53.293  1.00  0.00     0.015 A 
ENDBRANCH  27  30
ENDBRANCH  22  25
ENDBRANCH   1  21
TORSDOF 7
ENDMDL
MODEL 2
REMARK VINA RESULT:      -8.8      1.316      1.543
REMARK  7 active torsions:
REMARK  status: ('A' for Active; 'I' for Inactive)
REMARK    1  A    between atoms: C_2  and  C_3 
REMARK       I    between atoms: C_3  and  N_4 
REMARK    2  A    between atoms: N_7  and  C_8 
REMARK    3  A    between atoms: C_11  and  N_12 
REMARK    4  A    between atoms: N_12  and  C_13 
REMARK    5  A    between atoms: C_13  and  N_14 
REMARK       I    between atoms: N_14  and  C_15 
REMARK    6  A    between atoms: C_15  and  C_16 
REMARK    7  A    between atoms: C_18  and  C_19 
ROOT
HETATM    1  C   UNL     1     -42.189  59.778 -52.974  1.00  0.00     0.179 C 
HETATM    2  S   UNL     1     -42.864  61.125 -52.242  1.00  0.00    -0.040 SA
ENDROOT
BRANCH   1   3
HETATM    3  N   UNL     1     -41.909  59.577 -54.304  1.00  0.00    -0.333 N 
HETATM    4  H   UNL     1     -40.918  59.497 -54.524  1.00  0.00     0.168 HD
BRANCH   3   5
HETATM    5  C   UNL     1     -42.804  59.307 -55.361  1.00  0.00     0.034 A 
HETATM    6  C   UNL     1     -43.078  60.229 -56.365  1.00  0.00     0.032 A 
HETATM    7  C   UNL     1     -43.976  59.918 -57.389  1.00  0.00     0.031 A 
HETATM    8  C   UNL     1     -44.651  58.689 -57.443  1.00  0.00     0.030 A 
HETATM    9  C   UNL     1     -44.307  57.746 -56.467  1.00  0.00     0.031 A 
HETATM   10  C   UNL     1     -43.383  58.042 -55.446  1.00  0.00     0.032 A 
BRANCH   8  11
HETATM   11  N   UNL     1     -45.573  58.455 -58.473  1.00  0.00    -0.378 N 
HETATM   12  C   UNL     1     -45.399  57.155 -59.172  1.00  0.00     0.143 C 
HETATM   13  C   UNL     1     -46.680  56.786 -59.929  1.00  0.00     0.145 C 
HETATM   14  N   UNL     1     -47.161  57.850 -60.817  1.00  0.00    -0.349 N 
HETATM   15  C   UNL     1     -48.019  57.461 -61.842  1.00  0.00     0.219 C 
HETATM   16  C   UNL     1     -47.173  59.197 -60.223  1.00  0.00     0.145 C 
HETATM   17  O   UNL     1     -48.206  56.275 -62.121  1.00  0.00    -0.273 OA
HETATM   18  C   UNL     1     -45.902  59.540 -59.415  1.00  0.00     0.143 C 
BRANCH  15  19
HETATM   19  C   UNL     1     -48.700  58.571 -62.626  1.00  0.00     0.098 C 
HETATM   20  C   UNL     1     -50.215  58.509 -62.514  1.00  0.00     0.014 C 
ENDBRANCH  15  19
ENDBRANCH   8  11
ENDBRANCH   3   5
ENDBRANCH   1   3
BRANCH   1  21
HETATM   21  N   UNL     1     -41.890  58.732 -52.133  1.00  0.00    -0.298 N 
HETATM   22  C   UNL     1     -42.669  57.663 -51.711  1.00  0.00     0.281 C 
HETATM   23  O   UNL     1     -43.897  57.666 -51.741  1.00  0.00    -0.265 OA
HETATM   24  H   UNL     1     -40.898  58.637 -51.949  1.00  0.00     0.171 HD
BRANCH  22  25
HETATM   25  C   UNL     1     -41.861  56.579 -51.189  1.00  0.00     0.144 A 
HETATM   26  O   UNL     1     -41.584  55.531 -52.027  1.00  0.00    -0.304 OA
HETATM   27  C   UNL     1     -40.860  54.607 -51.332  1.00  0.00     0.086 A 
HETATM   28  C   UNL     1     -40.653  55.071 -50.047  1.00  0.00     0.041 A 
HETATM   29  C   UNL     1     -41.293  56.337 -49.956  1.00  0.00     0.046 A 
BRANCH  27  30
HETATM   30  C   UNL     1     -40.511  53.395 -52.071  1.00  0.00    -0.001 A 
HETATM   31  C   UNL     1     -40.048  52.252 -51.402  1.00  0.00     0.038 A 
HETATM   32  C   UNL     1     -39.690  51.098 -52.106  1.00  0.00     0.040 A 
HETATM   33 CL   UNL     1     -39.122  49.742 -51.196  1.00  0.00    -0.084 Cl
HETATM   34  C   UNL     1     -39.790  51.053 -53.502  1.00  0.00    -0.040 A 
HETATM   35  C   UNL     1     -39.398  49.833 -54.287  1.00  0.00     0.050 C 
HETATM   36  C   UNL     1     -40.254  52.193 -54.173  1.00  0.00     0.009 A 
HETATM   37  C   UNL     1     -40.612  53.348 -53.466  1.00  0.00     0.015 A 
ENDBRANCH  27  30
ENDBRANCH  22  25
ENDBRANCH   1  21
TORSDOF 7
ENDMDL
MODEL 3
REMARK VINA RESULT:      -8.5      4.230      4.872
REMARK  7 active torsions:
REMARK  status: ('A' for Active; 'I' for Inactive)
REMARK    1  A    between atoms: C_2  and  C_3 
REMARK       I    between atoms: C_3  and  N_4 
REMARK    2  A    between atoms: N_7  and  C_8 
REMARK    3  A    between atoms: C_11  and  N_12 
REMARK    4  A    between atoms: N_12  and  C_13 
REMARK    5  A    between atoms: C_13  and  N_14 
REMARK       I    between atoms: N_14  and  C_15 
REMARK    6  A    between atoms: C_15  and  C_16 
REMARK    7  A    between atoms: C_18  and  C_19 
ROOT
HETATM    1  C   UNL     1     -44.447  58.514 -53.156  1.00  0.00     0.179 C 
HETATM    2  S   UNL     1     -45.235  59.337 -51.928  1.00  0.00    -0.040 SA
ENDROOT
BRANCH   1   3
HETATM    3  N   UNL     1     -44.700  58.545 -54.507  1.00  0.00    -0.333 N 
HETATM    4  H   UNL     1     -45.614  58.188 -54.779  1.00  0.00     0.168 HD
BRANCH   3   5
HETATM    5  C   UNL     1     -43.938  59.148 -55.530  1.00  0.00     0.034 A 
HETATM    6  C   UNL     1     -43.171  60.288 -55.322  1.00  0.00     0.032 A 
HETATM    7  C   UNL     1     -42.436  60.850 -56.368  1.00  0.00     0.031 A 
HETATM    8  C   UNL     1     -42.452  60.315 -57.665  1.00  0.00     0.030 A 
HETATM    9  C   UNL     1     -43.170  59.125 -57.838  1.00  0.00     0.031 A 
HETATM   10  C   UNL     1     -43.892  58.537 -56.783  1.00  0.00     0.032 A 
BRANCH   8  11
HETATM   11  N   UNL     1     -41.728  60.952 -58.682  1.00  0.00    -0.378 N 
HETATM   12  C   UNL     1     -40.961  62.144 -58.239  1.00  0.00     0.143 C 
HETATM   13  C   UNL     1     -39.871  62.485 -59.263  1.00  0.00     0.145 C 
HETATM   14  N   UNL     1     -40.378  62.610 -60.634  1.00  0.00    -0.349 N 
HETATM   15  C   UNL     1     -39.585  63.331 -61.524  1.00  0.00     0.219 C 
HETATM   16  C   UNL     1     -41.298  61.542 -61.057  1.00  0.00     0.145 C 
HETATM   17  O   UNL     1     -38.621  63.998 -61.145  1.00  0.00    -0.273 OA
HETATM   18  C   UNL     1     -42.358  61.167 -59.998  1.00  0.00     0.143 C 
BRANCH  15  19
HETATM   19  C   UNL     1     -39.979  63.281 -62.991  1.00  0.00     0.098 C 
HETATM   20  C   UNL     1     -38.770  63.274 -63.912  1.00  0.00     0.014 C 
ENDBRANCH  15  19
ENDBRANCH   8  11
ENDBRANCH   3   5
ENDBRANCH   1   3
BRANCH   1  21
HETATM   21  N   UNL     1     -43.422  57.689 -52.757  1.00  0.00    -0.298 N 
HETATM   22  C   UNL     1     -42.206  57.987 -52.159  1.00  0.00     0.281 C 
HETATM   23  O   UNL     1     -41.679  59.096 -52.210  1.00  0.00    -0.265 OA
HETATM   24  H   UNL     1     -43.684  56.710 -52.729  1.00  0.00     0.171 HD
BRANCH  22  25
HETATM   25  C   UNL     1     -41.619  56.827 -51.519  1.00  0.00     0.144 A 
HETATM   26  O   UNL     1     -41.324  55.745 -52.306  1.00  0.00    -0.304 OA
HETATM   27  C   UNL     1     -40.830  54.756 -51.508  1.00  0.00     0.086 A 
HETATM   28  C   UNL     1     -40.789  55.208 -50.203  1.00  0.00     0.041 A 
HETATM   29  C   UNL     1     -41.292  56.538 -50.210  1.00  0.00     0.046 A 
BRANCH  27  30
HETATM   30  C   UNL     1     -40.499  53.505 -52.187  1.00  0.00    -0.001 A 
HETATM   31  C   UNL     1     -40.075  52.382 -51.462  1.00  0.00     0.038 A 
HETATM   32  C   UNL     1     -39.734  51.189 -52.110  1.00  0.00     0.040 A 
HETATM   33 CL   UNL     1     -39.214  49.862 -51.132  1.00  0.00    -0.084 Cl
HETATM   34  C   UNL     1     -39.812  51.086 -53.504  1.00  0.00    -0.040 A 
HETATM   35  C   UNL     1     -39.438  49.824 -54.228  1.00  0.00     0.050 C 
HETATM   36  C   UNL     1     -40.238  52.206 -54.231  1.00  0.00     0.009 A 
HETATM   37  C   UNL     1     -40.579  53.399 -53.581  1.00  0.00     0.015 A 
ENDBRANCH  27  30
ENDBRANCH  22  25
ENDBRANCH   1  21
TORSDOF 7
ENDMDL
MODEL 4
REMARK VINA RESULT:      -8.5      3.187      3.777
REMARK  7 active torsions:
REMARK  status: ('A' for Active; 'I' for Inactive)
REMARK    1  A    between atoms: C_2  and  C_3 
REMARK       I    between atoms: C_3  and  N_4 
REMARK    2  A    between atoms: N_7  and  C_8 
REMARK    3  A    between atoms: C_11  and  N_12 
REMARK    4  A    between atoms: N_12  and  C_13 
REMARK    5  A    between atoms: C_13  and  N_14 
REMARK       I    between atoms: N_14  and  C_15 
REMARK    6  A    between atoms: C_15  and  C_16 
REMARK    7  A    between atoms: C_18  and  C_19 
ROOT
HETATM    1  C   UNL     1     -43.875  59.707 -50.998  1.00  0.00     0.179 C 
HETATM    2  S   UNL     1     -45.415  59.902 -50.365  1.00  0.00    -0.040 SA
ENDROOT
BRANCH   1   3
HETATM    3  N   UNL     1     -43.121  60.609 -51.709  1.00  0.00    -0.333 N 
HETATM    4  H   UNL     1     -42.489  61.175 -51.146  1.00  0.00     0.168 HD
BRANCH   3   5
HETATM    5  C   UNL     1     -42.992  60.738 -53.108  1.00  0.00     0.034 A 
HETATM    6  C   UNL     1     -42.085  59.988 -53.849  1.00  0.00     0.032 A 
HETATM    7  C   UNL     1     -41.991  60.154 -55.233  1.00  0.00     0.031 A 
HETATM    8  C   UNL     1     -42.776  61.085 -55.930  1.00  0.00     0.030 A 
HETATM    9  C   UNL     1     -43.735  61.776 -55.178  1.00  0.00     0.031 A 
HETATM   10  C   UNL     1     -43.855  61.595 -53.788  1.00  0.00     0.032 A 
BRANCH   8  11
HETATM   11  N   UNL     1     -42.603  61.235 -57.313  1.00  0.00    -0.378 N 
HETATM   12  C   UNL     1     -42.192  59.995 -58.020  1.00  0.00     0.143 C 
HETATM   13  C   UNL     1     -42.473  60.124 -59.523  1.00  0.00     0.145 C 
HETATM   14  N   UNL     1     -41.904  61.337 -60.120  1.00  0.00    -0.349 N 
HETATM   15  C   UNL     1     -41.722  61.319 -61.501  1.00  0.00     0.219 C 
HETATM   16  C   UNL     1     -42.127  62.572 -59.352  1.00  0.00     0.145 C 
HETATM   17  O   UNL     1     -41.835  60.285 -62.161  1.00  0.00    -0.273 OA
HETATM   18  C   UNL     1     -41.895  62.419 -57.832  1.00  0.00     0.143 C 
BRANCH  15  19
HETATM   19  C   UNL     1     -41.349  62.637 -62.161  1.00  0.00     0.098 C 
HETATM   20  C   UNL     1     -39.845  62.797 -62.319  1.00  0.00     0.014 C 
ENDBRANCH  15  19
ENDBRANCH   8  11
ENDBRANCH   3   5
ENDBRANCH   1   3
BRANCH   1  21
HETATM   21  N   UNL     1     -43.299  58.476 -50.788  1.00  0.00    -0.298 N 
HETATM   22  C   UNL     1     -43.243  57.355 -51.605  1.00  0.00     0.281 C 
HETATM   23  O   UNL     1     -44.023  57.153 -52.533  1.00  0.00    -0.265 OA
HETATM   24  H   UNL     1     -42.667  58.460 -49.996  1.00  0.00     0.171 HD
BRANCH  22  25
HETATM   25  C   UNL     1     -42.194  56.442 -51.199  1.00  0.00     0.144 A 
HETATM   26  O   UNL     1     -41.928  55.374 -52.014  1.00  0.00    -0.304 OA
HETATM   27  C   UNL     1     -40.950  54.622 -51.430  1.00  0.00     0.086 A 
HETATM   28  C   UNL     1     -40.572  55.219 -50.243  1.00  0.00     0.041 A 
HETATM   29  C   UNL     1     -41.368  56.388 -50.095  1.00  0.00     0.046 A 
BRANCH  27  30
HETATM   30  C   UNL     1     -40.570  53.411 -52.154  1.00  0.00    -0.001 A 
HETATM   31  C   UNL     1     -40.091  52.284 -51.471  1.00  0.00     0.038 A 
HETATM   32  C   UNL     1     -39.704  51.130 -52.162  1.00  0.00     0.040 A 
HETATM   33 CL   UNL     1     -39.117  49.794 -51.233  1.00  0.00    -0.084 Cl
HETATM   34  C   UNL     1     -39.789  51.071 -53.558  1.00  0.00    -0.040 A 
HETATM   35  C   UNL     1     -39.366  49.852 -54.328  1.00  0.00     0.050 C 
HETATM   36  C   UNL     1     -40.270  52.195 -54.243  1.00  0.00     0.009 A 
HETATM   37  C   UNL     1     -40.658  53.349 -53.550  1.00  0.00     0.015 A 
ENDBRANCH  27  30
ENDBRANCH  22  25
ENDBRANCH   1  21
TORSDOF 7
ENDMDL
MODEL 5
REMARK VINA RESULT:      -8.3      3.732      8.142
REMARK  7 active torsions:
REMARK  status: ('A' for Active; 'I' for Inactive)
REMARK    1  A    between atoms: C_2  and  C_3 
REMARK       I    between atoms: C_3  and  N_4 
REMARK    2  A    between atoms: N_7  and  C_8 
REMARK    3  A    between atoms: C_11  and  N_12 
REMARK    4  A    between atoms: N_12  and  C_13 
REMARK    5  A    between atoms: C_13  and  N_14 
REMARK       I    between atoms: N_14  and  C_15 
REMARK    6  A    between atoms: C_15  and  C_16 
REMARK    7  A    between atoms: C_18  and  C_19 
ROOT
HETATM    1  C   UNL     1     -45.527  61.153 -53.821  1.00  0.00     0.179 C 
HETATM    2  S   UNL     1     -45.978  62.678 -53.294  1.00  0.00    -0.040 SA
ENDROOT
BRANCH   1   3
HETATM    3  N   UNL     1     -45.861  59.930 -53.291  1.00  0.00    -0.333 N 
HETATM    4  H   UNL     1     -46.834  59.840 -53.006  1.00  0.00     0.168 HD
BRANCH   3   5
HETATM    5  C   UNL     1     -45.087  58.751 -53.242  1.00  0.00     0.034 A 
HETATM    6  C   UNL     1     -44.343  58.389 -52.125  1.00  0.00     0.032 A 
HETATM    7  C   UNL     1     -43.589  57.213 -52.125  1.00  0.00     0.031 A 
HETATM    8  C   UNL     1     -43.527  56.364 -53.241  1.00  0.00     0.030 A 
HETATM    9  C   UNL     1     -44.341  56.706 -54.328  1.00  0.00     0.031 A 
HETATM   10  C   UNL     1     -45.125  57.876 -54.325  1.00  0.00     0.032 A 
BRANCH   8  11
HETATM   11  N   UNL     1     -42.717  55.222 -53.193  1.00  0.00    -0.378 N 
HETATM   12  C   UNL     1     -41.744  55.202 -52.070  1.00  0.00     0.143 C 
HETATM   13  C   UNL     1     -41.249  53.772 -51.824  1.00  0.00     0.145 C 
HETATM   14  N   UNL     1     -40.737  53.115 -53.032  1.00  0.00    -0.349 N 
HETATM   15  C   UNL     1     -39.884  52.033 -52.834  1.00  0.00     0.219 C 
HETATM   16  C   UNL     1     -41.582  53.269 -54.227  1.00  0.00     0.145 C 
HETATM   17  O   UNL     1     -39.419  51.763 -51.726  1.00  0.00    -0.273 OA
HETATM   18  C   UNL     1     -42.123  54.700 -54.438  1.00  0.00     0.143 C 
BRANCH  15  19
HETATM   19  C   UNL     1     -39.528  51.207 -54.059  1.00  0.00     0.098 C 
HETATM   20  C   UNL     1     -39.863  49.734 -53.879  1.00  0.00     0.014 C 
ENDBRANCH  15  19
ENDBRANCH   8  11
ENDBRANCH   3   5
ENDBRANCH   1   3
BRANCH   1  21
HETATM   21  N   UNL     1     -44.702  61.125 -54.922  1.00  0.00    -0.298 N 
HETATM   22  C   UNL     1     -43.321  61.218 -55.016  1.00  0.00     0.281 C 
HETATM   23  O   UNL     1     -42.613  61.709 -54.140  1.00  0.00    -0.265 OA
HETATM   24  H   UNL     1     -45.168  60.801 -55.762  1.00  0.00     0.171 HD
BRANCH  22  25
HETATM   25  C   UNL     1     -42.830  60.718 -56.285  1.00  0.00     0.144 A 
HETATM   26  O   UNL     1     -43.462  59.631 -56.828  1.00  0.00    -0.304 OA
HETATM   27  C   UNL     1     -42.821  59.297 -57.986  1.00  0.00     0.086 A 
HETATM   28  C   UNL     1     -41.784  60.186 -58.198  1.00  0.00     0.041 A 
HETATM   29  C   UNL     1     -41.792  61.099 -57.109  1.00  0.00     0.046 A 
BRANCH  27  30
HETATM   30  C   UNL     1     -43.345  58.123 -58.679  1.00  0.00    -0.001 A 
HETATM   31  C   UNL     1     -44.726  57.940 -58.843  1.00  0.00     0.038 A 
HETATM   32  C   UNL     1     -45.234  56.806 -59.486  1.00  0.00     0.040 A 
HETATM   33 CL   UNL     1     -46.951  56.664 -59.633  1.00  0.00    -0.084 Cl
HETATM   34  C   UNL     1     -44.372  55.823 -59.988  1.00  0.00    -0.040 A 
HETATM   35  C   UNL     1     -44.889  54.587 -60.668  1.00  0.00     0.050 C 
HETATM   36  C   UNL     1     -42.992  56.004 -59.827  1.00  0.00     0.009 A 
HETATM   37  C   UNL     1     -42.485  57.140 -59.184  1.00  0.00     0.015 A 
ENDBRANCH  27  30
ENDBRANCH  22  25
ENDBRANCH   1  21
TORSDOF 7
ENDMDL
MODEL 6
REMARK VINA RESULT:      -8.1      3.411      8.430
REMARK  7 active torsions:
REMARK  status: ('A' for Active; 'I' for Inactive)
REMARK    1  A    between atoms: C_2  and  C_3 
REMARK       I    between atoms: C_3  and  N_4 
REMARK    2  A    between atoms: N_7  and  C_8 
REMARK    3  A    between atoms: C_11  and  N_12 
REMARK    4  A    between atoms: N_12  and  C_13 
REMARK    5  A    between atoms: C_13  and  N_14 
REMARK       I    between atoms: N_14  and  C_15 
REMARK    6  A    between atoms: C_15  and  C_16 
REMARK    7  A    between atoms: C_18  and  C_19 
ROOT
HETATM    1  C   UNL     1     -43.945  61.532 -51.823  1.00  0.00     0.179 C 
HETATM    2  S   UNL     1     -43.319  63.011 -51.346  1.00  0.00    -0.040 SA
ENDROOT
BRANCH   1   3
HETATM    3  N   UNL     1     -44.049  60.372 -51.095  1.00  0.00    -0.333 N 
HETATM    4  H   UNL     1     -44.724  60.405 -50.333  1.00  0.00     0.168 HD
BRANCH   3   5
HETATM    5  C   UNL     1     -43.474  59.111 -51.362  1.00  0.00     0.034 A 
HETATM    6  C   UNL     1     -44.185  58.072 -51.950  1.00  0.00     0.032 A 
HETATM    7  C   UNL     1     -43.573  56.840 -52.191  1.00  0.00     0.031 A 
HETATM    8  C   UNL     1     -42.240  56.585 -51.837  1.00  0.00     0.030 A 
HETATM    9  C   UNL     1     -41.518  57.666 -51.314  1.00  0.00     0.031 A 
HETATM   10  C   UNL     1     -42.120  58.919 -51.093  1.00  0.00     0.032 A 
BRANCH   8  11
HETATM   11  N   UNL     1     -41.697  55.314 -52.064  1.00  0.00    -0.378 N 
HETATM   12  C   UNL     1     -40.950  54.746 -50.912  1.00  0.00     0.143 C 
HETATM   13  C   UNL     1     -40.802  53.228 -51.072  1.00  0.00     0.145 C 
HETATM   14  N   UNL     1     -40.240  52.830 -52.367  1.00  0.00    -0.349 N 
HETATM   15  C   UNL     1     -39.668  51.561 -52.430  1.00  0.00     0.219 C 
HETATM   16  C   UNL     1     -40.825  53.510 -53.534  1.00  0.00     0.145 C 
HETATM   17  O   UNL     1     -39.459  50.890 -51.418  1.00  0.00    -0.273 OA
HETATM   18  C   UNL     1     -41.021  55.030 -53.344  1.00  0.00     0.143 C 
BRANCH  15  19
HETATM   19  C   UNL     1     -39.287  51.048 -53.809  1.00  0.00     0.098 C 
HETATM   20  C   UNL     1     -40.153  49.877 -54.247  1.00  0.00     0.014 C 
ENDBRANCH  15  19
ENDBRANCH   8  11
ENDBRANCH   3   5
ENDBRANCH   1   3
BRANCH   1  21
HETATM   21  N   UNL     1     -44.400  61.471 -53.119  1.00  0.00    -0.298 N 
HETATM   22  C   UNL     1     -43.800  60.963 -54.263  1.00  0.00     0.281 C 
HETATM   23  O   UNL     1     -42.588  60.799 -54.377  1.00  0.00    -0.265 OA
HETATM   24  H   UNL     1     -45.393  61.656 -53.204  1.00  0.00     0.171 HD
BRANCH  22  25
HETATM   25  C   UNL     1     -44.767  60.702 -55.311  1.00  0.00     0.144 A 
HETATM   26  O   UNL     1     -44.574  59.597 -56.096  1.00  0.00    -0.304 OA
HETATM   27  C   UNL     1     -45.559  59.563 -57.039  1.00  0.00     0.086 A 
HETATM   28  C   UNL     1     -46.401  60.641 -56.848  1.00  0.00     0.041 A 
HETATM   29  C   UNL     1     -45.895  61.371 -55.738  1.00  0.00     0.046 A 
BRANCH  27  30
HETATM   30  C   UNL     1     -45.479  58.459 -57.994  1.00  0.00    -0.001 A 
HETATM   31  C   UNL     1     -44.242  57.901 -58.348  1.00  0.00     0.038 A 
HETATM   32  C   UNL     1     -44.158  56.860 -59.278  1.00  0.00     0.040 A 
HETATM   33 CL   UNL     1     -42.587  56.243 -59.657  1.00  0.00    -0.084 Cl
HETATM   34  C   UNL     1     -45.312  56.345 -59.880  1.00  0.00    -0.040 A 
HETATM   35  C   UNL     1     -45.252  55.238 -60.895  1.00  0.00     0.050 C 
HETATM   36  C   UNL     1     -46.550  56.899 -59.527  1.00  0.00     0.009 A 
HETATM   37  C   UNL     1     -46.632  57.941 -58.594  1.00  0.00     0.015 A 
ENDBRANCH  27  30
ENDBRANCH  22  25
ENDBRANCH   1  21
TORSDOF 7
ENDMDL
MODEL 7
REMARK VINA RESULT:      -7.9      5.589     10.014
REMARK  7 active torsions:
REMARK  status: ('A' for Active; 'I' for Inactive)
REMARK    1  A    between atoms: C_2  and  C_3 
REMARK       I    between atoms: C_3  and  N_4 
REMARK    2  A    between atoms: N_7  and  C_8 
REMARK    3  A    between atoms: C_11  and  N_12 
REMARK    4  A    between atoms: N_12  and  C_13 
REMARK    5  A    between atoms: C_13  and  N_14 
REMARK       I    between atoms: N_14  and  C_15 
REMARK    6  A    between atoms: C_15  and  C_16 
REMARK    7  A    between atoms: C_18  and  C_19 
ROOT
HETATM    1  C   UNL     1     -45.348  61.572 -53.157  1.00  0.00     0.179 C 
HETATM    2  S   UNL     1     -44.005  62.265 -53.882  1.00  0.00    -0.040 SA
ENDROOT
BRANCH   1   3
HETATM    3  N   UNL     1     -45.822  60.288 -53.281  1.00  0.00    -0.333 N 
HETATM    4  H   UNL     1     -46.807  60.219 -53.530  1.00  0.00     0.168 HD
BRANCH   3   5
HETATM    5  C   UNL     1     -45.096  59.078 -53.270  1.00  0.00     0.034 A 
HETATM    6  C   UNL     1     -44.596  58.515 -52.101  1.00  0.00     0.032 A 
HETATM    7  C   UNL     1     -43.880  57.317 -52.141  1.00  0.00     0.031 A 
HETATM    8  C   UNL     1     -43.613  56.644 -53.343  1.00  0.00     0.030 A 
HETATM    9  C   UNL     1     -44.188  57.186 -54.499  1.00  0.00     0.031 A 
HETATM   10  C   UNL     1     -44.934  58.379 -54.464  1.00  0.00     0.032 A 
BRANCH   8  11
HETATM   11  N   UNL     1     -42.851  55.468 -53.320  1.00  0.00    -0.378 N 
HETATM   12  C   UNL     1     -41.726  55.482 -52.350  1.00  0.00     0.143 C 
HETATM   13  C   UNL     1     -41.256  54.050 -52.063  1.00  0.00     0.145 C 
HETATM   14  N   UNL     1     -40.955  53.281 -53.275  1.00  0.00    -0.349 N 
HETATM   15  C   UNL     1     -40.125  52.174 -53.115  1.00  0.00     0.219 C 
HETATM   16  C   UNL     1     -41.959  53.388 -54.345  1.00  0.00     0.145 C 
HETATM   17  O   UNL     1     -39.513  51.964 -52.066  1.00  0.00    -0.273 OA
HETATM   18  C   UNL     1     -42.467  54.826 -54.591  1.00  0.00     0.143 C 
BRANCH  15  19
HETATM   19  C   UNL     1     -39.986  51.242 -54.308  1.00  0.00     0.098 C 
HETATM   20  C   UNL     1     -39.663  49.816 -53.891  1.00  0.00     0.014 C 
ENDBRANCH  15  19
ENDBRANCH   8  11
ENDBRANCH   3   5
ENDBRANCH   1   3
BRANCH   1  21
HETATM   21  N   UNL     1     -46.079  62.405 -52.342  1.00  0.00    -0.298 N 
HETATM   22  C   UNL     1     -47.422  62.377 -51.995  1.00  0.00     0.281 C 
HETATM   23  O   UNL     1     -48.281  61.796 -52.656  1.00  0.00    -0.265 OA
HETATM   24  H   UNL     1     -45.502  63.012 -51.770  1.00  0.00     0.171 HD
BRANCH  22  25
HETATM   25  C   UNL     1     -47.689  63.152 -50.801  1.00  0.00     0.144 A 
HETATM   26  O   UNL     1     -46.857  62.975 -49.727  1.00  0.00    -0.304 OA
HETATM   27  C   UNL     1     -47.307  63.755 -48.703  1.00  0.00     0.086 A 
HETATM   28  C   UNL     1     -48.423  64.452 -49.124  1.00  0.00     0.041 A 
HETATM   29  C   UNL     1     -48.667  64.067 -50.471  1.00  0.00     0.046 A 
BRANCH  27  30
HETATM   30  C   UNL     1     -46.551  63.656 -47.456  1.00  0.00    -0.001 A 
HETATM   31  C   UNL     1     -46.010  62.431 -47.037  1.00  0.00     0.038 A 
HETATM   32  C   UNL     1     -45.305  62.326 -45.834  1.00  0.00     0.040 A 
HETATM   33 CL   UNL     1     -44.684  60.772 -45.397  1.00  0.00    -0.084 Cl
HETATM   34  C   UNL     1     -45.118  63.446 -45.016  1.00  0.00    -0.040 A 
HETATM   35  C   UNL     1     -44.379  63.361 -43.710  1.00  0.00     0.050 C 
HETATM   36  C   UNL     1     -45.654  64.672 -45.432  1.00  0.00     0.009 A 
HETATM   37  C   UNL     1     -46.360  64.776 -46.638  1.00  0.00     0.015 A 
ENDBRANCH  27  30
ENDBRANCH  22  25
ENDBRANCH   1  21
TORSDOF 7
ENDMDL
MODEL 8
REMARK VINA RESULT:      -7.8      4.182      8.291
REMARK  7 active torsions:
REMARK  status: ('A' for Active; 'I' for Inactive)
REMARK    1  A    between atoms: C_2  and  C_3 
REMARK       I    between atoms: C_3  and  N_4 
REMARK    2  A    between atoms: N_7  and  C_8 
REMARK    3  A    between atoms: C_11  and  N_12 
REMARK    4  A    between atoms: N_12  and  C_13 
REMARK    5  A    between atoms: C_13  and  N_14 
REMARK       I    between atoms: N_14  and  C_15 
REMARK    6  A    between atoms: C_15  and  C_16 
REMARK    7  A    between atoms: C_18  and  C_19 
ROOT
HETATM    1  C   UNL     1     -45.288  58.553 -56.685  1.00  0.00     0.179 C 
HETATM    2  S   UNL     1     -46.623  58.361 -57.681  1.00  0.00    -0.040 SA
ENDROOT
BRANCH   1   3
HETATM    3  N   UNL     1     -44.827  59.699 -56.083  1.00  0.00    -0.333 N 
HETATM    4  H   UNL     1     -44.363  60.354 -56.711  1.00  0.00     0.168 HD
BRANCH   3   5
HETATM    5  C   UNL     1     -45.052  60.153 -54.766  1.00  0.00     0.034 A 
HETATM    6  C   UNL     1     -45.902  61.213 -54.473  1.00  0.00     0.032 A 
HETATM    7  C   UNL     1     -46.089  61.628 -53.153  1.00  0.00     0.031 A 
HETATM    8  C   UNL     1     -45.425  61.022 -52.076  1.00  0.00     0.030 A 
HETATM    9  C   UNL     1     -44.631  59.909 -52.383  1.00  0.00     0.031 A 
HETATM   10  C   UNL     1     -44.458  59.467 -53.708  1.00  0.00     0.032 A 
BRANCH   8  11
HETATM   11  N   UNL     1     -45.622  61.514 -50.779  1.00  0.00    -0.378 N 
HETATM   12  C   UNL     1     -45.543  60.485 -49.711  1.00  0.00     0.143 C 
HETATM   13  C   UNL     1     -45.308  61.151 -48.349  1.00  0.00     0.145 C 
HETATM   14  N   UNL     1     -46.272  62.215 -48.046  1.00  0.00    -0.349 N 
HETATM   15  C   UNL     1     -46.416  62.555 -46.703  1.00  0.00     0.219 C 
HETATM   16  C   UNL     1     -46.525  63.157 -49.148  1.00  0.00     0.145 C 
HETATM   17  O   UNL     1     -45.924  61.874 -45.802  1.00  0.00    -0.273 OA
HETATM   18  C   UNL     1     -46.706  62.481 -50.525  1.00  0.00     0.143 C 
BRANCH  15  19
HETATM   19  C   UNL     1     -47.235  63.797 -46.394  1.00  0.00     0.098 C 
HETATM   20  C   UNL     1     -47.420  64.009 -44.900  1.00  0.00     0.014 C 
ENDBRANCH  15  19
ENDBRANCH   8  11
ENDBRANCH   3   5
ENDBRANCH   1   3
BRANCH   1  21
HETATM   21  N   UNL     1     -44.552  57.415 -56.453  1.00  0.00    -0.298 N 
HETATM   22  C   UNL     1     -43.182  57.240 -56.315  1.00  0.00     0.281 C 
HETATM   23  O   UNL     1     -42.350  58.038 -56.741  1.00  0.00    -0.265 OA
HETATM   24  H   UNL     1     -45.116  56.628 -56.155  1.00  0.00     0.171 HD
BRANCH  22  25
HETATM   25  C   UNL     1     -42.860  55.987 -55.662  1.00  0.00     0.144 A 
HETATM   26  O   UNL     1     -42.469  56.035 -54.350  1.00  0.00    -0.304 OA
HETATM   27  C   UNL     1     -42.171  54.767 -53.945  1.00  0.00     0.086 A 
HETATM   28  C   UNL     1     -42.390  53.896 -54.995  1.00  0.00     0.041 A 
HETATM   29  C   UNL     1     -42.835  54.678 -56.095  1.00  0.00     0.046 A 
BRANCH  27  30
HETATM   30  C   UNL     1     -41.693  54.641 -52.569  1.00  0.00    -0.001 A 
HETATM   31  C   UNL     1     -41.259  53.405 -52.068  1.00  0.00     0.038 A 
HETATM   32  C   UNL     1     -40.822  53.275 -50.745  1.00  0.00     0.040 A 
HETATM   33 CL   UNL     1     -40.315  51.709 -50.215  1.00  0.00    -0.084 Cl
HETATM   34  C   UNL     1     -40.804  54.380 -49.887  1.00  0.00    -0.040 A 
HETATM   35  C   UNL     1     -40.356  54.268 -48.457  1.00  0.00     0.050 C 
HETATM   36  C   UNL     1     -41.236  55.617 -50.385  1.00  0.00     0.009 A 
HETATM   37  C   UNL     1     -41.672  55.746 -51.710  1.00  0.00     0.015 A 
ENDBRANCH  27  30
ENDBRANCH  22  25
ENDBRANCH   1  21
TORSDOF 7
ENDMDL
MODEL 9
REMARK VINA RESULT:      -7.8      4.693      8.795
REMARK  7 active torsions:
REMARK  status: ('A' for Active; 'I' for Inactive)
REMARK    1  A    between atoms: C_2  and  C_3 
REMARK       I    between atoms: C_3  and  N_4 
REMARK    2  A    between atoms: N_7  and  C_8 
REMARK    3  A    between atoms: C_11  and  N_12 
REMARK    4  A    between atoms: N_12  and  C_13 
REMARK    5  A    between atoms: C_13  and  N_14 
REMARK       I    between atoms: N_14  and  C_15 
REMARK    6  A    between atoms: C_15  and  C_16 
REMARK    7  A    between atoms: C_18  and  C_19 
ROOT
HETATM    1  C   UNL     1     -44.104  60.486 -55.929  1.00  0.00     0.179 C 
HETATM    2  S   UNL     1     -45.454  60.842 -56.855  1.00  0.00    -0.040 SA
ENDROOT
BRANCH   1   3
HETATM    3  N   UNL     1     -43.477  61.272 -54.992  1.00  0.00    -0.333 N 
HETATM    4  H   UNL     1     -42.628  61.730 -55.318  1.00  0.00     0.168 HD
BRANCH   3   5
HETATM    5  C   UNL     1     -43.935  61.651 -53.713  1.00  0.00     0.034 A 
HETATM    6  C   UNL     1     -43.349  62.676 -52.979  1.00  0.00     0.032 A 
HETATM    7  C   UNL     1     -43.836  63.012 -51.714  1.00  0.00     0.031 A 
HETATM    8  C   UNL     1     -44.909  62.330 -51.120  1.00  0.00     0.030 A 
HETATM    9  C   UNL     1     -45.534  61.351 -51.904  1.00  0.00     0.031 A 
HETATM   10  C   UNL     1     -45.066  61.025 -53.190  1.00  0.00     0.032 A 
BRANCH   8  11
HETATM   11  N   UNL     1     -45.322  62.686 -49.829  1.00  0.00    -0.378 N 
HETATM   12  C   UNL     1     -46.736  63.133 -49.735  1.00  0.00     0.143 C 
HETATM   13  C   UNL     1     -47.222  63.053 -48.283  1.00  0.00     0.145 C 
HETATM   14  N   UNL     1     -46.342  63.745 -47.335  1.00  0.00    -0.349 N 
HETATM   15  C   UNL     1     -46.908  64.103 -46.113  1.00  0.00     0.219 C 
HETATM   16  C   UNL     1     -44.905  63.477 -47.511  1.00  0.00     0.145 C 
HETATM   17  O   UNL     1     -48.120  64.032 -45.911  1.00  0.00    -0.273 OA
HETATM   18  C   UNL     1     -44.435  63.504 -48.981  1.00  0.00     0.143 C 
BRANCH  15  19
HETATM   19  C   UNL     1     -45.959  64.613 -45.041  1.00  0.00     0.098 C 
HETATM   20  C   UNL     1     -46.642  64.762 -43.691  1.00  0.00     0.014 C 
ENDBRANCH  15  19
ENDBRANCH   8  11
ENDBRANCH   3   5
ENDBRANCH   1   3
BRANCH   1  21
HETATM   21  N   UNL     1     -43.544  59.249 -56.146  1.00  0.00    -0.298 N 
HETATM   22  C   UNL     1     -42.414  58.661 -55.594  1.00  0.00     0.281 C 
HETATM   23  O   UNL     1     -41.505  59.300 -55.070  1.00  0.00    -0.265 OA
HETATM   24  H   UNL     1     -44.158  58.614 -56.642  1.00  0.00     0.171 HD
BRANCH  22  25
HETATM   25  C   UNL     1     -42.419  57.222 -55.759  1.00  0.00     0.144 A 
HETATM   26  O   UNL     1     -41.816  56.466 -54.788  1.00  0.00    -0.304 OA
HETATM   27  C   UNL     1     -41.891  55.155 -55.157  1.00  0.00     0.086 A 
HETATM   28  C   UNL     1     -42.561  55.064 -56.362  1.00  0.00     0.041 A 
HETATM   29  C   UNL     1     -42.902  56.389 -56.747  1.00  0.00     0.046 A 
BRANCH  27  30
HETATM   30  C   UNL     1     -41.255  54.208 -54.244  1.00  0.00    -0.001 A 
HETATM   31  C   UNL     1     -40.893  52.923 -54.676  1.00  0.00     0.038 A 
HETATM   32  C   UNL     1     -40.305  52.005 -53.800  1.00  0.00     0.040 A 
HETATM   33 CL   UNL     1     -39.901  50.442 -54.423  1.00  0.00    -0.084 Cl
HETATM   34  C   UNL     1     -40.059  52.347 -52.465  1.00  0.00    -0.040 A 
HETATM   35  C   UNL     1     -39.444  51.376 -51.497  1.00  0.00     0.050 C 
HETATM   36  C   UNL     1     -40.418  53.630 -52.030  1.00  0.00     0.009 A 
HETATM   37  C   UNL     1     -41.006  54.549 -52.909  1.00  0.00     0.015 A 
ENDBRANCH  27  30
ENDBRANCH  22  25
ENDBRANCH   1  21
TORSDOF 7
ENDMDL
MODEL 10
REMARK VINA RESULT:      -7.6      3.662      6.145
REMARK  7 active torsions:
REMARK  status: ('A' for Active; 'I' for Inactive)
REMARK    1  A    between atoms: C_2  and  C_3 
REMARK       I    between atoms: C_3  and  N_4 
REMARK    2  A    between atoms: N_7  and  C_8 
REMARK    3  A    between atoms: C_11  and  N_12 
REMARK    4  A    between atoms: N_12  and  C_13 
REMARK    5  A    between atoms: C_13  and  N_14 
REMARK       I    between atoms: N_14  and  C_15 
REMARK    6  A    between atoms: C_15  and  C_16 
REMARK    7  A    between atoms: C_18  and  C_19 
ROOT
HETATM    1  C   UNL     1     -41.045  55.327 -49.837  1.00  0.00     0.179 C 
HETATM    2  S   UNL     1     -40.547  54.293 -48.616  1.00  0.00    -0.040 SA
ENDROOT
BRANCH   1   3
HETATM    3  N   UNL     1     -41.570  56.592 -49.726  1.00  0.00    -0.333 N 
HETATM    4  H   UNL     1     -41.492  57.007 -48.799  1.00  0.00     0.168 HD
BRANCH   3   5
HETATM    5  C   UNL     1     -42.048  57.439 -50.748  1.00  0.00     0.034 A 
HETATM    6  C   UNL     1     -41.232  58.350 -51.409  1.00  0.00     0.032 A 
HETATM    7  C   UNL     1     -41.752  59.170 -52.413  1.00  0.00     0.031 A 
HETATM    8  C   UNL     1     -43.105  59.133 -52.784  1.00  0.00     0.030 A 
HETATM    9  C   UNL     1     -43.894  58.158 -52.160  1.00  0.00     0.031 A 
HETATM   10  C   UNL     1     -43.371  57.310 -51.166  1.00  0.00     0.032 A 
BRANCH   8  11
HETATM   11  N   UNL     1     -43.574  60.014 -53.768  1.00  0.00    -0.378 N 
HETATM   12  C   UNL     1     -44.847  59.597 -54.411  1.00  0.00     0.143 C 
HETATM   13  C   UNL     1     -45.507  60.795 -55.105  1.00  0.00     0.145 C 
HETATM   14  N   UNL     1     -44.609  61.504 -56.024  1.00  0.00    -0.349 N 
HETATM   15  C   UNL     1     -45.217  62.291 -56.999  1.00  0.00     0.219 C 
HETATM   16  C   UNL     1     -43.263  61.774 -55.493  1.00  0.00     0.145 C 
HETATM   17  O   UNL     1     -46.429  62.240 -57.215  1.00  0.00    -0.273 OA
HETATM   18  C   UNL     1     -42.628  60.580 -54.748  1.00  0.00     0.143 C 
BRANCH  15  19
HETATM   19  C   UNL     1     -44.310  63.202 -57.809  1.00  0.00     0.098 C 
HETATM   20  C   UNL     1     -43.802  62.532 -59.076  1.00  0.00     0.014 C 
ENDBRANCH  15  19
ENDBRANCH   8  11
ENDBRANCH   3   5
ENDBRANCH   1   3
BRANCH   1  21
HETATM   21  N   UNL     1     -40.925  54.837 -51.116  1.00  0.00    -0.298 N 
HETATM   22  C   UNL     1     -41.837  54.156 -51.910  1.00  0.00     0.281 C 
HETATM   23  O   UNL     1     -42.809  53.552 -51.461  1.00  0.00    -0.265 OA
HETATM   24  H   UNL     1     -40.114  55.195 -51.607  1.00  0.00     0.171 HD
BRANCH  22  25
HETATM   25  C   UNL     1     -41.474  54.203 -53.312  1.00  0.00     0.144 A 
HETATM   26  O   UNL     1     -42.160  55.072 -54.120  1.00  0.00    -0.304 OA
HETATM   27  C   UNL     1     -41.699  54.926 -55.395  1.00  0.00     0.086 A 
HETATM   28  C   UNL     1     -40.699  53.972 -55.406  1.00  0.00     0.041 A 
HETATM   29  C   UNL     1     -40.552  53.511 -54.069  1.00  0.00     0.046 A 
BRANCH  27  30
HETATM   30  C   UNL     1     -42.357  55.757 -56.401  1.00  0.00    -0.001 A 
HETATM   31  C   UNL     1     -42.908  55.186 -57.558  1.00  0.00     0.038 A 
HETATM   32  C   UNL     1     -43.519  55.980 -58.535  1.00  0.00     0.040 A 
HETATM   33 CL   UNL     1     -44.161  55.187 -59.931  1.00  0.00    -0.084 Cl
HETATM   34  C   UNL     1     -43.599  57.369 -58.380  1.00  0.00    -0.040 A 
HETATM   35  C   UNL     1     -44.234  58.248 -59.419  1.00  0.00     0.050 C 
HETATM   36  C   UNL     1     -43.052  57.942 -57.224  1.00  0.00     0.009 A 
HETATM   37  C   UNL     1     -42.441  57.146 -56.246  1.00  0.00     0.015 A 
ENDBRANCH  27  30
ENDBRANCH  22  25
ENDBRANCH   1  21
TORSDOF 7
ENDMDL
