MODEL 1
REMARK VINA RESULT:      -9.5      0.000      0.000
REMARK  5 active torsions:
REMARK  status: ('A' for Active; 'I' for Inactive)
REMARK    1  A    between atoms: C_5  and  C_6 
REMARK    2  A    between atoms: C_11  and  C_12 
REMARK    3  A    between atoms: C_12  and  N_13 
REMARK    4  A    between atoms: N_13  and  C_15 
REMARK    5  A    between atoms: N_18  and  C_19 
ROOT
HETATM    1  N   UNL     1     -42.349  56.889 -52.005  1.00  0.00    -0.067 N 
HETATM    2  H   UNL     1     -41.820  57.180 -51.170  1.00  0.00     0.280 HD
HETATM    3  C   UNL     1     -43.735  57.416 -51.788  1.00  0.00     0.270 C 
ENDROOT
BRANCH   1   4
HETATM    4  C   UNL     1     -42.304  55.357 -51.908  1.00  0.00     0.277 C 
BRANCH   4   5
HETATM    5  C   UNL     1     -41.531  54.885 -50.726  1.00  0.00     0.016 A 
HETATM    6  C   UNL     1     -40.676  53.740 -50.651  1.00  0.00     0.096 A 
HETATM    7  N   UNL     1     -40.105  53.648 -49.446  1.00  0.00    -0.174 NA
HETATM    8  N   UNL     1     -40.548  54.702 -48.761  1.00  0.00    -0.288 N 
HETATM    9  H   UNL     1     -40.204  54.838 -47.813  1.00  0.00     0.188 HD
HETATM   10  C   UNL     1     -41.420  55.473 -49.478  1.00  0.00     0.120 A 
BRANCH   6  11
HETATM   11  C   UNL     1     -40.366  52.758 -51.683  1.00  0.00    -0.005 A 
HETATM   12  C   UNL     1     -40.630  53.022 -53.031  1.00  0.00     0.014 A 
HETATM   13  C   UNL     1     -40.340  52.059 -54.005  1.00  0.00     0.007 A 
HETATM   14  C   UNL     1     -39.802  50.819 -53.640  1.00  0.00    -0.062 A 
HETATM   15  C   UNL     1     -39.494  49.780 -54.679  1.00  0.00     0.048 C 
HETATM   16  C   UNL     1     -39.532  50.563 -52.291  1.00  0.00     0.007 A 
HETATM   17  C   UNL     1     -39.820  51.522 -51.318  1.00  0.00     0.014 A 
ENDBRANCH   6  11
ENDBRANCH   4   5
ENDBRANCH   1   4
BRANCH   1  18
HETATM   18  C   UNL     1     -41.579  57.438 -53.212  1.00  0.00     0.190 C 
HETATM   19  C   UNL     1     -40.963  56.344 -54.094  1.00  0.00     0.048 C 
HETATM   20  C   UNL     1     -41.774  55.991 -55.337  1.00  0.00     0.099 C 
HETATM   21  N   UNL     1     -42.174  57.232 -56.005  1.00  0.00    -0.268 NA
HETATM   22  C   UNL     1     -43.104  58.040 -55.210  1.00  0.00     0.099 C 
HETATM   23  C   UNL     1     -42.389  58.515 -53.949  1.00  0.00     0.048 C 
BRANCH  21  24
HETATM   24  C   UNL     1     -42.539  57.080 -57.353  1.00  0.00     0.109 A 
HETATM   25  N   UNL     1     -42.124  57.976 -58.265  1.00  0.00    -0.224 NA
HETATM   26  C   UNL     1     -42.432  57.750 -59.567  1.00  0.00     0.102 A 
HETATM   27  C   UNL     1     -41.957  58.725 -60.598  1.00  0.00     0.091 C 
HETATM   28  N   UNL     1     -43.121  56.679 -59.985  1.00  0.00    -0.348 N 
HETATM   29  H   UNL     1     -43.304  56.561 -60.980  1.00  0.00     0.167 HD
HETATM   30  C   UNL     1     -43.547  55.767 -59.098  1.00  0.00     0.009 A 
HETATM   31  C   UNL     1     -44.290  54.566 -59.589  1.00  0.00     0.068 C 
HETATM   32  C   UNL     1     -43.260  55.957 -57.745  1.00  0.00     0.069 A 
ENDBRANCH  21  24
ENDBRANCH   1  18
TORSDOF 5
ENDMDL
MODEL 2
REMARK VINA RESULT:      -9.5      0.534      1.559
REMARK  5 active torsions:
REMARK  status: ('A' for Active; 'I' for Inactive)
REMARK    1  A    between atoms: C_5  and  C_6 
REMARK    2  A    between atoms: C_11  and  C_12 
REMARK    3  A    between atoms: C_12  and  N_13 
REMARK    4  A    between atoms: N_13  and  C_15 
REMARK    5  A    between atoms: N_18  and  C_19 
ROOT
HETATM    1  N   UNL     1     -42.640  56.792 -51.939  1.00  0.00    -0.067 N 
HETATM    2  H   UNL     1     -42.185  57.109 -51.071  1.00  0.00     0.280 HD
HETATM    3  C   UNL     1     -44.087  57.145 -51.768  1.00  0.00     0.270 C 
ENDROOT
BRANCH   1   4
HETATM    4  C   UNL     1     -42.420  55.273 -51.893  1.00  0.00     0.277 C 
BRANCH   4   5
HETATM    5  C   UNL     1     -41.587  54.854 -50.733  1.00  0.00     0.016 A 
HETATM    6  C   UNL     1     -40.681  53.748 -50.669  1.00  0.00     0.096 A 
HETATM    7  N   UNL     1     -40.066  53.701 -49.484  1.00  0.00    -0.174 NA
HETATM    8  N   UNL     1     -40.529  54.748 -48.801  1.00  0.00    -0.288 N 
HETATM    9  H   UNL     1     -40.159  54.914 -47.868  1.00  0.00     0.188 HD
HETATM   10  C   UNL     1     -41.458  55.469 -49.498  1.00  0.00     0.120 A 
BRANCH   6  11
HETATM   11  C   UNL     1     -40.365  52.762 -51.696  1.00  0.00    -0.005 A 
HETATM   12  C   UNL     1     -40.616  53.024 -53.047  1.00  0.00     0.014 A 
HETATM   13  C   UNL     1     -40.321  52.058 -54.016  1.00  0.00     0.007 A 
HETATM   14  C   UNL     1     -39.791  50.817 -53.642  1.00  0.00    -0.062 A 
HETATM   15  C   UNL     1     -39.477  49.774 -54.676  1.00  0.00     0.048 C 
HETATM   16  C   UNL     1     -39.534  50.563 -52.290  1.00  0.00     0.007 A 
HETATM   17  C   UNL     1     -39.827  51.526 -51.323  1.00  0.00     0.014 A 
ENDBRANCH   6  11
ENDBRANCH   4   5
ENDBRANCH   1   4
BRANCH   1  18
HETATM   18  C   UNL     1     -41.891  57.475 -53.090  1.00  0.00     0.190 C 
HETATM   19  C   UNL     1     -41.057  56.504 -53.938  1.00  0.00     0.048 C 
HETATM   20  C   UNL     1     -41.723  56.050 -55.233  1.00  0.00     0.099 C 
HETATM   21  N   UNL     1     -42.269  57.224 -55.917  1.00  0.00    -0.268 NA
HETATM   22  C   UNL     1     -43.362  57.865 -55.180  1.00  0.00     0.099 C 
HETATM   23  C   UNL     1     -42.811  58.424 -53.871  1.00  0.00     0.048 C 
BRANCH  21  24
HETATM   24  C   UNL     1     -42.520  57.041 -57.287  1.00  0.00     0.109 A 
HETATM   25  N   UNL     1     -43.194  55.957 -57.707  1.00  0.00    -0.224 NA
HETATM   26  C   UNL     1     -43.484  55.858 -59.028  1.00  0.00     0.102 A 
HETATM   27  C   UNL     1     -44.256  54.669 -59.508  1.00  0.00     0.091 C 
HETATM   28  N   UNL     1     -43.137  56.787 -59.929  1.00  0.00    -0.348 N 
HETATM   29  H   UNL     1     -43.401  56.658 -60.905  1.00  0.00     0.167 HD
HETATM   30  C   UNL     1     -42.464  57.881 -59.541  1.00  0.00     0.009 A 
HETATM   31  C   UNL     1     -42.111  58.918 -60.558  1.00  0.00     0.068 C 
HETATM   32  C   UNL     1     -42.137  58.026 -58.191  1.00  0.00     0.069 A 
ENDBRANCH  21  24
ENDBRANCH   1  18
TORSDOF 5
ENDMDL
MODEL 3
REMARK VINA RESULT:      -8.9      1.985      2.459
REMARK  5 active torsions:
REMARK  status: ('A' for Active; 'I' for Inactive)
REMARK    1  A    between atoms: C_5  and  C_6 
REMARK    2  A    between atoms: C_11  and  C_12 
REMARK    3  A    between atoms: C_12  and  N_13 
REMARK    4  A    between atoms: N_13  and  C_15 
REMARK    5  A    between atoms: N_18  and  C_19 
ROOT
HETATM    1  N   UNL     1     -42.758  56.960 -53.577  1.00  0.00    -0.067 N 
HETATM    2  H   UNL     1     -43.029  57.546 -52.774  1.00  0.00     0.280 HD
HETATM    3  C   UNL     1     -43.769  55.853 -53.605  1.00  0.00     0.270 C 
ENDROOT
BRANCH   1   4
HETATM    4  C   UNL     1     -41.371  56.449 -53.162  1.00  0.00     0.277 C 
BRANCH   4   5
HETATM    5  C   UNL     1     -41.352  55.922 -51.770  1.00  0.00     0.016 A 
HETATM    6  C   UNL     1     -41.025  54.594 -51.349  1.00  0.00     0.096 A 
HETATM    7  N   UNL     1     -41.065  54.491 -50.018  1.00  0.00    -0.174 NA
HETATM    8  N   UNL     1     -41.382  55.707 -49.575  1.00  0.00    -0.288 N 
HETATM    9  H   UNL     1     -41.436  55.854 -48.570  1.00  0.00     0.188 HD
HETATM   10  C   UNL     1     -41.581  56.605 -50.587  1.00  0.00     0.120 A 
BRANCH   6  11
HETATM   11  C   UNL     1     -40.653  53.441 -52.161  1.00  0.00    -0.005 A 
HETATM   12  C   UNL     1     -41.199  53.251 -53.435  1.00  0.00     0.014 A 
HETATM   13  C   UNL     1     -40.842  52.129 -54.191  1.00  0.00     0.007 A 
HETATM   14  C   UNL     1     -39.952  51.179 -53.675  1.00  0.00    -0.062 A 
HETATM   15  C   UNL     1     -39.569  49.970 -54.479  1.00  0.00     0.048 C 
HETATM   16  C   UNL     1     -39.402  51.377 -52.404  1.00  0.00     0.007 A 
HETATM   17  C   UNL     1     -39.757  52.496 -51.648  1.00  0.00     0.014 A 
ENDBRANCH   6  11
ENDBRANCH   4   5
ENDBRANCH   1   4
BRANCH   1  18
HETATM   18  C   UNL     1     -42.718  57.892 -54.794  1.00  0.00     0.190 C 
HETATM   19  C   UNL     1     -42.035  57.269 -56.019  1.00  0.00     0.048 C 
HETATM   20  C   UNL     1     -42.990  56.687 -57.057  1.00  0.00     0.099 C 
HETATM   21  N   UNL     1     -44.052  57.662 -57.316  1.00  0.00    -0.268 NA
HETATM   22  C   UNL     1     -44.916  57.897 -56.154  1.00  0.00     0.099 C 
HETATM   23  C   UNL     1     -44.086  58.541 -55.047  1.00  0.00     0.048 C 
BRANCH  21  24
HETATM   24  C   UNL     1     -44.742  57.470 -58.524  1.00  0.00     0.109 A 
HETATM   25  N   UNL     1     -44.507  56.373 -59.265  1.00  0.00    -0.224 NA
HETATM   26  C   UNL     1     -45.251  56.188 -60.384  1.00  0.00     0.102 A 
HETATM   27  C   UNL     1     -45.019  54.959 -61.206  1.00  0.00     0.091 C 
HETATM   28  N   UNL     1     -46.208  57.038 -60.781  1.00  0.00    -0.348 N 
HETATM   29  H   UNL     1     -46.742  56.829 -61.623  1.00  0.00     0.167 HD
HETATM   30  C   UNL     1     -46.467  58.141 -60.062  1.00  0.00     0.009 A 
HETATM   31  C   UNL     1     -47.557  59.061 -60.508  1.00  0.00     0.068 C 
HETATM   32  C   UNL     1     -45.724  58.380 -58.904  1.00  0.00     0.069 A 
ENDBRANCH  21  24
ENDBRANCH   1  18
TORSDOF 5
ENDMDL
MODEL 4
REMARK VINA RESULT:      -8.8      1.972      2.723
REMARK  5 active torsions:
REMARK  status: ('A' for Active; 'I' for Inactive)
REMARK    1  A    between atoms: C_5  and  C_6 
REMARK    2  A    between atoms: C_11  and  C_12 
REMARK    3  A    between atoms: C_12  and  N_13 
REMARK    4  A    between atoms: N_13  and  C_15 
REMARK    5  A    between atoms: N_18  and  C_19 
ROOT
HETATM    1  N   UNL     1     -41.506  57.929 -54.294  1.00  0.00    -0.067 N 
HETATM    2  H   UNL     1     -40.817  57.938 -55.060  1.00  0.00     0.280 HD
HETATM    3  C   UNL     1     -41.656  59.366 -53.894  1.00  0.00     0.270 C 
ENDROOT
BRANCH   1   4
HETATM    4  C   UNL     1     -40.788  57.112 -53.210  1.00  0.00     0.277 C 
BRANCH   4   5
HETATM    5  C   UNL     1     -41.730  56.555 -52.202  1.00  0.00     0.016 A 
HETATM    6  C   UNL     1     -41.957  55.175 -51.897  1.00  0.00     0.096 A 
HETATM    7  N   UNL     1     -42.838  55.044 -50.901  1.00  0.00    -0.174 NA
HETATM    8  N   UNL     1     -43.161  56.287 -50.546  1.00  0.00    -0.288 N 
HETATM    9  H   UNL     1     -43.808  56.412 -49.770  1.00  0.00     0.188 HD
HETATM   10  C   UNL     1     -42.535  57.236 -51.305  1.00  0.00     0.120 A 
BRANCH   6  11
HETATM   11  C   UNL     1     -41.351  53.992 -52.497  1.00  0.00    -0.005 A 
HETATM   12  C   UNL     1     -41.702  53.578 -53.786  1.00  0.00     0.014 A 
HETATM   13  C   UNL     1     -41.121  52.431 -54.337  1.00  0.00     0.007 A 
HETATM   14  C   UNL     1     -40.200  51.677 -53.600  1.00  0.00    -0.062 A 
HETATM   15  C   UNL     1     -39.577  50.441 -54.184  1.00  0.00     0.048 C 
HETATM   16  C   UNL     1     -39.846  52.099 -52.314  1.00  0.00     0.007 A 
HETATM   17  C   UNL     1     -40.424  53.244 -51.762  1.00  0.00     0.014 A 
ENDBRANCH   6  11
ENDBRANCH   4   5
ENDBRANCH   1   4
BRANCH   1  18
HETATM   18  C   UNL     1     -42.753  57.229 -54.848  1.00  0.00     0.190 C 
HETATM   19  C   UNL     1     -43.983  58.144 -54.927  1.00  0.00     0.048 C 
HETATM   20  C   UNL     1     -44.252  58.739 -56.306  1.00  0.00     0.099 C 
HETATM   21  N   UNL     1     -44.156  57.672 -57.304  1.00  0.00    -0.268 NA
HETATM   22  C   UNL     1     -42.803  57.120 -57.431  1.00  0.00     0.099 C 
HETATM   23  C   UNL     1     -42.429  56.433 -56.120  1.00  0.00     0.048 C 
BRANCH  21  24
HETATM   24  C   UNL     1     -44.785  57.956 -58.528  1.00  0.00     0.109 A 
HETATM   25  N   UNL     1     -44.387  59.012 -59.258  1.00  0.00    -0.224 NA
HETATM   26  C   UNL     1     -44.967  59.205 -60.470  1.00  0.00     0.102 A 
HETATM   27  C   UNL     1     -44.518  60.362 -61.305  1.00  0.00     0.091 C 
HETATM   28  N   UNL     1     -45.907  58.393 -60.973  1.00  0.00    -0.348 N 
HETATM   29  H   UNL     1     -46.289  58.586 -61.897  1.00  0.00     0.167 HD
HETATM   30  C   UNL     1     -46.324  57.330 -60.268  1.00  0.00     0.009 A 
HETATM   31  C   UNL     1     -47.354  56.423 -60.860  1.00  0.00     0.068 C 
HETATM   32  C   UNL     1     -45.761  57.092 -59.013  1.00  0.00     0.069 A 
ENDBRANCH  21  24
ENDBRANCH   1  18
TORSDOF 5
ENDMDL
MODEL 5
REMARK VINA RESULT:      -8.5     14.626     18.185
REMARK  5 active torsions:
REMARK  status: ('A' for Active; 'I' for Inactive)
REMARK    1  A    between atoms: C_5  and  C_6 
REMARK    2  A    between atoms: C_11  and  C_12 
REMARK    3  A    between atoms: C_12  and  N_13 
REMARK    4  A    between atoms: N_13  and  C_15 
REMARK    5  A    between atoms: N_18  and  C_19 
ROOT
HETATM    1  N   UNL     1     -35.478  38.406 -58.678  1.00  0.00    -0.067 N 
HETATM    2  H   UNL     1     -34.999  39.305 -58.532  1.00  0.00     0.280 HD
HETATM    3  C   UNL     1     -34.972  37.908 -59.998  1.00  0.00     0.270 C 
ENDROOT
BRANCH   1   4
HETATM    4  C   UNL     1     -36.953  38.825 -58.759  1.00  0.00     0.277 C 
BRANCH   4   5
HETATM    5  C   UNL     1     -37.128  40.175 -59.360  1.00  0.00     0.016 A 
HETATM    6  C   UNL     1     -36.957  41.441 -58.713  1.00  0.00     0.096 A 
HETATM    7  N   UNL     1     -37.149  42.446 -59.571  1.00  0.00    -0.174 NA
HETATM    8  N   UNL     1     -37.412  41.869 -60.744  1.00  0.00    -0.288 N 
HETATM    9  H   UNL     1     -37.561  42.469 -61.552  1.00  0.00     0.188 HD
HETATM   10  C   UNL     1     -37.426  40.504 -60.671  1.00  0.00     0.120 A 
BRANCH   6  11
HETATM   11  C   UNL     1     -36.596  41.721 -57.328  1.00  0.00    -0.005 A 
HETATM   12  C   UNL     1     -35.265  41.956 -56.965  1.00  0.00     0.014 A 
HETATM   13  C   UNL     1     -34.937  42.206 -55.628  1.00  0.00     0.007 A 
HETATM   14  C   UNL     1     -35.930  42.206 -54.640  1.00  0.00    -0.062 A 
HETATM   15  C   UNL     1     -35.583  42.469 -53.203  1.00  0.00     0.048 C 
HETATM   16  C   UNL     1     -37.260  41.978 -55.010  1.00  0.00     0.007 A 
HETATM   17  C   UNL     1     -37.590  41.729 -56.343  1.00  0.00     0.014 A 
ENDBRANCH   6  11
ENDBRANCH   4   5
ENDBRANCH   1   4
BRANCH   1  18
HETATM   18  C   UNL     1     -35.163  37.548 -57.447  1.00  0.00     0.190 C 
HETATM   19  C   UNL     1     -33.762  37.795 -56.871  1.00  0.00     0.048 C 
HETATM   20  C   UNL     1     -33.718  38.737 -55.672  1.00  0.00     0.099 C 
HETATM   21  N   UNL     1     -34.762  38.338 -54.724  1.00  0.00    -0.268 NA
HETATM   22  C   UNL     1     -36.119  38.519 -55.250  1.00  0.00     0.099 C 
HETATM   23  C   UNL     1     -36.317  37.577 -56.434  1.00  0.00     0.048 C 
BRANCH  21  24
HETATM   24  C   UNL     1     -34.577  38.812 -53.415  1.00  0.00     0.109 A 
HETATM   25  N   UNL     1     -33.374  39.273 -53.032  1.00  0.00    -0.224 NA
HETATM   26  C   UNL     1     -33.258  39.795 -51.784  1.00  0.00     0.102 A 
HETATM   27  C   UNL     1     -31.931  40.334 -51.352  1.00  0.00     0.091 C 
HETATM   28  N   UNL     1     -34.282  39.878 -50.924  1.00  0.00    -0.348 N 
HETATM   29  H   UNL     1     -34.130  40.297 -50.008  1.00  0.00     0.167 HD
HETATM   30  C   UNL     1     -35.495  39.427 -51.278  1.00  0.00     0.009 A 
HETATM   31  C   UNL     1     -36.630  39.555 -50.313  1.00  0.00     0.068 C 
HETATM   32  C   UNL     1     -35.664  38.876 -52.550  1.00  0.00     0.069 A 
ENDBRANCH  21  24
ENDBRANCH   1  18
TORSDOF 5
ENDMDL
MODEL 6
REMARK VINA RESULT:      -8.4      3.107      6.295
REMARK  5 active torsions:
REMARK  status: ('A' for Active; 'I' for Inactive)
REMARK    1  A    between atoms: C_5  and  C_6 
REMARK    2  A    between atoms: C_11  and  C_12 
REMARK    3  A    between atoms: C_12  and  N_13 
REMARK    4  A    between atoms: N_13  and  C_15 
REMARK    5  A    between atoms: N_18  and  C_19 
ROOT
HETATM    1  N   UNL     1     -42.511  56.616 -54.140  1.00  0.00    -0.067 N 
HETATM    2  H   UNL     1     -43.180  56.087 -53.562  1.00  0.00     0.280 HD
HETATM    3  C   UNL     1     -42.389  55.827 -55.409  1.00  0.00     0.270 C 
ENDROOT
BRANCH   1   4
HETATM    4  C   UNL     1     -41.224  56.548 -53.306  1.00  0.00     0.277 C 
BRANCH   4   5
HETATM    5  C   UNL     1     -41.466  56.038 -51.929  1.00  0.00     0.016 A 
HETATM    6  C   UNL     1     -41.272  54.702 -51.452  1.00  0.00     0.096 A 
HETATM    7  N   UNL     1     -41.543  54.615 -50.147  1.00  0.00    -0.174 NA
HETATM    8  N   UNL     1     -41.880  55.849 -49.771  1.00  0.00    -0.288 N 
HETATM    9  H   UNL     1     -42.099  56.009 -48.790  1.00  0.00     0.188 HD
HETATM   10  C   UNL     1     -41.865  56.743 -50.805  1.00  0.00     0.120 A 
BRANCH   6  11
HETATM   11  C   UNL     1     -40.816  53.526 -52.183  1.00  0.00    -0.005 A 
HETATM   12  C   UNL     1     -39.853  52.668 -51.640  1.00  0.00     0.014 A 
HETATM   13  C   UNL     1     -39.416  51.554 -52.364  1.00  0.00     0.007 A 
HETATM   14  C   UNL     1     -39.923  51.295 -53.644  1.00  0.00    -0.062 A 
HETATM   15  C   UNL     1     -39.455  50.104 -54.429  1.00  0.00     0.048 C 
HETATM   16  C   UNL     1     -40.893  52.151 -54.180  1.00  0.00     0.007 A 
HETATM   17  C   UNL     1     -41.330  53.263 -53.458  1.00  0.00     0.014 A 
ENDBRANCH   6  11
ENDBRANCH   4   5
ENDBRANCH   1   4
BRANCH   1  18
HETATM   18  C   UNL     1     -43.078  58.036 -54.259  1.00  0.00     0.190 C 
HETATM   19  C   UNL     1     -44.478  58.189 -53.649  1.00  0.00     0.048 C 
HETATM   20  C   UNL     1     -44.504  58.777 -52.242  1.00  0.00     0.099 C 
HETATM   21  N   UNL     1     -43.636  59.957 -52.211  1.00  0.00    -0.268 NA
HETATM   22  C   UNL     1     -42.220  59.638 -52.420  1.00  0.00     0.099 C 
HETATM   23  C   UNL     1     -42.044  59.088 -53.833  1.00  0.00     0.048 C 
BRANCH  21  24
HETATM   24  C   UNL     1     -43.883  60.837 -51.145  1.00  0.00     0.109 A 
HETATM   25  N   UNL     1     -44.636  60.439 -50.105  1.00  0.00    -0.224 NA
HETATM   26  C   UNL     1     -44.784  61.292 -49.060  1.00  0.00     0.102 A 
HETATM   27  C   UNL     1     -45.599  60.853 -47.884  1.00  0.00     0.091 C 
HETATM   28  N   UNL     1     -44.213  62.503 -49.013  1.00  0.00    -0.348 N 
HETATM   29  H   UNL     1     -44.352  63.087 -48.189  1.00  0.00     0.167 HD
HETATM   30  C   UNL     1     -43.455  62.929 -50.035  1.00  0.00     0.009 A 
HETATM   31  C   UNL     1     -42.806  64.272 -49.949  1.00  0.00     0.068 C 
HETATM   32  C   UNL     1     -43.277  62.089 -51.136  1.00  0.00     0.069 A 
ENDBRANCH  21  24
ENDBRANCH   1  18
TORSDOF 5
ENDMDL
MODEL 7
REMARK VINA RESULT:      -8.4      3.424      6.328
REMARK  5 active torsions:
REMARK  status: ('A' for Active; 'I' for Inactive)
REMARK    1  A    between atoms: C_5  and  C_6 
REMARK    2  A    between atoms: C_11  and  C_12 
REMARK    3  A    between atoms: C_12  and  N_13 
REMARK    4  A    between atoms: N_13  and  C_15 
REMARK    5  A    between atoms: N_18  and  C_19 
ROOT
HETATM    1  N   UNL     1     -42.824  56.507 -52.786  1.00  0.00    -0.067 N 
HETATM    2  H   UNL     1     -43.286  56.339 -51.881  1.00  0.00     0.280 HD
HETATM    3  C   UNL     1     -43.472  55.544 -53.735  1.00  0.00     0.270 C 
ENDROOT
BRANCH   1   4
HETATM    4  C   UNL     1     -41.368  56.117 -52.493  1.00  0.00     0.277 C 
BRANCH   4   5
HETATM    5  C   UNL     1     -41.212  55.460 -51.166  1.00  0.00     0.016 A 
HETATM    6  C   UNL     1     -40.807  54.112 -50.909  1.00  0.00     0.096 A 
HETATM    7  N   UNL     1     -40.728  53.878 -49.596  1.00  0.00    -0.174 NA
HETATM    8  N   UNL     1     -41.045  55.033 -49.009  1.00  0.00    -0.288 N 
HETATM    9  H   UNL     1     -41.016  55.079 -47.993  1.00  0.00     0.188 HD
HETATM   10  C   UNL     1     -41.359  56.015 -49.906  1.00  0.00     0.120 A 
BRANCH   6  11
HETATM   11  C   UNL     1     -40.470  53.059 -51.859  1.00  0.00    -0.005 A 
HETATM   12  C   UNL     1     -40.828  53.163 -53.208  1.00  0.00     0.014 A 
HETATM   13  C   UNL     1     -40.510  52.134 -54.101  1.00  0.00     0.007 A 
HETATM   14  C   UNL     1     -39.848  50.984 -53.653  1.00  0.00    -0.062 A 
HETATM   15  C   UNL     1     -39.509  49.874 -54.605  1.00  0.00     0.048 C 
HETATM   16  C   UNL     1     -39.484  50.888 -52.305  1.00  0.00     0.007 A 
HETATM   17  C   UNL     1     -39.800  51.914 -51.413  1.00  0.00     0.014 A 
ENDBRANCH   6  11
ENDBRANCH   4   5
ENDBRANCH   1   4
BRANCH   1  18
HETATM   18  C   UNL     1     -42.999  58.000 -53.087  1.00  0.00     0.190 C 
HETATM   19  C   UNL     1     -44.457  58.405 -53.347  1.00  0.00     0.048 C 
HETATM   20  C   UNL     1     -45.174  59.019 -52.149  1.00  0.00     0.099 C 
HETATM   21  N   UNL     1     -44.302  60.032 -51.549  1.00  0.00    -0.268 NA
HETATM   22  C   UNL     1     -43.082  59.470 -50.962  1.00  0.00     0.099 C 
HETATM   23  C   UNL     1     -42.233  58.868 -52.078  1.00  0.00     0.048 C 
BRANCH  21  24
HETATM   24  C   UNL     1     -44.964  60.965 -50.733  1.00  0.00     0.109 A 
HETATM   25  N   UNL     1     -45.944  61.730 -51.245  1.00  0.00    -0.224 NA
HETATM   26  C   UNL     1     -46.610  62.561 -50.405  1.00  0.00     0.102 A 
HETATM   27  C   UNL     1     -47.720  63.400 -50.955  1.00  0.00     0.091 C 
HETATM   28  N   UNL     1     -46.343  62.651 -49.095  1.00  0.00    -0.348 N 
HETATM   29  H   UNL     1     -46.894  63.284 -48.517  1.00  0.00     0.167 HD
HETATM   30  C   UNL     1     -45.372  61.900 -48.554  1.00  0.00     0.009 A 
HETATM   31  C   UNL     1     -45.109  61.997 -47.086  1.00  0.00     0.068 C 
HETATM   32  C   UNL     1     -44.653  61.032 -49.379  1.00  0.00     0.069 A 
ENDBRANCH  21  24
ENDBRANCH   1  18
TORSDOF 5
ENDMDL
MODEL 8
REMARK VINA RESULT:      -8.4      2.746      5.906
REMARK  5 active torsions:
REMARK  status: ('A' for Active; 'I' for Inactive)
REMARK    1  A    between atoms: C_5  and  C_6 
REMARK    2  A    between atoms: C_11  and  C_12 
REMARK    3  A    between atoms: C_12  and  N_13 
REMARK    4  A    between atoms: N_13  and  C_15 
REMARK    5  A    between atoms: N_18  and  C_19 
ROOT
HETATM    1  N   UNL     1     -40.323  52.801 -50.139  1.00  0.00    -0.067 N 
HETATM    2  H   UNL     1     -39.582  53.034 -49.463  1.00  0.00     0.280 HD
HETATM    3  C   UNL     1     -40.605  51.345 -49.917  1.00  0.00     0.270 C 
ENDROOT
BRANCH   1   4
HETATM    4  C   UNL     1     -39.629  53.043 -51.488  1.00  0.00     0.277 C 
BRANCH   4   5
HETATM    5  C   UNL     1     -39.778  51.891 -52.419  1.00  0.00     0.016 A 
HETATM    6  C   UNL     1     -40.380  51.898 -53.717  1.00  0.00     0.096 A 
HETATM    7  N   UNL     1     -40.294  50.694 -54.290  1.00  0.00    -0.174 NA
HETATM    8  N   UNL     1     -39.641  49.929 -53.415  1.00  0.00    -0.288 N 
HETATM    9  H   UNL     1     -39.442  48.965 -53.675  1.00  0.00     0.188 HD
HETATM   10  C   UNL     1     -39.319  50.594 -52.265  1.00  0.00     0.120 A 
BRANCH   6  11
HETATM   11  C   UNL     1     -41.002  53.005 -54.434  1.00  0.00    -0.005 A 
HETATM   12  C   UNL     1     -40.248  54.108 -54.850  1.00  0.00     0.014 A 
HETATM   13  C   UNL     1     -40.867  55.168 -55.521  1.00  0.00     0.007 A 
HETATM   14  C   UNL     1     -42.246  55.145 -55.767  1.00  0.00    -0.062 A 
HETATM   15  C   UNL     1     -42.917  56.282 -56.482  1.00  0.00     0.048 C 
HETATM   16  C   UNL     1     -42.994  54.036 -55.356  1.00  0.00     0.007 A 
HETATM   17  C   UNL     1     -42.378  52.977 -54.686  1.00  0.00     0.014 A 
ENDBRANCH   6  11
ENDBRANCH   4   5
ENDBRANCH   1   4
BRANCH   1  18
HETATM   18  C   UNL     1     -41.473  53.778 -49.869  1.00  0.00     0.190 C 
HETATM   19  C   UNL     1     -41.033  55.051 -49.133  1.00  0.00     0.048 C 
HETATM   20  C   UNL     1     -40.806  56.264 -50.030  1.00  0.00     0.099 C 
HETATM   21  N   UNL     1     -41.942  56.389 -50.947  1.00  0.00    -0.268 NA
HETATM   22  C   UNL     1     -42.041  55.277 -51.898  1.00  0.00     0.099 C 
HETATM   23  C   UNL     1     -42.331  53.994 -51.125  1.00  0.00     0.048 C 
BRANCH  21  24
HETATM   24  C   UNL     1     -42.093  57.661 -51.522  1.00  0.00     0.109 A 
HETATM   25  N   UNL     1     -42.276  58.736 -50.736  1.00  0.00    -0.224 NA
HETATM   26  C   UNL     1     -42.339  59.956 -51.327  1.00  0.00     0.102 A 
HETATM   27  C   UNL     1     -42.517  61.165 -50.463  1.00  0.00     0.091 C 
HETATM   28  N   UNL     1     -42.221  60.140 -52.649  1.00  0.00    -0.348 N 
HETATM   29  H   UNL     1     -42.261  61.086 -53.026  1.00  0.00     0.167 HD
HETATM   30  C   UNL     1     -42.038  59.087 -53.460  1.00  0.00     0.009 A 
HETATM   31  C   UNL     1     -41.882  59.317 -54.929  1.00  0.00     0.068 C 
HETATM   32  C   UNL     1     -41.971  57.809 -52.900  1.00  0.00     0.069 A 
ENDBRANCH  21  24
ENDBRANCH   1  18
TORSDOF 5
ENDMDL
MODEL 9
REMARK VINA RESULT:      -8.3      1.761      9.084
REMARK  5 active torsions:
REMARK  status: ('A' for Active; 'I' for Inactive)
REMARK    1  A    between atoms: C_5  and  C_6 
REMARK    2  A    between atoms: C_11  and  C_12 
REMARK    3  A    between atoms: C_12  and  N_13 
REMARK    4  A    between atoms: N_13  and  C_15 
REMARK    5  A    between atoms: N_18  and  C_19 
ROOT
HETATM    1  N   UNL     1     -43.588  56.532 -56.799  1.00  0.00    -0.067 N 
HETATM    2  H   UNL     1     -44.448  56.793 -57.302  1.00  0.00     0.280 HD
HETATM    3  C   UNL     1     -42.884  57.829 -56.538  1.00  0.00     0.270 C 
ENDROOT
BRANCH   1   4
HETATM    4  C   UNL     1     -42.841  55.682 -57.838  1.00  0.00     0.277 C 
BRANCH   4   5
HETATM    5  C   UNL     1     -43.677  55.380 -59.031  1.00  0.00     0.016 A 
HETATM    6  C   UNL     1     -43.986  56.257 -60.119  1.00  0.00     0.096 A 
HETATM    7  N   UNL     1     -44.723  55.634 -61.042  1.00  0.00    -0.174 NA
HETATM    8  N   UNL     1     -44.875  54.387 -60.594  1.00  0.00    -0.288 N 
HETATM    9  H   UNL     1     -45.390  53.728 -61.174  1.00  0.00     0.188 HD
HETATM   10  C   UNL     1     -44.279  54.183 -59.381  1.00  0.00     0.120 A 
BRANCH   6  11
HETATM   11  C   UNL     1     -43.585  57.645 -60.319  1.00  0.00    -0.005 A 
HETATM   12  C   UNL     1     -42.244  57.984 -60.527  1.00  0.00     0.014 A 
HETATM   13  C   UNL     1     -41.877  59.323 -60.700  1.00  0.00     0.007 A 
HETATM   14  C   UNL     1     -42.843  60.336 -60.650  1.00  0.00    -0.062 A 
HETATM   15  C   UNL     1     -42.455  61.776 -60.830  1.00  0.00     0.048 C 
HETATM   16  C   UNL     1     -44.184  59.991 -60.450  1.00  0.00     0.007 A 
HETATM   17  C   UNL     1     -44.552  58.656 -60.277  1.00  0.00     0.014 A 
ENDBRANCH   6  11
ENDBRANCH   4   5
ENDBRANCH   1   4
BRANCH   1  18
HETATM   18  C   UNL     1     -44.036  55.727 -55.573  1.00  0.00     0.190 C 
HETATM   19  C   UNL     1     -43.542  54.274 -55.581  1.00  0.00     0.048 C 
HETATM   20  C   UNL     1     -42.297  54.016 -54.738  1.00  0.00     0.099 C 
HETATM   21  N   UNL     1     -42.479  54.647 -53.428  1.00  0.00    -0.268 NA
HETATM   22  C   UNL     1     -42.547  56.110 -53.496  1.00  0.00     0.099 C 
HETATM   23  C   UNL     1     -43.798  56.508 -54.273  1.00  0.00     0.048 C 
BRANCH  21  24
HETATM   24  C   UNL     1     -41.640  54.149 -52.417  1.00  0.00     0.109 A 
HETATM   25  N   UNL     1     -41.678  54.689 -51.186  1.00  0.00    -0.224 NA
HETATM   26  C   UNL     1     -40.910  54.127 -50.219  1.00  0.00     0.102 A 
HETATM   27  C   UNL     1     -40.961  54.701 -48.838  1.00  0.00     0.091 C 
HETATM   28  N   UNL     1     -40.124  53.063 -50.429  1.00  0.00    -0.348 N 
HETATM   29  H   UNL     1     -39.585  52.680 -49.654  1.00  0.00     0.167 HD
HETATM   30  C   UNL     1     -40.065  52.501 -51.647  1.00  0.00     0.009 A 
HETATM   31  C   UNL     1     -39.203  51.298 -51.852  1.00  0.00     0.068 C 
HETATM   32  C   UNL     1     -40.834  53.046 -52.677  1.00  0.00     0.069 A 
ENDBRANCH  21  24
ENDBRANCH   1  18
TORSDOF 5
ENDMDL
MODEL 10
REMARK VINA RESULT:      -8.2      2.185      3.558
REMARK  5 active torsions:
REMARK  status: ('A' for Active; 'I' for Inactive)
REMARK    1  A    between atoms: C_5  and  C_6 
REMARK    2  A    between atoms: C_11  and  C_12 
REMARK    3  A    between atoms: C_12  and  N_13 
REMARK    4  A    between atoms: N_13  and  C_15 
REMARK    5  A    between atoms: N_18  and  C_19 
ROOT
HETATM    1  N   UNL     1     -42.405  56.081 -50.294  1.00  0.00    -0.067 N 
HETATM    2  H   UNL     1     -42.295  56.214 -49.278  1.00  0.00     0.280 HD
HETATM    3  C   UNL     1     -43.221  54.831 -50.433  1.00  0.00     0.270 C 
ENDROOT
BRANCH   1   4
HETATM    4  C   UNL     1     -40.958  55.866 -50.759  1.00  0.00     0.277 C 
BRANCH   4   5
HETATM    5  C   UNL     1     -40.651  54.432 -51.018  1.00  0.00     0.016 A 
HETATM    6  C   UNL     1     -40.844  53.710 -52.238  1.00  0.00     0.096 A 
HETATM    7  N   UNL     1     -40.411  52.452 -52.123  1.00  0.00    -0.174 NA
HETATM    8  N   UNL     1     -39.930  52.353 -50.883  1.00  0.00    -0.288 N 
HETATM    9  H   UNL     1     -39.517  51.467 -50.598  1.00  0.00     0.188 HD
HETATM   10  C   UNL     1     -40.061  53.511 -50.169  1.00  0.00     0.120 A 
BRANCH   6  11
HETATM   11  C   UNL     1     -41.395  54.180 -53.504  1.00  0.00    -0.005 A 
HETATM   12  C   UNL     1     -42.674  53.795 -53.920  1.00  0.00     0.014 A 
HETATM   13  C   UNL     1     -43.178  54.243 -55.145  1.00  0.00     0.007 A 
HETATM   14  C   UNL     1     -42.404  55.064 -55.974  1.00  0.00    -0.062 A 
HETATM   15  C   UNL     1     -42.937  55.544 -57.293  1.00  0.00     0.048 C 
HETATM   16  C   UNL     1     -41.128  55.453 -55.550  1.00  0.00     0.007 A 
HETATM   17  C   UNL     1     -40.624  55.007 -54.328  1.00  0.00     0.014 A 
ENDBRANCH   6  11
ENDBRANCH   4   5
ENDBRANCH   1   4
BRANCH   1  18
HETATM   18  C   UNL     1     -43.025  57.377 -50.831  1.00  0.00     0.190 C 
HETATM   19  C   UNL     1     -42.039  58.239 -51.631  1.00  0.00     0.048 C 
HETATM   20  C   UNL     1     -42.141  58.090 -53.146  1.00  0.00     0.099 C 
HETATM   21  N   UNL     1     -43.552  58.166 -53.531  1.00  0.00    -0.268 NA
HETATM   22  C   UNL     1     -44.350  57.045 -53.025  1.00  0.00     0.099 C 
HETATM   23  C   UNL     1     -44.381  57.113 -51.501  1.00  0.00     0.048 C 
BRANCH  21  24
HETATM   24  C   UNL     1     -43.774  58.474 -54.884  1.00  0.00     0.109 A 
HETATM   25  N   UNL     1     -42.756  58.901 -55.651  1.00  0.00    -0.224 NA
HETATM   26  C   UNL     1     -42.996  59.112 -56.970  1.00  0.00     0.102 A 
HETATM   27  C   UNL     1     -41.867  59.563 -57.842  1.00  0.00     0.091 C 
HETATM   28  N   UNL     1     -44.191  58.910 -57.542  1.00  0.00    -0.348 N 
HETATM   29  H   UNL     1     -44.299  59.072 -58.542  1.00  0.00     0.167 HD
HETATM   30  C   UNL     1     -45.226  58.484 -56.802  1.00  0.00     0.009 A 
HETATM   31  C   UNL     1     -46.543  58.239 -57.466  1.00  0.00     0.068 C 
HETATM   32  C   UNL     1     -45.031  58.257 -55.438  1.00  0.00     0.069 A 
ENDBRANCH  21  24
ENDBRANCH   1  18
TORSDOF 5
ENDMDL
