MODEL 1
REMARK VINA RESULT:      -7.4      0.000      0.000
REMARK  6 active torsions:
REMARK  status: ('A' for Active; 'I' for Inactive)
REMARK    1  A    between atoms: C_2  and  N_3 
REMARK    2  A    between atoms: C_2  and  C_16 
REMARK    3  A    between atoms: N_3  and  C_6 
REMARK    4  A    between atoms: C_16  and  C_17 
REMARK       I    between atoms: C_17  and  N_18 
REMARK    5  A    between atoms: N_18  and  C_19 
REMARK    6  A    between atoms: C_21  and  O_22 
ROOT
HETATM    1  C   UNL     1     -40.644  58.155 -51.548  1.00  0.00     0.040 C 
HETATM    2  C   UNL     1     -42.071  57.755 -51.204  1.00  0.00     0.191 C 
ENDROOT
BRANCH   2   3
HETATM    3  N   UNL     1     -42.220  56.245 -51.160  1.00  0.00    -0.063 N 
HETATM    4  H   UNL     1     -42.843  56.080 -50.343  1.00  0.00     0.278 HD
HETATM    5  H   UNL     1     -42.765  55.914 -51.965  1.00  0.00     0.278 HD
BRANCH   3   6
HETATM    6  C   UNL     1     -41.034  55.324 -50.944  1.00  0.00     0.221 C 
HETATM    7  C   UNL     1     -40.712  54.407 -52.101  1.00  0.00    -0.011 A 
HETATM    8  C   UNL     1     -40.447  53.038 -51.926  1.00  0.00     0.009 A 
HETATM    9  C   UNL     1     -40.587  54.949 -53.399  1.00  0.00     0.011 A 
HETATM   10  C   UNL     1     -40.142  52.235 -53.035  1.00  0.00     0.019 A 
HETATM   11  S   UNL     1     -40.445  52.237 -50.335  1.00  0.00    -0.129 SA
HETATM   12  C   UNL     1     -40.060  52.782 -54.312  1.00  0.00     0.001 A 
HETATM   13  C   UNL     1     -40.273  54.143 -54.493  1.00  0.00     0.001 A 
HETATM   14  C   UNL     1     -40.104  53.660 -49.276  1.00  0.00     0.082 C 
HETATM   15  C   UNL     1     -41.163  54.713 -49.540  1.00  0.00     0.048 C 
ENDBRANCH   3   6
ENDBRANCH   2   3
BRANCH   2  16
HETATM   16  C   UNL     1     -43.051  58.331 -52.253  1.00  0.00     0.135 C 
BRANCH  16  17
HETATM   17  C   UNL     1     -44.354  57.572 -52.265  1.00  0.00     0.224 C 
HETATM   18  N   UNL     1     -44.735  56.770 -53.289  1.00  0.00    -0.327 N 
HETATM   19  H   UNL     1     -45.663  56.388 -53.123  1.00  0.00     0.169 HD
HETATM   20  O   UNL     1     -45.084  57.636 -51.264  1.00  0.00    -0.273 OA
BRANCH  18  21
HETATM   21  C   UNL     1     -44.124  56.314 -54.476  1.00  0.00     0.037 A 
HETATM   22  C   UNL     1     -43.652  57.115 -55.520  1.00  0.00     0.066 A 
HETATM   23  C   UNL     1     -43.021  56.539 -56.633  1.00  0.00     0.070 A 
HETATM   24  C   UNL     1     -42.863  55.155 -56.700  1.00  0.00     0.037 A 
HETATM   25  C   UNL     1     -43.331  54.344 -55.674  1.00  0.00     0.005 A 
HETATM   26  C   UNL     1     -43.957  54.923 -54.570  1.00  0.00     0.029 A 
BRANCH  23  27
HETATM   27  O   UNL     1     -42.506  57.211 -57.707  1.00  0.00    -0.356 OA
HETATM   28  C   UNL     1     -43.278  57.253 -58.898  1.00  0.00     0.210 C 
ENDBRANCH  23  27
ENDBRANCH  18  21
ENDBRANCH  16  17
ENDBRANCH   2  16
TORSDOF 6
ENDMDL
MODEL 2
REMARK VINA RESULT:      -7.1      0.947      1.502
REMARK  6 active torsions:
REMARK  status: ('A' for Active; 'I' for Inactive)
REMARK    1  A    between atoms: C_2  and  N_3 
REMARK    2  A    between atoms: C_2  and  C_16 
REMARK    3  A    between atoms: N_3  and  C_6 
REMARK    4  A    between atoms: C_16  and  C_17 
REMARK       I    between atoms: C_17  and  N_18 
REMARK    5  A    between atoms: N_18  and  C_19 
REMARK    6  A    between atoms: C_21  and  O_22 
ROOT
HETATM    1  C   UNL     1     -40.879  58.537 -51.438  1.00  0.00     0.040 C 
HETATM    2  C   UNL     1     -42.170  57.896 -50.950  1.00  0.00     0.191 C 
ENDROOT
BRANCH   2   3
HETATM    3  N   UNL     1     -42.222  56.424 -51.317  1.00  0.00    -0.063 N 
HETATM    4  H   UNL     1     -42.931  56.030 -50.666  1.00  0.00     0.278 HD
HETATM    5  H   UNL     1     -42.636  56.300 -52.248  1.00  0.00     0.278 HD
BRANCH   3   6
HETATM    6  C   UNL     1     -41.014  55.516 -51.180  1.00  0.00     0.221 C 
HETATM    7  C   UNL     1     -40.779  54.579 -52.342  1.00  0.00    -0.011 A 
HETATM    8  C   UNL     1     -40.489  53.215 -52.164  1.00  0.00     0.009 A 
HETATM    9  C   UNL     1     -40.764  55.096 -53.657  1.00  0.00     0.011 A 
HETATM   10  C   UNL     1     -40.268  52.393 -53.278  1.00  0.00     0.019 A 
HETATM   11  S   UNL     1     -40.351  52.445 -50.563  1.00  0.00    -0.129 SA
HETATM   12  C   UNL     1     -40.294  52.916 -54.568  1.00  0.00     0.001 A 
HETATM   13  C   UNL     1     -40.533  54.271 -54.757  1.00  0.00     0.001 A 
HETATM   14  C   UNL     1     -39.938  53.892 -49.562  1.00  0.00     0.082 C 
HETATM   15  C   UNL     1     -41.024  54.931 -49.759  1.00  0.00     0.048 C 
ENDBRANCH   3   6
ENDBRANCH   2   3
BRANCH   2  16
HETATM   16  C   UNL     1     -43.388  58.617 -51.572  1.00  0.00     0.135 C 
BRANCH  16  17
HETATM   17  C   UNL     1     -44.566  57.687 -51.713  1.00  0.00     0.224 C 
HETATM   18  N   UNL     1     -45.047  57.277 -52.912  1.00  0.00    -0.327 N 
HETATM   19  H   UNL     1     -45.871  56.692 -52.791  1.00  0.00     0.169 HD
HETATM   20  O   UNL     1     -45.081  57.226 -50.683  1.00  0.00    -0.273 OA
BRANCH  18  21
HETATM   21  C   UNL     1     -44.638  57.432 -54.254  1.00  0.00     0.037 A 
HETATM   22  C   UNL     1     -43.784  56.578 -54.959  1.00  0.00     0.066 A 
HETATM   23  C   UNL     1     -43.488  56.820 -56.308  1.00  0.00     0.070 A 
HETATM   24  C   UNL     1     -44.050  57.921 -56.955  1.00  0.00     0.037 A 
HETATM   25  C   UNL     1     -44.897  58.782 -56.267  1.00  0.00     0.005 A 
HETATM   26  C   UNL     1     -45.187  58.536 -54.926  1.00  0.00     0.029 A 
BRANCH  23  27
HETATM   27  O   UNL     1     -42.683  56.056 -57.107  1.00  0.00    -0.356 OA
HETATM   28  C   UNL     1     -43.094  55.833 -58.448  1.00  0.00     0.210 C 
ENDBRANCH  23  27
ENDBRANCH  18  21
ENDBRANCH  16  17
ENDBRANCH   2  16
TORSDOF 6
ENDMDL
MODEL 3
REMARK VINA RESULT:      -7.1      1.709      2.580
REMARK  6 active torsions:
REMARK  status: ('A' for Active; 'I' for Inactive)
REMARK    1  A    between atoms: C_2  and  N_3 
REMARK    2  A    between atoms: C_2  and  C_16 
REMARK    3  A    between atoms: N_3  and  C_6 
REMARK    4  A    between atoms: C_16  and  C_17 
REMARK       I    between atoms: C_17  and  N_18 
REMARK    5  A    between atoms: N_18  and  C_19 
REMARK    6  A    between atoms: C_21  and  O_22 
ROOT
HETATM    1  C   UNL     1     -41.060  58.109 -53.023  1.00  0.00     0.040 C 
HETATM    2  C   UNL     1     -42.359  57.362 -53.285  1.00  0.00     0.191 C 
ENDROOT
BRANCH   2   3
HETATM    3  N   UNL     1     -42.426  56.080 -52.475  1.00  0.00    -0.063 N 
HETATM    4  H   UNL     1     -43.020  56.332 -51.659  1.00  0.00     0.278 HD
HETATM    5  H   UNL     1     -42.970  55.367 -52.974  1.00  0.00     0.278 HD
BRANCH   3   6
HETATM    6  C   UNL     1     -41.188  55.440 -51.877  1.00  0.00     0.221 C 
HETATM    7  C   UNL     1     -40.741  54.158 -52.543  1.00  0.00    -0.011 A 
HETATM    8  C   UNL     1     -40.385  53.013 -51.811  1.00  0.00     0.009 A 
HETATM    9  C   UNL     1     -40.591  54.124 -53.947  1.00  0.00     0.011 A 
HETATM   10  C   UNL     1     -39.966  51.854 -52.480  1.00  0.00     0.019 A 
HETATM   11  S   UNL     1     -40.404  52.944 -50.030  1.00  0.00    -0.129 SA
HETATM   12  C   UNL     1     -39.860  51.830 -53.868  1.00  0.00     0.001 A 
HETATM   13  C   UNL     1     -40.164  52.969 -54.601  1.00  0.00     0.001 A 
HETATM   14  C   UNL     1     -40.223  54.702 -49.654  1.00  0.00     0.082 C 
HETATM   15  C   UNL     1     -41.342  55.454 -50.348  1.00  0.00     0.048 C 
ENDBRANCH   3   6
ENDBRANCH   2   3
BRANCH   2  16
HETATM   16  C   UNL     1     -42.478  57.018 -54.789  1.00  0.00     0.135 C 
BRANCH  16  17
HETATM   17  C   UNL     1     -43.918  56.979 -55.233  1.00  0.00     0.224 C 
HETATM   18  N   UNL     1     -44.298  57.115 -56.527  1.00  0.00    -0.327 N 
HETATM   19  H   UNL     1     -45.312  57.106 -56.610  1.00  0.00     0.169 HD
HETATM   20  O   UNL     1     -44.792  56.752 -54.383  1.00  0.00    -0.273 OA
BRANCH  18  21
HETATM   21  C   UNL     1     -43.617  57.206 -57.760  1.00  0.00     0.037 A 
HETATM   22  C   UNL     1     -43.117  58.376 -58.341  1.00  0.00     0.066 A 
HETATM   23  C   UNL     1     -42.417  58.326 -59.555  1.00  0.00     0.070 A 
HETATM   24  C   UNL     1     -42.216  57.101 -60.191  1.00  0.00     0.037 A 
HETATM   25  C   UNL     1     -42.711  55.930 -59.629  1.00  0.00     0.005 A 
HETATM   26  C   UNL     1     -43.406  55.985 -58.422  1.00  0.00     0.029 A 
BRANCH  23  27
HETATM   27  O   UNL     1     -41.870  59.392 -60.215  1.00  0.00    -0.356 OA
HETATM   28  C   UNL     1     -42.287  60.695 -59.836  1.00  0.00     0.210 C 
ENDBRANCH  23  27
ENDBRANCH  18  21
ENDBRANCH  16  17
ENDBRANCH   2  16
TORSDOF 6
ENDMDL
MODEL 4
REMARK VINA RESULT:      -7.1      1.964      4.706
REMARK  6 active torsions:
REMARK  status: ('A' for Active; 'I' for Inactive)
REMARK    1  A    between atoms: C_2  and  N_3 
REMARK    2  A    between atoms: C_2  and  C_16 
REMARK    3  A    between atoms: N_3  and  C_6 
REMARK    4  A    between atoms: C_16  and  C_17 
REMARK       I    between atoms: C_17  and  N_18 
REMARK    5  A    between atoms: N_18  and  C_19 
REMARK    6  A    between atoms: C_21  and  O_22 
ROOT
HETATM    1  C   UNL     1     -42.591  55.033 -55.975  1.00  0.00     0.040 C 
HETATM    2  C   UNL     1     -42.244  55.996 -54.849  1.00  0.00     0.191 C 
ENDROOT
BRANCH   2   3
HETATM    3  N   UNL     1     -42.432  55.342 -53.493  1.00  0.00    -0.063 N 
HETATM    4  H   UNL     1     -43.078  55.986 -52.993  1.00  0.00     0.278 HD
HETATM    5  H   UNL     1     -42.964  54.469 -53.585  1.00  0.00     0.278 HD
BRANCH   3   6
HETATM    6  C   UNL     1     -41.274  55.126 -52.536  1.00  0.00     0.221 C 
HETATM    7  C   UNL     1     -40.693  53.731 -52.535  1.00  0.00    -0.011 A 
HETATM    8  C   UNL     1     -40.410  53.033 -51.348  1.00  0.00     0.009 A 
HETATM    9  C   UNL     1     -40.335  53.130 -53.762  1.00  0.00     0.011 A 
HETATM   10  C   UNL     1     -39.859  51.744 -51.406  1.00  0.00     0.019 A 
HETATM   11  S   UNL     1     -40.690  53.710 -49.724  1.00  0.00    -0.129 SA
HETATM   12  C   UNL     1     -39.549  51.155 -52.628  1.00  0.00     0.001 A 
HETATM   13  C   UNL     1     -39.779  51.852 -53.807  1.00  0.00     0.001 A 
HETATM   14  C   UNL     1     -40.625  55.473 -50.112  1.00  0.00     0.082 C 
HETATM   15  C   UNL     1     -41.653  55.761 -51.188  1.00  0.00     0.048 C 
ENDBRANCH   3   6
ENDBRANCH   2   3
BRANCH   2  16
HETATM   16  C   UNL     1     -43.141  57.254 -54.934  1.00  0.00     0.135 C 
BRANCH  16  17
HETATM   17  C   UNL     1     -42.388  58.430 -55.503  1.00  0.00     0.224 C 
HETATM   18  N   UNL     1     -41.748  59.343 -54.733  1.00  0.00    -0.327 N 
HETATM   19  H   UNL     1     -41.342  60.079 -55.306  1.00  0.00     0.169 HD
HETATM   20  O   UNL     1     -42.297  58.531 -56.736  1.00  0.00    -0.273 OA
BRANCH  18  21
HETATM   21  C   UNL     1     -41.480  59.468 -53.353  1.00  0.00     0.037 A 
HETATM   22  C   UNL     1     -42.305  60.080 -52.405  1.00  0.00     0.066 A 
HETATM   23  C   UNL     1     -41.943  60.100 -51.050  1.00  0.00     0.070 A 
HETATM   24  C   UNL     1     -40.749  59.505 -50.643  1.00  0.00     0.037 A 
HETATM   25  C   UNL     1     -39.915  58.898 -51.574  1.00  0.00     0.005 A 
HETATM   26  C   UNL     1     -40.281  58.881 -52.919  1.00  0.00     0.029 A 
BRANCH  23  27
HETATM   27  O   UNL     1     -42.666  60.652 -50.029  1.00  0.00    -0.356 OA
HETATM   28  C   UNL     1     -43.879  61.315 -50.355  1.00  0.00     0.210 C 
ENDBRANCH  23  27
ENDBRANCH  18  21
ENDBRANCH  16  17
ENDBRANCH   2  16
TORSDOF 6
ENDMDL
MODEL 5
REMARK VINA RESULT:      -7.0      1.897      2.948
REMARK  6 active torsions:
REMARK  status: ('A' for Active; 'I' for Inactive)
REMARK    1  A    between atoms: C_2  and  N_3 
REMARK    2  A    between atoms: C_2  and  C_16 
REMARK    3  A    between atoms: N_3  and  C_6 
REMARK    4  A    between atoms: C_16  and  C_17 
REMARK       I    between atoms: C_17  and  N_18 
REMARK    5  A    between atoms: N_18  and  C_19 
REMARK    6  A    between atoms: C_21  and  O_22 
ROOT
HETATM    1  C   UNL     1     -41.716  57.388 -54.113  1.00  0.00     0.040 C 
HETATM    2  C   UNL     1     -43.005  56.716 -53.663  1.00  0.00     0.191 C 
ENDROOT
BRANCH   2   3
HETATM    3  N   UNL     1     -42.725  55.372 -53.018  1.00  0.00    -0.063 N 
HETATM    4  H   UNL     1     -43.477  55.276 -52.305  1.00  0.00     0.278 HD
HETATM    5  H   UNL     1     -42.907  54.609 -53.682  1.00  0.00     0.278 HD
BRANCH   3   6
HETATM    6  C   UNL     1     -41.435  55.090 -52.271  1.00  0.00     0.221 C 
HETATM    7  C   UNL     1     -40.791  53.758 -52.579  1.00  0.00    -0.011 A 
HETATM    8  C   UNL     1     -40.310  52.902 -51.574  1.00  0.00     0.009 A 
HETATM    9  C   UNL     1     -40.581  53.387 -53.926  1.00  0.00     0.011 A 
HETATM   10  C   UNL     1     -39.710  51.682 -51.918  1.00  0.00     0.019 A 
HETATM   11  S   UNL     1     -40.391  53.290 -49.837  1.00  0.00    -0.129 SA
HETATM   12  C   UNL     1     -39.546  51.318 -53.251  1.00  0.00     0.001 A 
HETATM   13  C   UNL     1     -39.974  52.176 -54.257  1.00  0.00     0.001 A 
HETATM   14  C   UNL     1     -40.469  55.093 -49.929  1.00  0.00     0.082 C 
HETATM   15  C   UNL     1     -41.651  55.474 -50.798  1.00  0.00     0.048 C 
ENDBRANCH   3   6
ENDBRANCH   2   3
BRANCH   2  16
HETATM   16  C   UNL     1     -43.946  56.512 -54.873  1.00  0.00     0.135 C 
BRANCH  16  17
HETATM   17  C   UNL     1     -44.551  57.817 -55.327  1.00  0.00     0.224 C 
HETATM   18  N   UNL     1     -44.360  58.330 -56.567  1.00  0.00    -0.327 N 
HETATM   19  H   UNL     1     -44.814  59.236 -56.657  1.00  0.00     0.169 HD
HETATM   20  O   UNL     1     -45.309  58.418 -54.550  1.00  0.00    -0.273 OA
BRANCH  18  21
HETATM   21  C   UNL     1     -43.736  57.875 -57.747  1.00  0.00     0.037 A 
HETATM   22  C   UNL     1     -44.279  56.980 -58.674  1.00  0.00     0.066 A 
HETATM   23  C   UNL     1     -43.571  56.639 -59.836  1.00  0.00     0.070 A 
HETATM   24  C   UNL     1     -42.313  57.195 -60.070  1.00  0.00     0.037 A 
HETATM   25  C   UNL     1     -41.757  58.082 -59.156  1.00  0.00     0.005 A 
HETATM   26  C   UNL     1     -42.466  58.417 -58.003  1.00  0.00     0.029 A 
BRANCH  23  27
HETATM   27  O   UNL     1     -43.996  55.792 -60.821  1.00  0.00    -0.356 OA
HETATM   28  C   UNL     1     -44.871  54.734 -60.458  1.00  0.00     0.210 C 
ENDBRANCH  23  27
ENDBRANCH  18  21
ENDBRANCH  16  17
ENDBRANCH   2  16
TORSDOF 6
ENDMDL
MODEL 6
REMARK VINA RESULT:      -6.8      2.159      3.515
REMARK  6 active torsions:
REMARK  status: ('A' for Active; 'I' for Inactive)
REMARK    1  A    between atoms: C_2  and  N_3 
REMARK    2  A    between atoms: C_2  and  C_16 
REMARK    3  A    between atoms: N_3  and  C_6 
REMARK    4  A    between atoms: C_16  and  C_17 
REMARK       I    between atoms: C_17  and  N_18 
REMARK    5  A    between atoms: N_18  and  C_19 
REMARK    6  A    between atoms: C_21  and  O_22 
ROOT
HETATM    1  C   UNL     1     -43.406  54.154 -55.586  1.00  0.00     0.040 C 
HETATM    2  C   UNL     1     -42.781  55.278 -54.771  1.00  0.00     0.191 C 
ENDROOT
BRANCH   2   3
HETATM    3  N   UNL     1     -42.804  54.956 -53.289  1.00  0.00    -0.063 N 
HETATM    4  H   UNL     1     -43.344  55.741 -52.871  1.00  0.00     0.278 HD
HETATM    5  H   UNL     1     -43.382  54.127 -53.109  1.00  0.00     0.278 HD
BRANCH   3   6
HETATM    6  C   UNL     1     -41.533  54.870 -52.464  1.00  0.00     0.221 C 
HETATM    7  C   UNL     1     -40.829  53.534 -52.504  1.00  0.00    -0.011 A 
HETATM    8  C   UNL     1     -40.354  52.896 -51.345  1.00  0.00     0.009 A 
HETATM    9  C   UNL     1     -40.555  52.934 -53.753  1.00  0.00     0.011 A 
HETATM   10  C   UNL     1     -39.697  51.662 -51.441  1.00  0.00     0.019 A 
HETATM   11  S   UNL     1     -40.515  53.590 -49.711  1.00  0.00    -0.129 SA
HETATM   12  C   UNL     1     -39.470  51.069 -52.680  1.00  0.00     0.001 A 
HETATM   13  C   UNL     1     -39.891  51.710 -53.838  1.00  0.00     0.001 A 
HETATM   14  C   UNL     1     -40.656  55.341 -50.134  1.00  0.00     0.082 C 
HETATM   15  C   UNL     1     -41.818  55.506 -51.093  1.00  0.00     0.048 C 
ENDBRANCH   3   6
ENDBRANCH   2   3
BRANCH   2  16
HETATM   16  C   UNL     1     -43.549  56.598 -55.015  1.00  0.00     0.135 C 
BRANCH  16  17
HETATM   17  C   UNL     1     -42.745  57.556 -55.858  1.00  0.00     0.224 C 
HETATM   18  N   UNL     1     -42.842  57.615 -57.209  1.00  0.00    -0.327 N 
HETATM   19  H   UNL     1     -42.185  58.292 -57.589  1.00  0.00     0.169 HD
HETATM   20  O   UNL     1     -42.005  58.369 -55.284  1.00  0.00    -0.273 OA
BRANCH  18  21
HETATM   21  C   UNL     1     -43.669  57.003 -58.174  1.00  0.00     0.037 A 
HETATM   22  C   UNL     1     -44.895  57.491 -58.638  1.00  0.00     0.066 A 
HETATM   23  C   UNL     1     -45.603  56.807 -59.637  1.00  0.00     0.070 A 
HETATM   24  C   UNL     1     -45.082  55.630 -60.175  1.00  0.00     0.037 A 
HETATM   25  C   UNL     1     -43.867  55.130 -59.722  1.00  0.00     0.005 A 
HETATM   26  C   UNL     1     -43.168  55.814 -58.728  1.00  0.00     0.029 A 
BRANCH  23  27
HETATM   27  O   UNL     1     -46.799  57.186 -60.182  1.00  0.00    -0.356 OA
HETATM   28  C   UNL     1     -47.159  58.558 -60.107  1.00  0.00     0.210 C 
ENDBRANCH  23  27
ENDBRANCH  18  21
ENDBRANCH  16  17
ENDBRANCH   2  16
TORSDOF 6
ENDMDL
MODEL 7
REMARK VINA RESULT:      -6.6      1.892      2.857
REMARK  6 active torsions:
REMARK  status: ('A' for Active; 'I' for Inactive)
REMARK    1  A    between atoms: C_2  and  N_3 
REMARK    2  A    between atoms: C_2  and  C_16 
REMARK    3  A    between atoms: N_3  and  C_6 
REMARK    4  A    between atoms: C_16  and  C_17 
REMARK       I    between atoms: C_17  and  N_18 
REMARK    5  A    between atoms: N_18  and  C_19 
REMARK    6  A    between atoms: C_21  and  O_22 
ROOT
HETATM    1  C   UNL     1     -44.247  58.652 -52.081  1.00  0.00     0.040 C 
HETATM    2  C   UNL     1     -43.800  57.368 -52.764  1.00  0.00     0.191 C 
ENDROOT
BRANCH   2   3
HETATM    3  N   UNL     1     -42.317  57.407 -53.085  1.00  0.00    -0.063 N 
HETATM    4  H   UNL     1     -42.269  57.107 -54.080  1.00  0.00     0.278 HD
HETATM    5  H   UNL     1     -41.977  58.376 -53.096  1.00  0.00     0.278 HD
BRANCH   3   6
HETATM    6  C   UNL     1     -41.312  56.531 -52.361  1.00  0.00     0.221 C 
HETATM    7  C   UNL     1     -40.946  55.249 -53.074  1.00  0.00    -0.011 A 
HETATM    8  C   UNL     1     -40.896  54.008 -52.417  1.00  0.00     0.009 A 
HETATM    9  C   UNL     1     -40.552  55.301 -54.430  1.00  0.00     0.011 A 
HETATM   10  C   UNL     1     -40.538  52.852 -53.125  1.00  0.00     0.019 A 
HETATM   11  S   UNL     1     -41.245  53.806 -50.681  1.00  0.00    -0.129 SA
HETATM   12  C   UNL     1     -40.190  52.919 -54.471  1.00  0.00     0.001 A 
HETATM   13  C   UNL     1     -40.188  54.146 -55.122  1.00  0.00     0.001 A 
HETATM   14  C   UNL     1     -40.880  55.477 -50.099  1.00  0.00     0.082 C 
HETATM   15  C   UNL     1     -41.735  56.451 -50.886  1.00  0.00     0.048 C 
ENDBRANCH   3   6
ENDBRANCH   2   3
BRANCH   2  16
HETATM   16  C   UNL     1     -44.596  57.160 -54.074  1.00  0.00     0.135 C 
BRANCH  16  17
HETATM   17  C   UNL     1     -44.092  55.964 -54.841  1.00  0.00     0.224 C 
HETATM   18  N   UNL     1     -43.678  56.032 -56.130  1.00  0.00    -0.327 N 
HETATM   19  H   UNL     1     -43.421  55.111 -56.477  1.00  0.00     0.169 HD
HETATM   20  O   UNL     1     -43.993  54.880 -54.247  1.00  0.00    -0.273 OA
BRANCH  18  21
HETATM   21  C   UNL     1     -43.477  57.077 -57.057  1.00  0.00     0.037 A 
HETATM   22  C   UNL     1     -44.311  57.397 -58.132  1.00  0.00     0.066 A 
HETATM   23  C   UNL     1     -44.022  58.493 -58.958  1.00  0.00     0.070 A 
HETATM   24  C   UNL     1     -42.892  59.272 -58.707  1.00  0.00     0.037 A 
HETATM   25  C   UNL     1     -42.049  58.963 -57.646  1.00  0.00     0.005 A 
HETATM   26  C   UNL     1     -42.342  57.873 -56.828  1.00  0.00     0.029 A 
BRANCH  23  27
HETATM   27  O   UNL     1     -44.762  58.916 -60.027  1.00  0.00    -0.356 OA
HETATM   28  C   UNL     1     -44.145  59.789 -60.962  1.00  0.00     0.210 C 
ENDBRANCH  23  27
ENDBRANCH  18  21
ENDBRANCH  16  17
ENDBRANCH   2  16
TORSDOF 6
ENDMDL
MODEL 8
REMARK VINA RESULT:      -6.6     15.156     16.870
REMARK  6 active torsions:
REMARK  status: ('A' for Active; 'I' for Inactive)
REMARK    1  A    between atoms: C_2  and  N_3 
REMARK    2  A    between atoms: C_2  and  C_16 
REMARK    3  A    between atoms: N_3  and  C_6 
REMARK    4  A    between atoms: C_16  and  C_17 
REMARK       I    between atoms: C_17  and  N_18 
REMARK    5  A    between atoms: N_18  and  C_19 
REMARK    6  A    between atoms: C_21  and  O_22 
ROOT
HETATM    1  C   UNL     1     -34.599  39.675 -55.602  1.00  0.00     0.040 C 
HETATM    2  C   UNL     1     -33.931  40.994 -55.242  1.00  0.00     0.191 C 
ENDROOT
BRANCH   2   3
HETATM    3  N   UNL     1     -33.882  41.189 -53.738  1.00  0.00    -0.063 N 
HETATM    4  H   UNL     1     -33.056  41.805 -53.594  1.00  0.00     0.278 HD
HETATM    5  H   UNL     1     -34.678  41.756 -53.423  1.00  0.00     0.278 HD
BRANCH   3   6
HETATM    6  C   UNL     1     -33.681  40.029 -52.781  1.00  0.00     0.221 C 
HETATM    7  C   UNL     1     -34.794  39.820 -51.781  1.00  0.00    -0.011 A 
HETATM    8  C   UNL     1     -34.549  39.598 -50.415  1.00  0.00     0.009 A 
HETATM    9  C   UNL     1     -36.130  39.757 -52.237  1.00  0.00     0.011 A 
HETATM   10  C   UNL     1     -35.620  39.398 -49.533  1.00  0.00     0.019 A 
HETATM   11  S   UNL     1     -32.912  39.526 -49.714  1.00  0.00    -0.129 SA
HETATM   12  C   UNL     1     -36.933  39.376 -49.997  1.00  0.00     0.001 A 
HETATM   13  C   UNL     1     -37.187  39.547 -51.351  1.00  0.00     0.001 A 
HETATM   14  C   UNL     1     -31.970  39.062 -51.183  1.00  0.00     0.082 C 
HETATM   15  C   UNL     1     -32.235  40.092 -52.263  1.00  0.00     0.048 C 
ENDBRANCH   3   6
ENDBRANCH   2   3
BRANCH   2  16
HETATM   16  C   UNL     1     -34.704  42.171 -55.881  1.00  0.00     0.135 C 
BRANCH  16  17
HETATM   17  C   UNL     1     -36.106  42.271 -55.334  1.00  0.00     0.224 C 
HETATM   18  N   UNL     1     -37.206  41.939 -56.052  1.00  0.00    -0.327 N 
HETATM   19  H   UNL     1     -38.054  42.121 -55.519  1.00  0.00     0.169 HD
HETATM   20  O   UNL     1     -36.255  42.615 -54.151  1.00  0.00    -0.273 OA
BRANCH  18  21
HETATM   21  C   UNL     1     -37.431  41.360 -57.318  1.00  0.00     0.037 A 
HETATM   22  C   UNL     1     -38.018  40.114 -57.563  1.00  0.00     0.066 A 
HETATM   23  C   UNL     1     -38.226  39.669 -58.877  1.00  0.00     0.070 A 
HETATM   24  C   UNL     1     -37.844  40.473 -59.950  1.00  0.00     0.037 A 
HETATM   25  C   UNL     1     -37.254  41.711 -59.724  1.00  0.00     0.005 A 
HETATM   26  C   UNL     1     -37.050  42.149 -58.416  1.00  0.00     0.029 A 
BRANCH  23  27
HETATM   27  O   UNL     1     -38.800  38.484 -59.246  1.00  0.00    -0.356 OA
HETATM   28  C   UNL     1     -39.038  38.262 -60.628  1.00  0.00     0.210 C 
ENDBRANCH  23  27
ENDBRANCH  18  21
ENDBRANCH  16  17
ENDBRANCH   2  16
TORSDOF 6
ENDMDL
MODEL 9
REMARK VINA RESULT:      -6.5      3.009      6.436
REMARK  6 active torsions:
REMARK  status: ('A' for Active; 'I' for Inactive)
REMARK    1  A    between atoms: C_2  and  N_3 
REMARK    2  A    between atoms: C_2  and  C_16 
REMARK    3  A    between atoms: N_3  and  C_6 
REMARK    4  A    between atoms: C_16  and  C_17 
REMARK       I    between atoms: C_17  and  N_18 
REMARK    5  A    between atoms: N_18  and  C_19 
REMARK    6  A    between atoms: C_21  and  O_22 
ROOT
HETATM    1  C   UNL     1     -43.627  54.173 -51.698  1.00  0.00     0.040 C 
HETATM    2  C   UNL     1     -43.224  55.215 -52.732  1.00  0.00     0.191 C 
ENDROOT
BRANCH   2   3
HETATM    3  N   UNL     1     -44.111  56.443 -52.646  1.00  0.00    -0.063 N 
HETATM    4  H   UNL     1     -44.876  56.246 -53.324  1.00  0.00     0.278 HD
HETATM    5  H   UNL     1     -44.584  56.482 -51.735  1.00  0.00     0.278 HD
BRANCH   3   6
HETATM    6  C   UNL     1     -43.609  57.827 -53.010  1.00  0.00     0.221 C 
HETATM    7  C   UNL     1     -42.722  58.482 -51.976  1.00  0.00    -0.011 A 
HETATM    8  C   UNL     1     -42.895  59.816 -51.571  1.00  0.00     0.009 A 
HETATM    9  C   UNL     1     -41.623  57.764 -51.452  1.00  0.00     0.011 A 
HETATM   10  C   UNL     1     -42.035  60.378 -50.615  1.00  0.00     0.019 A 
HETATM   11  S   UNL     1     -44.158  60.885 -52.233  1.00  0.00    -0.129 SA
HETATM   12  C   UNL     1     -40.980  59.641 -50.084  1.00  0.00     0.001 A 
HETATM   13  C   UNL     1     -40.769  58.336 -50.510  1.00  0.00     0.001 A 
HETATM   14  C   UNL     1     -44.437  60.078 -53.825  1.00  0.00     0.082 C 
HETATM   15  C   UNL     1     -44.796  58.628 -53.567  1.00  0.00     0.048 C 
ENDBRANCH   3   6
ENDBRANCH   2   3
BRANCH   2  16
HETATM   16  C   UNL     1     -43.326  54.615 -54.155  1.00  0.00     0.135 C 
BRANCH  16  17
HETATM   17  C   UNL     1     -42.082  54.893 -54.960  1.00  0.00     0.224 C 
HETATM   18  N   UNL     1     -40.897  54.277 -54.727  1.00  0.00    -0.327 N 
HETATM   19  H   UNL     1     -40.175  54.637 -55.347  1.00  0.00     0.169 HD
HETATM   20  O   UNL     1     -42.161  55.675 -55.919  1.00  0.00    -0.273 OA
BRANCH  18  21
HETATM   21  C   UNL     1     -40.466  53.237 -53.878  1.00  0.00     0.037 A 
HETATM   22  C   UNL     1     -40.413  53.281 -52.481  1.00  0.00     0.066 A 
HETATM   23  C   UNL     1     -40.005  52.158 -51.746  1.00  0.00     0.070 A 
HETATM   24  C   UNL     1     -39.648  50.986 -52.412  1.00  0.00     0.037 A 
HETATM   25  C   UNL     1     -39.689  50.927 -53.800  1.00  0.00     0.005 A 
HETATM   26  C   UNL     1     -40.096  52.046 -54.525  1.00  0.00     0.029 A 
BRANCH  23  27
HETATM   27  O   UNL     1     -39.925  52.071 -50.384  1.00  0.00    -0.356 OA
HETATM   28  C   UNL     1     -40.403  53.166 -49.617  1.00  0.00     0.210 C 
ENDBRANCH  23  27
ENDBRANCH  18  21
ENDBRANCH  16  17
ENDBRANCH   2  16
TORSDOF 6
ENDMDL
MODEL 10
REMARK VINA RESULT:      -6.5      3.189      6.192
REMARK  6 active torsions:
REMARK  status: ('A' for Active; 'I' for Inactive)
REMARK    1  A    between atoms: C_2  and  N_3 
REMARK    2  A    between atoms: C_2  and  C_16 
REMARK    3  A    between atoms: N_3  and  C_6 
REMARK    4  A    between atoms: C_16  and  C_17 
REMARK       I    between atoms: C_17  and  N_18 
REMARK    5  A    between atoms: N_18  and  C_19 
REMARK    6  A    between atoms: C_21  and  O_22 
ROOT
HETATM    1  C   UNL     1     -43.919  54.254 -50.761  1.00  0.00     0.040 C 
HETATM    2  C   UNL     1     -43.488  55.400 -51.665  1.00  0.00     0.191 C 
ENDROOT
BRANCH   2   3
HETATM    3  N   UNL     1     -44.394  56.605 -51.488  1.00  0.00    -0.063 N 
HETATM    4  H   UNL     1     -45.255  56.348 -52.012  1.00  0.00     0.278 HD
HETATM    5  H   UNL     1     -44.704  56.682 -50.513  1.00  0.00     0.278 HD
BRANCH   3   6
HETATM    6  C   UNL     1     -44.015  57.980 -52.005  1.00  0.00     0.221 C 
HETATM    7  C   UNL     1     -42.784  58.588 -51.373  1.00  0.00    -0.011 A 
HETATM    8  C   UNL     1     -42.745  59.919 -50.924  1.00  0.00     0.009 A 
HETATM    9  C   UNL     1     -41.595  57.827 -51.304  1.00  0.00     0.011 A 
HETATM   10  C   UNL     1     -41.572  60.435 -50.356  1.00  0.00     0.019 A 
HETATM   11  S   UNL     1     -44.126  61.037 -51.058  1.00  0.00    -0.129 SA
HETATM   12  C   UNL     1     -40.421  59.656 -50.263  1.00  0.00     0.001 A 
HETATM   13  C   UNL     1     -40.430  58.354 -50.746  1.00  0.00     0.001 A 
HETATM   14  C   UNL     1     -45.008  60.270 -52.436  1.00  0.00     0.082 C 
HETATM   15  C   UNL     1     -45.296  58.827 -52.072  1.00  0.00     0.048 C 
ENDBRANCH   3   6
ENDBRANCH   2   3
BRANCH   2  16
HETATM   16  C   UNL     1     -43.525  54.951 -53.145  1.00  0.00     0.135 C 
BRANCH  16  17
HETATM   17  C   UNL     1     -42.332  55.469 -53.908  1.00  0.00     0.224 C 
HETATM   18  N   UNL     1     -41.102  54.905 -53.831  1.00  0.00    -0.327 N 
HETATM   19  H   UNL     1     -40.429  55.429 -54.384  1.00  0.00     0.169 HD
HETATM   20  O   UNL     1     -42.498  56.417 -54.689  1.00  0.00    -0.273 OA
BRANCH  18  21
HETATM   21  C   UNL     1     -40.574  53.750 -53.216  1.00  0.00     0.037 A 
HETATM   22  C   UNL     1     -40.205  52.566 -53.863  1.00  0.00     0.066 A 
HETATM   23  C   UNL     1     -39.648  51.501 -53.140  1.00  0.00     0.070 A 
HETATM   24  C   UNL     1     -39.460  51.621 -51.764  1.00  0.00     0.037 A 
HETATM   25  C   UNL     1     -39.826  52.788 -51.104  1.00  0.00     0.005 A 
HETATM   26  C   UNL     1     -40.378  53.844 -51.828  1.00  0.00     0.029 A 
BRANCH  23  27
HETATM   27  O   UNL     1     -39.236  50.304 -53.657  1.00  0.00    -0.356 OA
HETATM   28  C   UNL     1     -40.004  49.731 -54.705  1.00  0.00     0.210 C 
ENDBRANCH  23  27
ENDBRANCH  18  21
ENDBRANCH  16  17
ENDBRANCH   2  16
TORSDOF 6
ENDMDL
