MODEL 1
REMARK VINA RESULT:      -8.4      0.000      0.000
REMARK  5 active torsions:
REMARK  status: ('A' for Active; 'I' for Inactive)
REMARK    1  A    between atoms: C_5  and  N_6 
REMARK       I    between atoms: N_6  and  C_7 
REMARK       I    between atoms: C_7  and  N_8 
REMARK    2  A    between atoms: N_8  and  C_9 
REMARK    3  A    between atoms: C_11  and  C_12 
REMARK       I    between atoms: C_12  and  N_13 
REMARK    4  A    between atoms: N_13  and  C_14 
REMARK    5  A    between atoms: C_14  and  C_15 
ROOT
HETATM    1  C   UNL     1     -43.113  59.223 -54.316  1.00  0.00     0.175 A 
HETATM    2  S   UNL     1     -41.616  58.499 -53.975  1.00  0.00    -0.044 SA
HETATM    3  C   UNL     1     -42.292  57.797 -52.556  1.00  0.00     0.100 A 
HETATM    4  C   UNL     1     -43.616  58.203 -52.432  1.00  0.00     0.056 A 
HETATM    5  C   UNL     1     -44.565  57.842 -51.343  1.00  0.00     0.072 C 
HETATM    6  N   UNL     1     -44.078  59.022 -53.455  1.00  0.00    -0.228 NA
ENDROOT
BRANCH   1   7
HETATM    7  N   UNL     1     -43.164  59.940 -55.473  1.00  0.00    -0.287 N 
HETATM    8  C   UNL     1     -43.530  59.466 -56.703  1.00  0.00     0.326 C 
HETATM    9  N   UNL     1     -43.918  58.155 -56.767  1.00  0.00    -0.309 N 
HETATM   10  O   UNL     1     -43.470  60.251 -57.648  1.00  0.00    -0.247 OA
HETATM   11  H   UNL     1     -43.968  57.679 -55.869  1.00  0.00     0.170 HD
HETATM   12  H   UNL     1     -42.858  60.901 -55.457  1.00  0.00     0.172 HD
BRANCH   9  13
HETATM   13  C   UNL     1     -44.249  57.390 -57.900  1.00  0.00     0.036 A 
HETATM   14  C   UNL     1     -45.435  57.534 -58.620  1.00  0.00     0.030 A 
HETATM   15  C   UNL     1     -45.674  56.752 -59.756  1.00  0.00     0.009 A 
HETATM   16  C   UNL     1     -44.730  55.816 -60.192  1.00  0.00    -0.062 A 
HETATM   17  C   UNL     1     -45.007  54.973 -61.400  1.00  0.00     0.048 C 
HETATM   18  C   UNL     1     -43.550  55.659 -59.461  1.00  0.00     0.009 A 
HETATM   19  C   UNL     1     -43.310  56.444 -58.328  1.00  0.00     0.030 A 
ENDBRANCH   9  13
ENDBRANCH   1   7
BRANCH   3  20
HETATM   20  C   UNL     1     -41.538  56.923 -51.674  1.00  0.00     0.260 C 
HETATM   21  N   UNL     1     -41.471  55.597 -52.044  1.00  0.00    -0.352 N 
HETATM   22  H   UNL     1     -42.022  55.281 -52.831  1.00  0.00     0.163 HD
HETATM   23  O   UNL     1     -40.994  57.320 -50.645  1.00  0.00    -0.267 OA
BRANCH  21  24
HETATM   24  C   UNL     1     -40.862  54.612 -51.183  1.00  0.00     0.161 C 
BRANCH  24  25
HETATM   25  C   UNL     1     -40.460  53.388 -51.962  1.00  0.00    -0.040 A 
HETATM   26  C   UNL     1     -40.672  53.337 -53.349  1.00  0.00     0.010 A 
HETATM   27  C   UNL     1     -40.303  52.206 -54.083  1.00  0.00     0.024 A 
HETATM   28  C   UNL     1     -39.721  51.121 -53.432  1.00  0.00     0.034 A 
HETATM   29 CL   UNL     1     -39.260  49.730 -54.335  1.00  0.00    -0.084 Cl
HETATM   30  C   UNL     1     -39.509  51.154 -52.055  1.00  0.00     0.024 A 
HETATM   31  C   UNL     1     -39.880  52.284 -51.321  1.00  0.00     0.010 A 
ENDBRANCH  24  25
ENDBRANCH  21  24
ENDBRANCH   3  20
TORSDOF 5
ENDMDL
MODEL 2
REMARK VINA RESULT:      -8.4      2.696      7.716
REMARK  5 active torsions:
REMARK  status: ('A' for Active; 'I' for Inactive)
REMARK    1  A    between atoms: C_5  and  N_6 
REMARK       I    between atoms: N_6  and  C_7 
REMARK       I    between atoms: C_7  and  N_8 
REMARK    2  A    between atoms: N_8  and  C_9 
REMARK    3  A    between atoms: C_11  and  C_12 
REMARK       I    between atoms: C_12  and  N_13 
REMARK    4  A    between atoms: N_13  and  C_14 
REMARK    5  A    between atoms: C_14  and  C_15 
ROOT
HETATM    1  C   UNL     1     -42.752  57.260 -51.400  1.00  0.00     0.175 A 
HETATM    2  S   UNL     1     -44.316  57.199 -52.059  1.00  0.00    -0.044 SA
HETATM    3  C   UNL     1     -43.918  58.517 -53.092  1.00  0.00     0.100 A 
HETATM    4  C   UNL     1     -42.616  58.929 -52.828  1.00  0.00     0.056 A 
HETATM    5  C   UNL     1     -41.880  60.045 -53.483  1.00  0.00     0.072 C 
HETATM    6  N   UNL     1     -41.954  58.193 -51.852  1.00  0.00    -0.228 NA
ENDROOT
BRANCH   1   7
HETATM    7  N   UNL     1     -42.477  56.310 -50.463  1.00  0.00    -0.287 N 
HETATM    8  C   UNL     1     -41.877  55.101 -50.689  1.00  0.00     0.326 C 
HETATM    9  N   UNL     1     -41.482  54.839 -51.973  1.00  0.00    -0.309 N 
HETATM   10  O   UNL     1     -41.751  54.348 -49.725  1.00  0.00    -0.247 OA
HETATM   11  H   UNL     1     -41.609  55.610 -52.625  1.00  0.00     0.170 HD
HETATM   12  H   UNL     1     -42.781  56.468 -49.515  1.00  0.00     0.172 HD
BRANCH   9  13
HETATM   13  C   UNL     1     -40.935  53.656 -52.502  1.00  0.00     0.036 A 
HETATM   14  C   UNL     1     -39.991  52.869 -51.843  1.00  0.00     0.030 A 
HETATM   15  C   UNL     1     -39.519  51.688 -52.427  1.00  0.00     0.009 A 
HETATM   16  C   UNL     1     -39.987  51.273 -53.679  1.00  0.00    -0.062 A 
HETATM   17  C   UNL     1     -39.460  50.016 -54.301  1.00  0.00     0.048 C 
HETATM   18  C   UNL     1     -40.919  52.070 -54.348  1.00  0.00     0.009 A 
HETATM   19  C   UNL     1     -41.393  53.249 -53.760  1.00  0.00     0.030 A 
ENDBRANCH   9  13
ENDBRANCH   1   7
BRANCH   3  20
HETATM   20  C   UNL     1     -44.847  59.058 -54.069  1.00  0.00     0.260 C 
HETATM   21  N   UNL     1     -44.770  58.531 -55.340  1.00  0.00    -0.352 N 
HETATM   22  H   UNL     1     -44.021  57.886 -55.556  1.00  0.00     0.163 HD
HETATM   23  O   UNL     1     -45.655  59.946 -53.802  1.00  0.00    -0.267 OA
BRANCH  21  24
HETATM   24  C   UNL     1     -45.549  59.078 -56.424  1.00  0.00     0.161 C 
BRANCH  24  25
HETATM   25  C   UNL     1     -45.529  58.163 -57.620  1.00  0.00    -0.040 A 
HETATM   26  C   UNL     1     -46.707  57.936 -58.350  1.00  0.00     0.010 A 
HETATM   27  C   UNL     1     -46.700  57.089 -59.461  1.00  0.00     0.024 A 
HETATM   28  C   UNL     1     -45.516  56.465 -59.847  1.00  0.00     0.034 A 
HETATM   29 CL   UNL     1     -45.505  55.427 -61.219  1.00  0.00    -0.084 Cl
HETATM   30  C   UNL     1     -44.341  56.676 -59.130  1.00  0.00     0.024 A 
HETATM   31  C   UNL     1     -44.347  57.521 -58.016  1.00  0.00     0.010 A 
ENDBRANCH  24  25
ENDBRANCH  21  24
ENDBRANCH   3  20
TORSDOF 5
ENDMDL
MODEL 3
REMARK VINA RESULT:      -8.3      4.045      7.679
REMARK  5 active torsions:
REMARK  status: ('A' for Active; 'I' for Inactive)
REMARK    1  A    between atoms: C_5  and  N_6 
REMARK       I    between atoms: N_6  and  C_7 
REMARK       I    between atoms: C_7  and  N_8 
REMARK    2  A    between atoms: N_8  and  C_9 
REMARK    3  A    between atoms: C_11  and  C_12 
REMARK       I    between atoms: C_12  and  N_13 
REMARK    4  A    between atoms: N_13  and  C_14 
REMARK    5  A    between atoms: C_14  and  C_15 
ROOT
HETATM    1  C   UNL     1     -44.868  58.623 -51.727  1.00  0.00     0.175 A 
HETATM    2  S   UNL     1     -43.640  58.849 -52.878  1.00  0.00    -0.044 SA
HETATM    3  C   UNL     1     -42.943  57.346 -52.410  1.00  0.00     0.100 A 
HETATM    4  C   UNL     1     -43.691  56.798 -51.374  1.00  0.00     0.056 A 
HETATM    5  C   UNL     1     -43.430  55.516 -50.664  1.00  0.00     0.072 C 
HETATM    6  N   UNL     1     -44.800  57.543 -50.992  1.00  0.00    -0.228 NA
ENDROOT
BRANCH   1   7
HETATM    7  N   UNL     1     -45.820  59.597 -51.692  1.00  0.00    -0.287 N 
HETATM    8  C   UNL     1     -45.987  60.529 -50.705  1.00  0.00     0.326 C 
HETATM    9  N   UNL     1     -45.087  60.502 -49.673  1.00  0.00    -0.309 N 
HETATM   10  O   UNL     1     -46.934  61.306 -50.819  1.00  0.00    -0.247 OA
HETATM   11  H   UNL     1     -44.331  59.831 -49.782  1.00  0.00     0.170 HD
HETATM   12  H   UNL     1     -46.509  59.622 -52.427  1.00  0.00     0.172 HD
BRANCH   9  13
HETATM   13  C   UNL     1     -45.076  61.270 -48.494  1.00  0.00     0.036 A 
HETATM   14  C   UNL     1     -44.729  62.619 -48.444  1.00  0.00     0.030 A 
HETATM   15  C   UNL     1     -44.774  63.319 -47.232  1.00  0.00     0.009 A 
HETATM   16  C   UNL     1     -45.171  62.681 -46.052  1.00  0.00    -0.062 A 
HETATM   17  C   UNL     1     -45.197  63.437 -44.758  1.00  0.00     0.048 C 
HETATM   18  C   UNL     1     -45.501  61.324 -46.099  1.00  0.00     0.009 A 
HETATM   19  C   UNL     1     -45.460  60.627 -47.311  1.00  0.00     0.030 A 
ENDBRANCH   9  13
ENDBRANCH   1   7
BRANCH   3  20
HETATM   20  C   UNL     1     -41.758  56.797 -53.047  1.00  0.00     0.260 C 
HETATM   21  N   UNL     1     -41.933  55.625 -53.749  1.00  0.00    -0.352 N 
HETATM   22  H   UNL     1     -42.828  55.157 -53.703  1.00  0.00     0.163 HD
HETATM   23  O   UNL     1     -40.650  57.325 -52.964  1.00  0.00    -0.267 OA
BRANCH  21  24
HETATM   24  C   UNL     1     -40.809  54.917 -54.313  1.00  0.00     0.161 C 
BRANCH  24  25
HETATM   25  C   UNL     1     -40.461  53.708 -53.488  1.00  0.00    -0.040 A 
HETATM   26  C   UNL     1     -40.100  52.506 -54.118  1.00  0.00     0.010 A 
HETATM   27  C   UNL     1     -39.776  51.377 -53.362  1.00  0.00     0.024 A 
HETATM   28  C   UNL     1     -39.812  51.444 -51.971  1.00  0.00     0.034 A 
HETATM   29 CL   UNL     1     -39.407  50.055 -51.039  1.00  0.00    -0.084 Cl
HETATM   30  C   UNL     1     -40.174  52.627 -51.331  1.00  0.00     0.024 A 
HETATM   31  C   UNL     1     -40.501  53.756 -52.087  1.00  0.00     0.010 A 
ENDBRANCH  24  25
ENDBRANCH  21  24
ENDBRANCH   3  20
TORSDOF 5
ENDMDL
MODEL 4
REMARK VINA RESULT:      -8.0      3.726      5.273
REMARK  5 active torsions:
REMARK  status: ('A' for Active; 'I' for Inactive)
REMARK    1  A    between atoms: C_5  and  N_6 
REMARK       I    between atoms: N_6  and  C_7 
REMARK       I    between atoms: C_7  and  N_8 
REMARK    2  A    between atoms: N_8  and  C_9 
REMARK    3  A    between atoms: C_11  and  C_12 
REMARK       I    between atoms: C_12  and  N_13 
REMARK    4  A    between atoms: N_13  and  C_14 
REMARK    5  A    between atoms: C_14  and  C_15 
ROOT
HETATM    1  C   UNL     1     -43.553  58.549 -57.058  1.00  0.00     0.175 A 
HETATM    2  S   UNL     1     -43.072  57.723 -55.655  1.00  0.00    -0.044 SA
HETATM    3  C   UNL     1     -42.926  56.274 -56.572  1.00  0.00     0.100 A 
HETATM    4  C   UNL     1     -43.293  56.528 -57.889  1.00  0.00     0.056 A 
HETATM    5  C   UNL     1     -43.327  55.551 -59.012  1.00  0.00     0.072 C 
HETATM    6  N   UNL     1     -43.650  57.844 -58.156  1.00  0.00    -0.228 NA
ENDROOT
BRANCH   1   7
HETATM    7  N   UNL     1     -43.782  59.883 -56.900  1.00  0.00    -0.287 N 
HETATM    8  C   UNL     1     -43.165  60.895 -57.582  1.00  0.00     0.326 C 
HETATM    9  N   UNL     1     -42.258  60.530 -58.540  1.00  0.00    -0.309 N 
HETATM   10  O   UNL     1     -43.466  62.047 -57.272  1.00  0.00    -0.247 OA
HETATM   11  H   UNL     1     -42.188  59.528 -58.703  1.00  0.00     0.170 HD
HETATM   12  H   UNL     1     -44.427  60.178 -56.183  1.00  0.00     0.172 HD
BRANCH   9  13
HETATM   13  C   UNL     1     -41.418  61.350 -59.315  1.00  0.00     0.036 A 
HETATM   14  C   UNL     1     -41.570  61.548 -60.687  1.00  0.00     0.030 A 
HETATM   15  C   UNL     1     -40.707  62.406 -61.380  1.00  0.00     0.009 A 
HETATM   16  C   UNL     1     -39.682  63.083 -60.711  1.00  0.00    -0.062 A 
HETATM   17  C   UNL     1     -38.755  63.985 -61.468  1.00  0.00     0.048 C 
HETATM   18  C   UNL     1     -39.519  62.871 -59.339  1.00  0.00     0.009 A 
HETATM   19  C   UNL     1     -40.384  62.017 -58.648  1.00  0.00     0.030 A 
ENDBRANCH   9  13
ENDBRANCH   1   7
BRANCH   3  20
HETATM   20  C   UNL     1     -42.477  55.020 -55.994  1.00  0.00     0.260 C 
HETATM   21  N   UNL     1     -41.156  54.967 -55.606  1.00  0.00    -0.352 N 
HETATM   22  H   UNL     1     -40.549  55.744 -55.832  1.00  0.00     0.163 HD
HETATM   23  O   UNL     1     -43.214  54.044 -55.861  1.00  0.00    -0.267 OA
BRANCH  21  24
HETATM   24  C   UNL     1     -40.563  53.736 -55.140  1.00  0.00     0.161 C 
BRANCH  24  25
HETATM   25  C   UNL     1     -40.560  53.672 -53.636  1.00  0.00    -0.040 A 
HETATM   26  C   UNL     1     -40.993  54.777 -52.885  1.00  0.00     0.010 A 
HETATM   27  C   UNL     1     -40.995  54.730 -51.489  1.00  0.00     0.024 A 
HETATM   28  C   UNL     1     -40.561  53.578 -50.837  1.00  0.00     0.034 A 
HETATM   29 CL   UNL     1     -40.568  53.516 -49.117  1.00  0.00    -0.084 Cl
HETATM   30  C   UNL     1     -40.123  52.475 -51.568  1.00  0.00     0.024 A 
HETATM   31  C   UNL     1     -40.119  52.523 -52.964  1.00  0.00     0.010 A 
ENDBRANCH  24  25
ENDBRANCH  21  24
ENDBRANCH   3  20
TORSDOF 5
ENDMDL
MODEL 5
REMARK VINA RESULT:      -8.0      3.151      4.423
REMARK  5 active torsions:
REMARK  status: ('A' for Active; 'I' for Inactive)
REMARK    1  A    between atoms: C_5  and  N_6 
REMARK       I    between atoms: N_6  and  C_7 
REMARK       I    between atoms: C_7  and  N_8 
REMARK    2  A    between atoms: N_8  and  C_9 
REMARK    3  A    between atoms: C_11  and  C_12 
REMARK       I    between atoms: C_12  and  N_13 
REMARK    4  A    between atoms: N_13  and  C_14 
REMARK    5  A    between atoms: C_14  and  C_15 
ROOT
HETATM    1  C   UNL     1     -43.634  58.902 -56.334  1.00  0.00     0.175 A 
HETATM    2  S   UNL     1     -42.877  58.957 -54.815  1.00  0.00    -0.044 SA
HETATM    3  C   UNL     1     -42.425  57.306 -54.994  1.00  0.00     0.100 A 
HETATM    4  C   UNL     1     -42.922  56.824 -56.200  1.00  0.00     0.056 A 
HETATM    5  C   UNL     1     -42.776  55.445 -56.741  1.00  0.00     0.072 C 
HETATM    6  N   UNL     1     -43.615  57.756 -56.964  1.00  0.00    -0.228 NA
ENDROOT
BRANCH   1   7
HETATM    7  N   UNL     1     -44.182  60.076 -56.755  1.00  0.00    -0.287 N 
HETATM    8  C   UNL     1     -43.632  60.949 -57.653  1.00  0.00     0.326 C 
HETATM    9  N   UNL     1     -42.434  60.589 -58.209  1.00  0.00    -0.309 N 
HETATM   10  O   UNL     1     -44.252  61.988 -57.879  1.00  0.00    -0.247 OA
HETATM   11  H   UNL     1     -42.105  59.661 -57.951  1.00  0.00     0.170 HD
HETATM   12  H   UNL     1     -45.052  60.376 -56.341  1.00  0.00     0.172 HD
BRANCH   9  13
HETATM   13  C   UNL     1     -41.609  61.327 -59.076  1.00  0.00     0.036 A 
HETATM   14  C   UNL     1     -41.811  61.425 -60.452  1.00  0.00     0.030 A 
HETATM   15  C   UNL     1     -40.958  62.207 -61.240  1.00  0.00     0.009 A 
HETATM   16  C   UNL     1     -39.892  62.906 -60.664  1.00  0.00    -0.062 A 
HETATM   17  C   UNL     1     -38.976  63.726 -61.522  1.00  0.00     0.048 C 
HETATM   18  C   UNL     1     -39.679  62.794 -59.288  1.00  0.00     0.009 A 
HETATM   19  C   UNL     1     -40.534  62.016 -58.500  1.00  0.00     0.030 A 
ENDBRANCH   9  13
ENDBRANCH   1   7
BRANCH   3  20
HETATM   20  C   UNL     1     -41.640  56.594 -54.001  1.00  0.00     0.260 C 
HETATM   21  N   UNL     1     -42.304  55.621 -53.285  1.00  0.00    -0.352 N 
HETATM   22  H   UNL     1     -43.303  55.523 -53.405  1.00  0.00     0.163 HD
HETATM   23  O   UNL     1     -40.454  56.839 -53.785  1.00  0.00    -0.267 OA
BRANCH  21  24
HETATM   24  C   UNL     1     -41.667  54.938 -52.184  1.00  0.00     0.161 C 
BRANCH  24  25
HETATM   25  C   UNL     1     -41.043  53.646 -52.638  1.00  0.00    -0.040 A 
HETATM   26  C   UNL     1     -40.171  52.949 -51.786  1.00  0.00     0.010 A 
HETATM   27  C   UNL     1     -39.587  51.748 -52.196  1.00  0.00     0.024 A 
HETATM   28  C   UNL     1     -39.869  51.240 -53.462  1.00  0.00     0.034 A 
HETATM   29 CL   UNL     1     -39.154  49.758 -53.966  1.00  0.00    -0.084 Cl
HETATM   30  C   UNL     1     -40.727  51.922 -54.321  1.00  0.00     0.024 A 
HETATM   31  C   UNL     1     -41.311  53.124 -53.912  1.00  0.00     0.010 A 
ENDBRANCH  24  25
ENDBRANCH  21  24
ENDBRANCH   3  20
TORSDOF 5
ENDMDL
MODEL 6
REMARK VINA RESULT:      -7.9      2.152      2.948
REMARK  5 active torsions:
REMARK  status: ('A' for Active; 'I' for Inactive)
REMARK    1  A    between atoms: C_5  and  N_6 
REMARK       I    between atoms: N_6  and  C_7 
REMARK       I    between atoms: C_7  and  N_8 
REMARK    2  A    between atoms: N_8  and  C_9 
REMARK    3  A    between atoms: C_11  and  C_12 
REMARK       I    between atoms: C_12  and  N_13 
REMARK    4  A    between atoms: N_13  and  C_14 
REMARK    5  A    between atoms: C_14  and  C_15 
ROOT
HETATM    1  C   UNL     1     -42.392  57.315 -56.999  1.00  0.00     0.175 A 
HETATM    2  S   UNL     1     -42.150  56.054 -55.888  1.00  0.00    -0.044 SA
HETATM    3  C   UNL     1     -42.654  57.097 -54.614  1.00  0.00     0.100 A 
HETATM    4  C   UNL     1     -42.939  58.353 -55.138  1.00  0.00     0.056 A 
HETATM    5  C   UNL     1     -43.392  59.555 -54.384  1.00  0.00     0.072 C 
HETATM    6  N   UNL     1     -42.787  58.464 -56.514  1.00  0.00    -0.228 NA
ENDROOT
BRANCH   1   7
HETATM    7  N   UNL     1     -42.159  56.996 -58.303  1.00  0.00    -0.287 N 
HETATM    8  C   UNL     1     -43.079  57.006 -59.315  1.00  0.00     0.326 C 
HETATM    9  N   UNL     1     -44.346  57.412 -58.992  1.00  0.00    -0.309 N 
HETATM   10  O   UNL     1     -42.697  56.640 -60.425  1.00  0.00    -0.247 OA
HETATM   11  H   UNL     1     -44.459  57.741 -58.036  1.00  0.00     0.170 HD
HETATM   12  H   UNL     1     -41.240  56.669 -58.561  1.00  0.00     0.172 HD
BRANCH   9  13
HETATM   13  C   UNL     1     -45.497  57.429 -59.799  1.00  0.00     0.036 A 
HETATM   14  C   UNL     1     -46.066  58.589 -60.325  1.00  0.00     0.030 A 
HETATM   15  C   UNL     1     -47.197  58.515 -61.146  1.00  0.00     0.009 A 
HETATM   16  C   UNL     1     -47.775  57.280 -61.458  1.00  0.00    -0.062 A 
HETATM   17  C   UNL     1     -48.996  57.217 -62.325  1.00  0.00     0.048 C 
HETATM   18  C   UNL     1     -47.216  56.119 -60.918  1.00  0.00     0.009 A 
HETATM   19  C   UNL     1     -46.083  56.194 -60.101  1.00  0.00     0.030 A 
ENDBRANCH   9  13
ENDBRANCH   1   7
BRANCH   3  20
HETATM   20  C   UNL     1     -42.747  56.661 -53.232  1.00  0.00     0.260 C 
HETATM   21  N   UNL     1     -41.555  56.378 -52.601  1.00  0.00    -0.352 N 
HETATM   22  H   UNL     1     -40.701  56.385 -53.144  1.00  0.00     0.163 HD
HETATM   23  O   UNL     1     -43.819  56.531 -52.643  1.00  0.00    -0.267 OA
BRANCH  21  24
HETATM   24  C   UNL     1     -41.528  55.814 -51.273  1.00  0.00     0.161 C 
BRANCH  24  25
HETATM   25  C   UNL     1     -40.981  54.412 -51.293  1.00  0.00    -0.040 A 
HETATM   26  C   UNL     1     -40.698  53.785 -52.517  1.00  0.00     0.010 A 
HETATM   27  C   UNL     1     -40.190  52.484 -52.548  1.00  0.00     0.024 A 
HETATM   28  C   UNL     1     -39.964  51.803 -51.354  1.00  0.00     0.034 A 
HETATM   29 CL   UNL     1     -39.332  50.202 -51.390  1.00  0.00    -0.084 Cl
HETATM   30  C   UNL     1     -40.244  52.409 -50.131  1.00  0.00     0.024 A 
HETATM   31  C   UNL     1     -40.755  53.709 -50.100  1.00  0.00     0.010 A 
ENDBRANCH  24  25
ENDBRANCH  21  24
ENDBRANCH   3  20
TORSDOF 5
ENDMDL
MODEL 7
REMARK VINA RESULT:      -7.8      3.267      7.832
REMARK  5 active torsions:
REMARK  status: ('A' for Active; 'I' for Inactive)
REMARK    1  A    between atoms: C_5  and  N_6 
REMARK       I    between atoms: N_6  and  C_7 
REMARK       I    between atoms: C_7  and  N_8 
REMARK    2  A    between atoms: N_8  and  C_9 
REMARK    3  A    between atoms: C_11  and  C_12 
REMARK       I    between atoms: C_12  and  N_13 
REMARK    4  A    between atoms: N_13  and  C_14 
REMARK    5  A    between atoms: C_14  and  C_15 
ROOT
HETATM    1  C   UNL     1     -41.784  56.813 -50.635  1.00  0.00     0.175 A 
HETATM    2  S   UNL     1     -40.957  58.079 -51.409  1.00  0.00    -0.044 SA
HETATM    3  C   UNL     1     -42.454  58.657 -52.033  1.00  0.00     0.100 A 
HETATM    4  C   UNL     1     -43.477  57.810 -51.624  1.00  0.00     0.056 A 
HETATM    5  C   UNL     1     -44.925  57.932 -51.952  1.00  0.00     0.072 C 
HETATM    6  N   UNL     1     -43.078  56.753 -50.816  1.00  0.00    -0.228 NA
ENDROOT
BRANCH   1   7
HETATM    7  N   UNL     1     -41.007  55.985 -49.882  1.00  0.00    -0.287 N 
HETATM    8  C   UNL     1     -40.468  54.794 -50.285  1.00  0.00     0.326 C 
HETATM    9  N   UNL     1     -40.703  54.419 -51.581  1.00  0.00    -0.309 N 
HETATM   10  O   UNL     1     -39.829  54.155 -49.451  1.00  0.00    -0.247 OA
HETATM   11  H   UNL     1     -41.197  55.108 -52.143  1.00  0.00     0.170 HD
HETATM   12  H   UNL     1     -40.841  56.227 -48.917  1.00  0.00     0.172 HD
BRANCH   9  13
HETATM   13  C   UNL     1     -40.356  53.218 -52.226  1.00  0.00     0.036 A 
HETATM   14  C   UNL     1     -39.833  52.103 -51.571  1.00  0.00     0.030 A 
HETATM   15  C   UNL     1     -39.542  50.934 -52.285  1.00  0.00     0.009 A 
HETATM   16  C   UNL     1     -39.773  50.860 -53.662  1.00  0.00    -0.062 A 
HETATM   17  C   UNL     1     -39.441  49.608 -54.417  1.00  0.00     0.048 C 
HETATM   18  C   UNL     1     -40.281  51.983 -54.321  1.00  0.00     0.009 A 
HETATM   19  C   UNL     1     -40.575  53.149 -53.606  1.00  0.00     0.030 A 
ENDBRANCH   9  13
ENDBRANCH   1   7
BRANCH   3  20
HETATM   20  C   UNL     1     -42.555  59.855 -52.848  1.00  0.00     0.260 C 
HETATM   21  N   UNL     1     -42.639  59.660 -54.210  1.00  0.00    -0.352 N 
HETATM   22  H   UNL     1     -42.522  58.724 -54.577  1.00  0.00     0.163 HD
HETATM   23  O   UNL     1     -42.553  60.989 -52.372  1.00  0.00    -0.267 OA
BRANCH  21  24
HETATM   24  C   UNL     1     -42.612  60.773 -55.127  1.00  0.00     0.161 C 
BRANCH  24  25
HETATM   25  C   UNL     1     -42.405  60.303 -56.542  1.00  0.00    -0.040 A 
HETATM   26  C   UNL     1     -41.870  61.177 -57.502  1.00  0.00     0.010 A 
HETATM   27  C   UNL     1     -41.674  60.752 -58.818  1.00  0.00     0.024 A 
HETATM   28  C   UNL     1     -42.013  59.450 -59.181  1.00  0.00     0.034 A 
HETATM   29 CL   UNL     1     -41.766  58.923 -60.801  1.00  0.00    -0.084 Cl
HETATM   30  C   UNL     1     -42.550  58.573 -58.242  1.00  0.00     0.024 A 
HETATM   31  C   UNL     1     -42.749  58.998 -56.926  1.00  0.00     0.010 A 
ENDBRANCH  24  25
ENDBRANCH  21  24
ENDBRANCH   3  20
TORSDOF 5
ENDMDL
MODEL 8
REMARK VINA RESULT:      -7.7      2.345      7.522
REMARK  5 active torsions:
REMARK  status: ('A' for Active; 'I' for Inactive)
REMARK    1  A    between atoms: C_5  and  N_6 
REMARK       I    between atoms: N_6  and  C_7 
REMARK       I    between atoms: C_7  and  N_8 
REMARK    2  A    between atoms: N_8  and  C_9 
REMARK    3  A    between atoms: C_11  and  C_12 
REMARK       I    between atoms: C_12  and  N_13 
REMARK    4  A    between atoms: N_13  and  C_14 
REMARK    5  A    between atoms: C_14  and  C_15 
ROOT
HETATM    1  C   UNL     1     -42.146  57.263 -51.633  1.00  0.00     0.175 A 
HETATM    2  S   UNL     1     -41.216  57.494 -53.034  1.00  0.00    -0.044 SA
HETATM    3  C   UNL     1     -42.474  58.464 -53.695  1.00  0.00     0.100 A 
HETATM    4  C   UNL     1     -43.536  58.510 -52.798  1.00  0.00     0.056 A 
HETATM    5  C   UNL     1     -44.830  59.223 -52.978  1.00  0.00     0.072 C 
HETATM    6  N   UNL     1     -43.332  57.815 -51.612  1.00  0.00    -0.228 NA
ENDROOT
BRANCH   1   7
HETATM    7  N   UNL     1     -41.552  56.525 -50.653  1.00  0.00    -0.287 N 
HETATM    8  C   UNL     1     -40.981  55.292 -50.804  1.00  0.00     0.326 C 
HETATM    9  N   UNL     1     -40.975  54.766 -52.068  1.00  0.00    -0.309 N 
HETATM   10  O   UNL     1     -40.532  54.753 -49.794  1.00  0.00    -0.247 OA
HETATM   11  H   UNL     1     -41.332  55.386 -52.791  1.00  0.00     0.170 HD
HETATM   12  H   UNL     1     -41.567  56.880 -49.709  1.00  0.00     0.172 HD
BRANCH   9  13
HETATM   13  C   UNL     1     -40.546  53.495 -52.490  1.00  0.00     0.036 A 
HETATM   14  C   UNL     1     -39.874  52.586 -51.673  1.00  0.00     0.030 A 
HETATM   15  C   UNL     1     -39.508  51.327 -52.164  1.00  0.00     0.009 A 
HETATM   16  C   UNL     1     -39.812  50.955 -53.477  1.00  0.00    -0.062 A 
HETATM   17  C   UNL     1     -39.398  49.610 -53.995  1.00  0.00     0.048 C 
HETATM   18  C   UNL     1     -40.469  51.872 -54.302  1.00  0.00     0.009 A 
HETATM   19  C   UNL     1     -40.838  53.128 -53.809  1.00  0.00     0.030 A 
ENDBRANCH   9  13
ENDBRANCH   1   7
BRANCH   3  20
HETATM   20  C   UNL     1     -42.371  59.109 -54.993  1.00  0.00     0.260 C 
HETATM   21  N   UNL     1     -43.040  58.497 -56.031  1.00  0.00    -0.352 N 
HETATM   22  H   UNL     1     -43.473  57.597 -55.870  1.00  0.00     0.163 HD
HETATM   23  O   UNL     1     -41.717  60.133 -55.179  1.00  0.00    -0.267 OA
BRANCH  21  24
HETATM   24  C   UNL     1     -42.906  58.969 -57.388  1.00  0.00     0.161 C 
BRANCH  24  25
HETATM   25  C   UNL     1     -43.419  57.950 -58.369  1.00  0.00    -0.040 A 
HETATM   26  C   UNL     1     -44.801  57.781 -58.548  1.00  0.00     0.010 A 
HETATM   27  C   UNL     1     -45.289  56.838 -59.455  1.00  0.00     0.024 A 
HETATM   28  C   UNL     1     -44.397  56.058 -60.187  1.00  0.00     0.034 A 
HETATM   29 CL   UNL     1     -44.997  54.899 -61.310  1.00  0.00    -0.084 Cl
HETATM   30  C   UNL     1     -43.023  56.209 -60.017  1.00  0.00     0.024 A 
HETATM   31  C   UNL     1     -42.534  57.151 -59.108  1.00  0.00     0.010 A 
ENDBRANCH  24  25
ENDBRANCH  21  24
ENDBRANCH   3  20
TORSDOF 5
ENDMDL
MODEL 9
REMARK VINA RESULT:      -7.7     16.491     17.971
REMARK  5 active torsions:
REMARK  status: ('A' for Active; 'I' for Inactive)
REMARK    1  A    between atoms: C_5  and  N_6 
REMARK       I    between atoms: N_6  and  C_7 
REMARK       I    between atoms: C_7  and  N_8 
REMARK    2  A    between atoms: N_8  and  C_9 
REMARK    3  A    between atoms: C_11  and  C_12 
REMARK       I    between atoms: C_12  and  N_13 
REMARK    4  A    between atoms: N_13  and  C_14 
REMARK    5  A    between atoms: C_14  and  C_15 
ROOT
HETATM    1  C   UNL     1     -34.867  41.621 -56.858  1.00  0.00     0.175 A 
HETATM    2  S   UNL     1     -35.355  41.457 -55.240  1.00  0.00    -0.044 SA
HETATM    3  C   UNL     1     -33.910  40.585 -54.905  1.00  0.00     0.100 A 
HETATM    4  C   UNL     1     -33.173  40.455 -56.077  1.00  0.00     0.056 A 
HETATM    5  C   UNL     1     -31.867  39.758 -56.240  1.00  0.00     0.072 C 
HETATM    6  N   UNL     1     -33.735  41.059 -57.195  1.00  0.00    -0.228 NA
ENDROOT
BRANCH   1   7
HETATM    7  N   UNL     1     -35.709  42.341 -57.651  1.00  0.00    -0.287 N 
HETATM    8  C   UNL     1     -36.607  41.832 -58.549  1.00  0.00     0.326 C 
HETATM    9  N   UNL     1     -36.691  40.468 -58.630  1.00  0.00    -0.309 N 
HETATM   10  O   UNL     1     -37.254  42.638 -59.214  1.00  0.00    -0.247 OA
HETATM   11  H   UNL     1     -36.124  39.963 -57.953  1.00  0.00     0.170 HD
HETATM   12  H   UNL     1     -35.648  43.347 -57.627  1.00  0.00     0.172 HD
BRANCH   9  13
HETATM   13  C   UNL     1     -37.447  39.685 -59.521  1.00  0.00     0.036 A 
HETATM   14  C   UNL     1     -38.626  39.025 -59.173  1.00  0.00     0.030 A 
HETATM   15  C   UNL     1     -39.336  38.289 -60.130  1.00  0.00     0.009 A 
HETATM   16  C   UNL     1     -38.880  38.205 -61.450  1.00  0.00    -0.062 A 
HETATM   17  C   UNL     1     -39.640  37.399 -62.459  1.00  0.00     0.048 C 
HETATM   18  C   UNL     1     -37.690  38.851 -61.794  1.00  0.00     0.009 A 
HETATM   19  C   UNL     1     -36.984  39.589 -60.838  1.00  0.00     0.030 A 
ENDBRANCH   9  13
ENDBRANCH   1   7
BRANCH   3  20
HETATM   20  C   UNL     1     -33.576  40.095 -53.579  1.00  0.00     0.260 C 
HETATM   21  N   UNL     1     -33.565  41.033 -52.569  1.00  0.00    -0.352 N 
HETATM   22  H   UNL     1     -33.681  42.009 -52.808  1.00  0.00     0.163 HD
HETATM   23  O   UNL     1     -33.303  38.918 -53.350  1.00  0.00    -0.267 OA
BRANCH  21  24
HETATM   24  C   UNL     1     -33.122  40.693 -51.238  1.00  0.00     0.161 C 
BRANCH  24  25
HETATM   25  C   UNL     1     -34.238  40.075 -50.439  1.00  0.00    -0.040 A 
HETATM   26  C   UNL     1     -35.545  40.578 -50.551  1.00  0.00     0.010 A 
HETATM   27  C   UNL     1     -36.588  40.013 -49.814  1.00  0.00     0.024 A 
HETATM   28  C   UNL     1     -36.330  38.944 -48.960  1.00  0.00     0.034 A 
HETATM   29 CL   UNL     1     -37.616  38.243 -48.056  1.00  0.00    -0.084 Cl
HETATM   30  C   UNL     1     -35.039  38.438 -48.832  1.00  0.00     0.024 A 
HETATM   31  C   UNL     1     -33.994  39.004 -49.568  1.00  0.00     0.010 A 
ENDBRANCH  24  25
ENDBRANCH  21  24
ENDBRANCH   3  20
TORSDOF 5
ENDMDL
MODEL 10
REMARK VINA RESULT:      -7.6     16.049     20.423
REMARK  5 active torsions:
REMARK  status: ('A' for Active; 'I' for Inactive)
REMARK    1  A    between atoms: C_5  and  N_6 
REMARK       I    between atoms: N_6  and  C_7 
REMARK       I    between atoms: C_7  and  N_8 
REMARK    2  A    between atoms: N_8  and  C_9 
REMARK    3  A    between atoms: C_11  and  C_12 
REMARK       I    between atoms: C_12  and  N_13 
REMARK    4  A    between atoms: N_13  and  C_14 
REMARK    5  A    between atoms: C_14  and  C_15 
ROOT
HETATM    1  C   UNL     1     -34.389  38.571 -52.034  1.00  0.00     0.175 A 
HETATM    2  S   UNL     1     -34.161  39.516 -53.427  1.00  0.00    -0.044 SA
HETATM    3  C   UNL     1     -35.645  40.326 -53.106  1.00  0.00     0.100 A 
HETATM    4  C   UNL     1     -36.224  39.783 -51.964  1.00  0.00     0.056 A 
HETATM    5  C   UNL     1     -37.518  40.179 -51.343  1.00  0.00     0.072 C 
HETATM    6  N   UNL     1     -35.488  38.774 -51.355  1.00  0.00    -0.228 NA
ENDROOT
BRANCH   1   7
HETATM    7  N   UNL     1     -33.385  37.694 -51.754  1.00  0.00    -0.287 N 
HETATM    8  C   UNL     1     -32.686  37.612 -50.581  1.00  0.00     0.326 C 
HETATM    9  N   UNL     1     -33.058  38.470 -49.581  1.00  0.00    -0.309 N 
HETATM   10  O   UNL     1     -31.778  36.785 -50.525  1.00  0.00    -0.247 OA
HETATM   11  H   UNL     1     -33.877  39.038 -49.787  1.00  0.00     0.170 HD
HETATM   12  H   UNL     1     -33.075  37.069 -52.483  1.00  0.00     0.172 HD
BRANCH   9  13
HETATM   13  C   UNL     1     -32.461  38.666 -48.323  1.00  0.00     0.036 A 
HETATM   14  C   UNL     1     -32.785  37.934 -47.181  1.00  0.00     0.030 A 
HETATM   15  C   UNL     1     -32.120  38.173 -45.973  1.00  0.00     0.009 A 
HETATM   16  C   UNL     1     -31.118  39.145 -45.888  1.00  0.00    -0.062 A 
HETATM   17  C   UNL     1     -30.427  39.403 -44.583  1.00  0.00     0.048 C 
HETATM   18  C   UNL     1     -30.805  39.892 -47.027  1.00  0.00     0.009 A 
HETATM   19  C   UNL     1     -31.468  39.649 -48.235  1.00  0.00     0.030 A 
ENDBRANCH   9  13
ENDBRANCH   1   7
BRANCH   3  20
HETATM   20  C   UNL     1     -36.148  41.404 -53.939  1.00  0.00     0.260 C 
HETATM   21  N   UNL     1     -36.948  41.033 -54.997  1.00  0.00    -0.352 N 
HETATM   22  H   UNL     1     -37.059  40.049 -55.204  1.00  0.00     0.163 HD
HETATM   23  O   UNL     1     -35.876  42.587 -53.737  1.00  0.00    -0.267 OA
BRANCH  21  24
HETATM   24  C   UNL     1     -37.399  42.000 -55.969  1.00  0.00     0.161 C 
BRANCH  24  25
HETATM   25  C   UNL     1     -37.483  41.389 -57.342  1.00  0.00    -0.040 A 
HETATM   26  C   UNL     1     -37.041  42.113 -58.461  1.00  0.00     0.010 A 
HETATM   27  C   UNL     1     -37.114  41.557 -59.740  1.00  0.00     0.024 A 
HETATM   28  C   UNL     1     -37.631  40.274 -59.907  1.00  0.00     0.034 A 
HETATM   29 CL   UNL     1     -37.716  39.585 -61.481  1.00  0.00    -0.084 Cl
HETATM   30  C   UNL     1     -38.079  39.545 -58.807  1.00  0.00     0.024 A 
HETATM   31  C   UNL     1     -38.009  40.103 -57.528  1.00  0.00     0.010 A 
ENDBRANCH  24  25
ENDBRANCH  21  24
ENDBRANCH   3  20
TORSDOF 5
ENDMDL
