MODEL 1
REMARK VINA RESULT:      -8.5      0.000      0.000
REMARK  3 active torsions:
REMARK  status: ('A' for Active; 'I' for Inactive)
REMARK    1  A    between atoms: C_13  and  C_14 
REMARK    2  A    between atoms: C_14  and  N_15 
REMARK       I    between atoms: N_15  and  C_16 
REMARK    3  A    between atoms: C_16  and  C_17 
ROOT
HETATM    1  C   UNL     1     -40.840  54.166 -50.045  1.00  0.00     0.002 A 
HETATM    2  C   UNL     1     -40.398  52.837 -49.922  1.00  0.00     0.018 A 
HETATM    3  C   UNL     1     -40.123  52.159 -51.106  1.00  0.00     0.045 A 
HETATM    4  C   UNL     1     -40.294  52.804 -52.321  1.00  0.00     0.017 A 
HETATM    5  C   UNL     1     -40.725  54.086 -52.501  1.00  0.00    -0.015 A 
HETATM    6  C   UNL     1     -41.004  54.786 -51.304  1.00  0.00     0.013 A 
HETATM    7  C   UNL     1     -39.953  51.931 -53.328  1.00  0.00     0.047 A 
HETATM    8  N   UNL     1     -39.575  50.742 -52.732  1.00  0.00    -0.322 N 
HETATM    9  C   UNL     1     -39.656  50.805 -51.334  1.00  0.00     0.257 A 
HETATM   10  O   UNL     1     -39.377  49.887 -50.577  1.00  0.00    -0.267 OA
HETATM   11  C   UNL     1     -40.016  52.298 -54.657  1.00  0.00     0.031 A 
HETATM   12  C   UNL     1     -40.458  53.613 -54.903  1.00  0.00     0.012 A 
HETATM   13  C   UNL     1     -40.828  54.510 -53.858  1.00  0.00    -0.029 A 
HETATM   14  H   UNL     1     -39.273  49.910 -53.215  1.00  0.00     0.169 HD
ENDROOT
BRANCH  13  15
HETATM   15  C   UNL     1     -41.293  55.895 -54.228  1.00  0.00     0.162 C 
BRANCH  15  16
HETATM   16  N   UNL     1     -41.544  56.005 -55.643  1.00  0.00    -0.351 N 
HETATM   17  C   UNL     1     -42.729  56.487 -56.153  1.00  0.00     0.275 C 
HETATM   18  O   UNL     1     -43.639  56.900 -55.440  1.00  0.00    -0.265 OA
HETATM   19  H   UNL     1     -40.891  55.594 -56.300  1.00  0.00     0.163 HD
BRANCH  17  20
HETATM   20  C   UNL     1     -42.793  56.466 -57.600  1.00  0.00     0.142 A 
HETATM   21  O   UNL     1     -42.276  57.515 -58.318  1.00  0.00    -0.317 OA
HETATM   22  C   UNL     1     -42.483  57.241 -59.632  1.00  0.00     0.143 A 
HETATM   23  C   UNL     1     -43.121  56.032 -59.780  1.00  0.00     0.027 A 
HETATM   24  C   UNL     1     -43.321  55.530 -58.472  1.00  0.00     0.045 A 
ENDBRANCH  17  20
ENDBRANCH  15  16
ENDBRANCH  13  15
TORSDOF 3
ENDMDL
MODEL 2
REMARK VINA RESULT:      -8.2      3.226      4.981
REMARK  3 active torsions:
REMARK  status: ('A' for Active; 'I' for Inactive)
REMARK    1  A    between atoms: C_13  and  C_14 
REMARK    2  A    between atoms: C_14  and  N_15 
REMARK       I    between atoms: N_15  and  C_16 
REMARK    3  A    between atoms: C_16  and  C_17 
ROOT
HETATM    1  C   UNL     1     -40.036  52.449 -54.700  1.00  0.00     0.002 A 
HETATM    2  C   UNL     1     -39.810  51.537 -53.654  1.00  0.00     0.018 A 
HETATM    3  C   UNL     1     -40.040  52.001 -52.363  1.00  0.00     0.045 A 
HETATM    4  C   UNL     1     -40.466  53.305 -52.168  1.00  0.00     0.017 A 
HETATM    5  C   UNL     1     -40.695  54.234 -53.141  1.00  0.00    -0.015 A 
HETATM    6  C   UNL     1     -40.470  53.771 -54.460  1.00  0.00     0.013 A 
HETATM    7  C   UNL     1     -40.625  53.514 -50.818  1.00  0.00     0.047 A 
HETATM    8  N   UNL     1     -40.289  52.336 -50.176  1.00  0.00    -0.322 N 
HETATM    9  C   UNL     1     -39.909  51.334 -51.081  1.00  0.00     0.257 A 
HETATM   10  O   UNL     1     -39.567  50.204 -50.767  1.00  0.00    -0.267 OA
HETATM   11  C   UNL     1     -41.052  54.727 -50.317  1.00  0.00     0.031 A 
HETATM   12  C   UNL     1     -41.302  55.726 -51.279  1.00  0.00     0.012 A 
HETATM   13  C   UNL     1     -41.120  55.513 -52.677  1.00  0.00    -0.029 A 
HETATM   14  H   UNL     1     -40.306  52.181 -49.180  1.00  0.00     0.169 HD
ENDROOT
BRANCH  13  15
HETATM   15  C   UNL     1     -41.410  56.650 -53.624  1.00  0.00     0.162 C 
BRANCH  15  16
HETATM   16  N   UNL     1     -41.956  57.787 -52.928  1.00  0.00    -0.351 N 
HETATM   17  C   UNL     1     -41.273  58.975 -52.794  1.00  0.00     0.275 C 
HETATM   18  O   UNL     1     -40.169  59.166 -53.298  1.00  0.00    -0.265 OA
HETATM   19  H   UNL     1     -42.813  57.685 -52.396  1.00  0.00     0.163 HD
BRANCH  17  20
HETATM   20  C   UNL     1     -41.979  59.971 -52.015  1.00  0.00     0.142 A 
HETATM   21  O   UNL     1     -42.905  60.779 -52.626  1.00  0.00    -0.317 OA
HETATM   22  C   UNL     1     -43.396  61.616 -51.676  1.00  0.00     0.143 A 
HETATM   23  C   UNL     1     -42.807  61.364 -50.459  1.00  0.00     0.027 A 
HETATM   24  C   UNL     1     -41.895  60.303 -50.675  1.00  0.00     0.045 A 
ENDBRANCH  17  20
ENDBRANCH  15  16
ENDBRANCH  13  15
TORSDOF 3
ENDMDL
MODEL 3
REMARK VINA RESULT:      -7.8      2.587      4.346
REMARK  3 active torsions:
REMARK  status: ('A' for Active; 'I' for Inactive)
REMARK    1  A    between atoms: C_13  and  C_14 
REMARK    2  A    between atoms: C_14  and  N_15 
REMARK       I    between atoms: N_15  and  C_16 
REMARK    3  A    between atoms: C_16  and  C_17 
ROOT
HETATM    1  C   UNL     1     -40.849  54.168 -50.049  1.00  0.00     0.002 A 
HETATM    2  C   UNL     1     -40.407  52.838 -49.932  1.00  0.00     0.018 A 
HETATM    3  C   UNL     1     -40.121  52.170 -51.118  1.00  0.00     0.045 A 
HETATM    4  C   UNL     1     -40.281  52.824 -52.329  1.00  0.00     0.017 A 
HETATM    5  C   UNL     1     -40.712  54.108 -52.504  1.00  0.00    -0.015 A 
HETATM    6  C   UNL     1     -41.001  54.799 -51.304  1.00  0.00     0.013 A 
HETATM    7  C   UNL     1     -39.931  51.960 -53.341  1.00  0.00     0.047 A 
HETATM    8  N   UNL     1     -39.559  50.766 -52.751  1.00  0.00    -0.322 N 
HETATM    9  C   UNL     1     -39.652  50.818 -51.353  1.00  0.00     0.257 A 
HETATM   10  O   UNL     1     -39.380  49.894 -50.600  1.00  0.00    -0.267 OA
HETATM   11  C   UNL     1     -39.982  52.337 -54.667  1.00  0.00     0.031 A 
HETATM   12  C   UNL     1     -40.422  53.654 -54.907  1.00  0.00     0.012 A 
HETATM   13  C   UNL     1     -40.802  54.542 -53.858  1.00  0.00    -0.029 A 
HETATM   14  H   UNL     1     -39.251  49.938 -53.238  1.00  0.00     0.169 HD
ENDROOT
BRANCH  13  15
HETATM   15  C   UNL     1     -41.264  55.931 -54.222  1.00  0.00     0.162 C 
BRANCH  15  16
HETATM   16  N   UNL     1     -41.199  56.820 -53.090  1.00  0.00    -0.351 N 
HETATM   17  C   UNL     1     -41.074  58.185 -53.223  1.00  0.00     0.275 C 
HETATM   18  O   UNL     1     -41.054  58.745 -54.315  1.00  0.00    -0.265 OA
HETATM   19  H   UNL     1     -41.105  56.436 -52.157  1.00  0.00     0.163 HD
BRANCH  17  20
HETATM   20  C   UNL     1     -40.974  58.888 -51.961  1.00  0.00     0.142 A 
HETATM   21  O   UNL     1     -41.974  59.749 -51.584  1.00  0.00    -0.317 OA
HETATM   22  C   UNL     1     -41.619  60.273 -50.382  1.00  0.00     0.143 A 
HETATM   23  C   UNL     1     -40.410  59.764 -49.971  1.00  0.00     0.027 A 
HETATM   24  C   UNL     1     -39.993  58.871 -50.986  1.00  0.00     0.045 A 
ENDBRANCH  17  20
ENDBRANCH  15  16
ENDBRANCH  13  15
TORSDOF 3
ENDMDL
MODEL 4
REMARK VINA RESULT:      -7.8      1.678      2.214
REMARK  3 active torsions:
REMARK  status: ('A' for Active; 'I' for Inactive)
REMARK    1  A    between atoms: C_13  and  C_14 
REMARK    2  A    between atoms: C_14  and  N_15 
REMARK       I    between atoms: N_15  and  C_16 
REMARK    3  A    between atoms: C_16  and  C_17 
ROOT
HETATM    1  C   UNL     1     -43.139  55.364 -50.978  1.00  0.00     0.002 A 
HETATM    2  C   UNL     1     -42.332  54.306 -50.524  1.00  0.00     0.018 A 
HETATM    3  C   UNL     1     -41.485  53.721 -51.460  1.00  0.00     0.045 A 
HETATM    4  C   UNL     1     -41.474  54.193 -52.763  1.00  0.00     0.017 A 
HETATM    5  C   UNL     1     -42.237  55.209 -53.261  1.00  0.00    -0.015 A 
HETATM    6  C   UNL     1     -43.099  55.814 -52.316  1.00  0.00     0.013 A 
HETATM    7  C   UNL     1     -40.558  53.461 -53.484  1.00  0.00     0.047 A 
HETATM    8  N   UNL     1     -40.005  52.532 -52.622  1.00  0.00    -0.322 N 
HETATM    9  C   UNL     1     -40.538  52.631 -51.329  1.00  0.00     0.257 A 
HETATM   10  O   UNL     1     -40.216  51.923 -50.386  1.00  0.00    -0.267 OA
HETATM   11  C   UNL     1     -40.321  53.710 -54.820  1.00  0.00     0.031 A 
HETATM   12  C   UNL     1     -41.083  54.750 -55.388  1.00  0.00     0.012 A 
HETATM   13  C   UNL     1     -42.045  55.495 -54.645  1.00  0.00    -0.029 A 
HETATM   14  H   UNL     1     -39.302  51.850 -52.862  1.00  0.00     0.169 HD
ENDROOT
BRANCH  13  15
HETATM   15  C   UNL     1     -42.814  56.585 -55.348  1.00  0.00     0.162 C 
BRANCH  15  16
HETATM   16  N   UNL     1     -43.474  56.085 -56.528  1.00  0.00    -0.351 N 
HETATM   17  C   UNL     1     -43.245  56.604 -57.783  1.00  0.00     0.275 C 
HETATM   18  O   UNL     1     -42.430  57.498 -57.993  1.00  0.00    -0.265 OA
HETATM   19  H   UNL     1     -44.234  55.422 -56.433  1.00  0.00     0.163 HD
BRANCH  17  20
HETATM   20  C   UNL     1     -44.049  55.993 -58.822  1.00  0.00     0.142 A 
HETATM   21  O   UNL     1     -45.115  56.681 -59.347  1.00  0.00    -0.317 OA
HETATM   22  C   UNL     1     -45.690  55.877 -60.279  1.00  0.00     0.143 A 
HETATM   23  C   UNL     1     -45.014  54.683 -60.371  1.00  0.00     0.027 A 
HETATM   24  C   UNL     1     -43.956  54.757 -59.434  1.00  0.00     0.045 A 
ENDBRANCH  17  20
ENDBRANCH  15  16
ENDBRANCH  13  15
TORSDOF 3
ENDMDL
MODEL 5
REMARK VINA RESULT:      -7.8      2.797      3.991
REMARK  3 active torsions:
REMARK  status: ('A' for Active; 'I' for Inactive)
REMARK    1  A    between atoms: C_13  and  C_14 
REMARK    2  A    between atoms: C_14  and  N_15 
REMARK       I    between atoms: N_15  and  C_16 
REMARK    3  A    between atoms: C_16  and  C_17 
ROOT
HETATM    1  C   UNL     1     -40.467  54.054 -54.821  1.00  0.00     0.002 A 
HETATM    2  C   UNL     1     -40.099  52.699 -54.892  1.00  0.00     0.018 A 
HETATM    3  C   UNL     1     -39.990  52.018 -53.683  1.00  0.00     0.045 A 
HETATM    4  C   UNL     1     -40.239  52.687 -52.495  1.00  0.00     0.017 A 
HETATM    5  C   UNL     1     -40.591  53.999 -52.365  1.00  0.00    -0.015 A 
HETATM    6  C   UNL     1     -40.710  54.700 -53.589  1.00  0.00     0.013 A 
HETATM    7  C   UNL     1     -40.071  51.803 -51.454  1.00  0.00     0.047 A 
HETATM    8  N   UNL     1     -39.712  50.585 -52.003  1.00  0.00    -0.322 N 
HETATM    9  C   UNL     1     -39.639  50.640 -53.402  1.00  0.00     0.257 A 
HETATM   10  O   UNL     1     -39.342  49.697 -54.122  1.00  0.00    -0.267 OA
HETATM   11  C   UNL     1     -40.260  52.184 -50.142  1.00  0.00     0.031 A 
HETATM   12  C   UNL     1     -40.624  53.531 -49.948  1.00  0.00     0.012 A 
HETATM   13  C   UNL     1     -40.780  54.451 -51.026  1.00  0.00    -0.029 A 
HETATM   14  H   UNL     1     -39.520  49.740 -51.488  1.00  0.00     0.169 HD
ENDROOT
BRANCH  13  15
HETATM   15  C   UNL     1     -41.167  55.874 -50.711  1.00  0.00     0.162 C 
BRANCH  15  16
HETATM   16  N   UNL     1     -41.973  56.444 -51.760  1.00  0.00    -0.351 N 
HETATM   17  C   UNL     1     -43.350  56.420 -51.737  1.00  0.00     0.275 C 
HETATM   18  O   UNL     1     -43.989  55.951 -50.799  1.00  0.00    -0.265 OA
HETATM   19  H   UNL     1     -41.531  56.758 -52.616  1.00  0.00     0.163 HD
BRANCH  17  20
HETATM   20  C   UNL     1     -43.964  57.002 -52.913  1.00  0.00     0.142 A 
HETATM   21  O   UNL     1     -44.430  58.292 -52.866  1.00  0.00    -0.317 OA
HETATM   22  C   UNL     1     -44.962  58.570 -54.085  1.00  0.00     0.143 A 
HETATM   23  C   UNL     1     -44.845  57.484 -54.922  1.00  0.00     0.027 A 
HETATM   24  C   UNL     1     -44.202  56.474 -54.169  1.00  0.00     0.045 A 
ENDBRANCH  17  20
ENDBRANCH  15  16
ENDBRANCH  13  15
TORSDOF 3
ENDMDL
MODEL 6
REMARK VINA RESULT:      -7.8      2.827      3.360
REMARK  3 active torsions:
REMARK  status: ('A' for Active; 'I' for Inactive)
REMARK    1  A    between atoms: C_13  and  C_14 
REMARK    2  A    between atoms: C_14  and  N_15 
REMARK       I    between atoms: N_15  and  C_16 
REMARK    3  A    between atoms: C_16  and  C_17 
ROOT
HETATM    1  C   UNL     1     -40.221  51.579 -50.131  1.00  0.00     0.002 A 
HETATM    2  C   UNL     1     -39.867  50.598 -51.074  1.00  0.00     0.018 A 
HETATM    3  C   UNL     1     -39.874  50.988 -52.410  1.00  0.00     0.045 A 
HETATM    4  C   UNL     1     -40.221  52.287 -52.744  1.00  0.00     0.017 A 
HETATM    5  C   UNL     1     -40.579  53.277 -51.875  1.00  0.00    -0.015 A 
HETATM    6  C   UNL     1     -40.571  52.894 -50.512  1.00  0.00     0.013 A 
HETATM    7  C   UNL     1     -40.146  52.421 -54.111  1.00  0.00     0.047 A 
HETATM    8  N   UNL     1     -39.756  51.197 -54.623  1.00  0.00    -0.322 N 
HETATM    9  C   UNL     1     -39.565  50.241 -53.614  1.00  0.00     0.257 A 
HETATM   10  O   UNL     1     -39.220  49.084 -53.806  1.00  0.00    -0.267 OA
HETATM   11  C   UNL     1     -40.430  53.615 -54.740  1.00  0.00     0.031 A 
HETATM   12  C   UNL     1     -40.808  54.674 -53.890  1.00  0.00     0.012 A 
HETATM   13  C   UNL     1     -40.902  54.529 -52.474  1.00  0.00    -0.029 A 
HETATM   14  H   UNL     1     -39.615  50.983 -55.598  1.00  0.00     0.169 HD
ENDROOT
BRANCH  13  15
HETATM   15  C   UNL     1     -41.321  55.722 -51.654  1.00  0.00     0.162 C 
BRANCH  15  16
HETATM   16  N   UNL     1     -41.411  56.912 -52.463  1.00  0.00    -0.351 N 
HETATM   17  C   UNL     1     -42.610  57.520 -52.760  1.00  0.00     0.275 C 
HETATM   18  O   UNL     1     -43.684  57.118 -52.321  1.00  0.00    -0.265 OA
HETATM   19  H   UNL     1     -40.588  57.249 -52.949  1.00  0.00     0.163 HD
BRANCH  17  20
HETATM   20  C   UNL     1     -42.481  58.671 -53.630  1.00  0.00     0.142 A 
HETATM   21  O   UNL     1     -42.703  59.928 -53.127  1.00  0.00    -0.317 OA
HETATM   22  C   UNL     1     -42.530  60.805 -54.150  1.00  0.00     0.143 A 
HETATM   23  C   UNL     1     -42.195  60.139 -55.305  1.00  0.00     0.027 A 
HETATM   24  C   UNL     1     -42.162  58.764 -54.972  1.00  0.00     0.045 A 
ENDBRANCH  17  20
ENDBRANCH  15  16
ENDBRANCH  13  15
TORSDOF 3
ENDMDL
MODEL 7
REMARK VINA RESULT:      -7.7      2.046      3.059
REMARK  3 active torsions:
REMARK  status: ('A' for Active; 'I' for Inactive)
REMARK    1  A    between atoms: C_13  and  C_14 
REMARK    2  A    between atoms: C_14  and  N_15 
REMARK       I    between atoms: N_15  and  C_16 
REMARK    3  A    between atoms: C_16  and  C_17 
ROOT
HETATM    1  C   UNL     1     -39.843  51.942 -53.279  1.00  0.00     0.002 A 
HETATM    2  C   UNL     1     -39.857  52.145 -51.887  1.00  0.00     0.018 A 
HETATM    3  C   UNL     1     -40.716  53.130 -51.410  1.00  0.00     0.045 A 
HETATM    4  C   UNL     1     -41.497  53.850 -52.300  1.00  0.00     0.017 A 
HETATM    5  C   UNL     1     -41.520  53.702 -53.657  1.00  0.00    -0.015 A 
HETATM    6  C   UNL     1     -40.654  52.700 -54.153  1.00  0.00     0.013 A 
HETATM    7  C   UNL     1     -42.254  54.750 -51.586  1.00  0.00     0.047 A 
HETATM    8  N   UNL     1     -41.936  54.587 -50.250  1.00  0.00    -0.322 N 
HETATM    9  C   UNL     1     -40.973  53.586 -50.057  1.00  0.00     0.257 A 
HETATM   10  O   UNL     1     -40.523  53.252 -48.971  1.00  0.00    -0.267 OA
HETATM   11  C   UNL     1     -43.141  55.605 -52.207  1.00  0.00     0.031 A 
HETATM   12  C   UNL     1     -43.206  55.497 -53.611  1.00  0.00     0.012 A 
HETATM   13  C   UNL     1     -42.406  54.577 -54.351  1.00  0.00    -0.029 A 
HETATM   14  H   UNL     1     -42.329  55.108 -49.483  1.00  0.00     0.169 HD
ENDROOT
BRANCH  13  15
HETATM   15  C   UNL     1     -42.547  54.544 -55.852  1.00  0.00     0.162 C 
BRANCH  15  16
HETATM   16  N   UNL     1     -42.356  55.851 -56.426  1.00  0.00    -0.351 N 
HETATM   17  C   UNL     1     -42.878  56.209 -57.649  1.00  0.00     0.275 C 
HETATM   18  O   UNL     1     -43.580  55.455 -58.317  1.00  0.00    -0.265 OA
HETATM   19  H   UNL     1     -41.707  56.498 -55.994  1.00  0.00     0.163 HD
BRANCH  17  20
HETATM   20  C   UNL     1     -42.525  57.551 -58.065  1.00  0.00     0.142 A 
HETATM   21  O   UNL     1     -42.141  58.473 -57.124  1.00  0.00    -0.317 OA
HETATM   22  C   UNL     1     -41.885  59.634 -57.782  1.00  0.00     0.143 A 
HETATM   23  C   UNL     1     -42.093  59.479 -59.133  1.00  0.00     0.027 A 
HETATM   24  C   UNL     1     -42.504  58.138 -59.317  1.00  0.00     0.045 A 
ENDBRANCH  17  20
ENDBRANCH  15  16
ENDBRANCH  13  15
TORSDOF 3
ENDMDL
MODEL 8
REMARK VINA RESULT:      -7.7      3.413      4.667
REMARK  3 active torsions:
REMARK  status: ('A' for Active; 'I' for Inactive)
REMARK    1  A    between atoms: C_13  and  C_14 
REMARK    2  A    between atoms: C_14  and  N_15 
REMARK       I    between atoms: N_15  and  C_16 
REMARK    3  A    between atoms: C_16  and  C_17 
ROOT
HETATM    1  C   UNL     1     -40.387  52.459 -50.026  1.00  0.00     0.002 A 
HETATM    2  C   UNL     1     -40.003  51.733 -51.167  1.00  0.00     0.018 A 
HETATM    3  C   UNL     1     -40.130  52.383 -52.391  1.00  0.00     0.045 A 
HETATM    4  C   UNL     1     -40.619  53.679 -52.432  1.00  0.00     0.017 A 
HETATM    5  C   UNL     1     -41.012  54.428 -51.361  1.00  0.00    -0.015 A 
HETATM    6  C   UNL     1     -40.883  53.779 -50.110  1.00  0.00     0.013 A 
HETATM    7  C   UNL     1     -40.642  54.094 -53.743  1.00  0.00     0.047 A 
HETATM    8  N   UNL     1     -40.171  53.048 -54.515  1.00  0.00    -0.322 N 
HETATM    9  C   UNL     1     -39.828  51.933 -53.737  1.00  0.00     0.257 A 
HETATM   10  O   UNL     1     -39.388  50.882 -54.180  1.00  0.00    -0.267 OA
HETATM   11  C   UNL     1     -41.077  55.355 -54.097  1.00  0.00     0.031 A 
HETATM   12  C   UNL     1     -41.498  56.173 -53.029  1.00  0.00     0.012 A 
HETATM   13  C   UNL     1     -41.490  55.734 -51.673  1.00  0.00    -0.029 A 
HETATM   14  H   UNL     1     -40.073  53.053 -55.518  1.00  0.00     0.169 HD
ENDROOT
BRANCH  13  15
HETATM   15  C   UNL     1     -41.967  56.685 -50.604  1.00  0.00     0.162 C 
BRANCH  15  16
HETATM   16  N   UNL     1     -42.839  57.694 -51.150  1.00  0.00    -0.351 N 
HETATM   17  C   UNL     1     -44.212  57.586 -51.119  1.00  0.00     0.275 C 
HETATM   18  O   UNL     1     -44.791  56.645 -50.585  1.00  0.00    -0.265 OA
HETATM   19  H   UNL     1     -42.447  58.451 -51.698  1.00  0.00     0.163 HD
BRANCH  17  20
HETATM   20  C   UNL     1     -44.898  58.684 -51.767  1.00  0.00     0.142 A 
HETATM   21  O   UNL     1     -45.931  59.315 -51.120  1.00  0.00    -0.317 OA
HETATM   22  C   UNL     1     -46.395  60.283 -51.953  1.00  0.00     0.143 A 
HETATM   23  C   UNL     1     -45.679  60.293 -53.127  1.00  0.00     0.027 A 
HETATM   24  C   UNL     1     -44.714  59.265 -53.009  1.00  0.00     0.045 A 
ENDBRANCH  17  20
ENDBRANCH  15  16
ENDBRANCH  13  15
TORSDOF 3
ENDMDL
MODEL 9
REMARK VINA RESULT:      -7.5      1.718      2.006
REMARK  3 active torsions:
REMARK  status: ('A' for Active; 'I' for Inactive)
REMARK    1  A    between atoms: C_13  and  C_14 
REMARK    2  A    between atoms: C_14  and  N_15 
REMARK       I    between atoms: N_15  and  C_16 
REMARK    3  A    between atoms: C_16  and  C_17 
ROOT
HETATM    1  C   UNL     1     -40.849  54.099 -50.011  1.00  0.00     0.002 A 
HETATM    2  C   UNL     1     -40.403  52.790 -50.269  1.00  0.00     0.018 A 
HETATM    3  C   UNL     1     -40.169  52.462 -51.600  1.00  0.00     0.045 A 
HETATM    4  C   UNL     1     -40.383  53.411 -52.588  1.00  0.00     0.017 A 
HETATM    5  C   UNL     1     -40.820  54.690 -52.399  1.00  0.00    -0.015 A 
HETATM    6  C   UNL     1     -41.056  55.036 -51.047  1.00  0.00     0.013 A 
HETATM    7  C   UNL     1     -40.078  52.848 -53.806  1.00  0.00     0.047 A 
HETATM    8  N   UNL     1     -39.680  51.545 -53.569  1.00  0.00    -0.322 N 
HETATM    9  C   UNL     1     -39.711  51.225 -52.204  1.00  0.00     0.257 A 
HETATM   10  O   UNL     1     -39.407  50.139 -51.735  1.00  0.00    -0.267 OA
HETATM   11  C   UNL     1     -40.186  53.561 -54.982  1.00  0.00     0.031 A 
HETATM   12  C   UNL     1     -40.636  54.889 -54.847  1.00  0.00     0.012 A 
HETATM   13  C   UNL     1     -40.969  55.466 -53.585  1.00  0.00    -0.029 A 
HETATM   14  H   UNL     1     -39.394  50.879 -54.269  1.00  0.00     0.169 HD
ENDROOT
BRANCH  13  15
HETATM   15  C   UNL     1     -41.447  56.895 -53.549  1.00  0.00     0.162 C 
BRANCH  15  16
HETATM   16  N   UNL     1     -42.544  57.106 -54.460  1.00  0.00    -0.351 N 
HETATM   17  C   UNL     1     -42.626  58.207 -55.283  1.00  0.00     0.275 C 
HETATM   18  O   UNL     1     -41.748  59.064 -55.332  1.00  0.00    -0.265 OA
HETATM   19  H   UNL     1     -43.358  56.505 -54.410  1.00  0.00     0.163 HD
BRANCH  17  20
HETATM   20  C   UNL     1     -43.834  58.251 -56.081  1.00  0.00     0.142 A 
HETATM   21  O   UNL     1     -43.745  58.192 -57.449  1.00  0.00    -0.317 OA
HETATM   22  C   UNL     1     -45.011  58.267 -57.936  1.00  0.00     0.143 A 
HETATM   23  C   UNL     1     -45.919  58.370 -56.908  1.00  0.00     0.027 A 
HETATM   24  C   UNL     1     -45.162  58.359 -55.712  1.00  0.00     0.045 A 
ENDBRANCH  17  20
ENDBRANCH  15  16
ENDBRANCH  13  15
TORSDOF 3
ENDMDL
MODEL 10
REMARK VINA RESULT:      -7.3      3.186      8.526
REMARK  3 active torsions:
REMARK  status: ('A' for Active; 'I' for Inactive)
REMARK    1  A    between atoms: C_13  and  C_14 
REMARK    2  A    between atoms: C_14  and  N_15 
REMARK       I    between atoms: N_15  and  C_16 
REMARK    3  A    between atoms: C_16  and  C_17 
ROOT
HETATM    1  C   UNL     1     -46.691  58.715 -57.700  1.00  0.00     0.002 A 
HETATM    2  C   UNL     1     -47.367  58.228 -58.832  1.00  0.00     0.018 A 
HETATM    3  C   UNL     1     -46.680  57.312 -59.623  1.00  0.00     0.045 A 
HETATM    4  C   UNL     1     -45.394  56.932 -59.272  1.00  0.00     0.017 A 
HETATM    5  C   UNL     1     -44.687  57.376 -58.192  1.00  0.00    -0.015 A 
HETATM    6  C   UNL     1     -45.378  58.305 -57.378  1.00  0.00     0.013 A 
HETATM    7  C   UNL     1     -44.940  56.024 -60.200  1.00  0.00     0.047 A 
HETATM    8  N   UNL     1     -45.948  55.846 -61.130  1.00  0.00    -0.322 N 
HETATM    9  C   UNL     1     -47.077  56.624 -60.836  1.00  0.00     0.257 A 
HETATM   10  O   UNL     1     -48.101  56.647 -61.503  1.00  0.00    -0.267 OA
HETATM   11  C   UNL     1     -43.685  55.459 -60.107  1.00  0.00     0.031 A 
HETATM   12  C   UNL     1     -42.908  55.883 -59.011  1.00  0.00     0.012 A 
HETATM   13  C   UNL     1     -43.373  56.838 -58.060  1.00  0.00    -0.029 A 
HETATM   14  H   UNL     1     -45.909  55.239 -61.933  1.00  0.00     0.169 HD
ENDROOT
BRANCH  13  15
HETATM   15  C   UNL     1     -42.462  57.229 -56.925  1.00  0.00     0.162 C 
BRANCH  15  16
HETATM   16  N   UNL     1     -41.944  56.070 -56.242  1.00  0.00    -0.351 N 
HETATM   17  C   UNL     1     -41.568  56.093 -54.918  1.00  0.00     0.275 C 
HETATM   18  O   UNL     1     -41.689  57.090 -54.212  1.00  0.00    -0.265 OA
HETATM   19  H   UNL     1     -41.716  55.238 -56.773  1.00  0.00     0.163 HD
BRANCH  17  20
HETATM   20  C   UNL     1     -41.027  54.837 -54.442  1.00  0.00     0.142 A 
HETATM   21  O   UNL     1     -41.101  54.528 -53.107  1.00  0.00    -0.317 OA
HETATM   22  C   UNL     1     -40.512  53.315 -52.943  1.00  0.00     0.143 A 
HETATM   23  C   UNL     1     -40.061  52.831 -54.148  1.00  0.00     0.027 A 
HETATM   24  C   UNL     1     -40.392  53.809 -55.115  1.00  0.00     0.045 A 
ENDBRANCH  17  20
ENDBRANCH  15  16
ENDBRANCH  13  15
TORSDOF 3
ENDMDL
