MODEL 1
REMARK VINA RESULT:      -9.9      0.000      0.000
REMARK  9 active torsions:
REMARK  status: ('A' for Active; 'I' for Inactive)
REMARK    1  A    between atoms: O_2  and  C_3 
REMARK    2  A    between atoms: C_6  and  C_7 
REMARK    3  A    between atoms: C_8  and  C_9 
REMARK    4  A    between atoms: C_9  and  O_10 
REMARK    5  A    between atoms: O_10  and  C_11 
REMARK    6  A    between atoms: C_14  and  C_15 
REMARK    7  A    between atoms: C_17  and  O_18 
REMARK    8  A    between atoms: N_26  and  C_28 
REMARK    9  A    between atoms: C_28  and  C_29 
ROOT
HETATM    1  C   UNL     1     -43.321  60.362 -52.386  1.00  0.00     0.243 C 
HETATM    2  N   UNL     1     -41.856  60.346 -52.577  1.00  0.00    -0.235 NA
HETATM    3  C   UNL     1     -41.358  59.242 -52.991  1.00  0.00     0.173 C 
HETATM    4  C   UNL     1     -42.094  58.021 -53.207  1.00  0.00     0.057 A 
HETATM    5  C   UNL     1     -43.403  58.007 -52.792  1.00  0.00     0.087 A 
HETATM    6  S   UNL     1     -44.169  56.516 -53.034  1.00  0.00    -0.074 SA
HETATM    7  C   UNL     1     -42.753  55.850 -53.698  1.00  0.00     0.018 A 
HETATM    8  C   UNL     1     -41.707  56.756 -53.761  1.00  0.00    -0.024 A 
HETATM    9  C   UNL     1     -40.362  56.362 -54.299  1.00  0.00     0.068 C 
HETATM   10  C   UNL     1     -40.395  54.985 -54.999  1.00  0.00     0.240 C 
HETATM   11  N   UNL     1     -41.242  53.966 -54.243  1.00  0.00    -0.063 N 
HETATM   12  H   UNL     1     -41.267  53.106 -54.800  1.00  0.00     0.280 HD
HETATM   13  C   UNL     1     -42.689  54.438 -54.157  1.00  0.00     0.282 C 
HETATM   14  N   UNL     1     -43.980  59.076 -52.224  1.00  0.00    -0.357 N 
HETATM   15  H   UNL     1     -44.980  59.111 -52.050  1.00  0.00     0.162 HD
ENDROOT
BRANCH   1  16
HETATM   16  C   UNL     1     -43.739  61.221 -51.201  1.00  0.00    -0.014 A 
HETATM   17  C   UNL     1     -44.204  62.531 -51.420  1.00  0.00     0.014 A 
HETATM   18  C   UNL     1     -44.725  63.294 -50.372  1.00  0.00     0.038 A 
HETATM   19  C   UNL     1     -44.773  62.753 -49.091  1.00  0.00     0.079 A 
HETATM   20  C   UNL     1     -44.296  61.463 -48.847  1.00  0.00     0.038 A 
HETATM   21  C   UNL     1     -43.786  60.700 -49.899  1.00  0.00     0.014 A 
BRANCH  19  22
HETATM   22  O   UNL     1     -45.402  63.379 -47.991  1.00  0.00    -0.276 OA
BRANCH  22  23
HETATM   23  C   UNL     1     -46.400  62.804 -47.215  1.00  0.00     0.288 C 
HETATM   24  O   UNL     1     -47.336  62.119 -47.596  1.00  0.00    -0.260 OA
BRANCH  23  25
HETATM   25  C   UNL     1     -46.139  63.053 -45.778  1.00  0.00     0.083 C 
HETATM   26  C   UNL     1     -45.051  63.685 -45.310  1.00  0.00     0.017 C 
BRANCH  26  27
HETATM   27  C   UNL     1     -44.766  63.830 -43.881  1.00  0.00    -0.036 A 
HETATM   28  C   UNL     1     -45.667  64.474 -43.023  1.00  0.00     0.014 A 
HETATM   29  C   UNL     1     -45.428  64.526 -41.645  1.00  0.00     0.037 A 
HETATM   30  C   UNL     1     -44.287  63.930 -41.109  1.00  0.00     0.068 A 
HETATM   31  C   UNL     1     -43.380  63.302 -41.965  1.00  0.00     0.037 A 
HETATM   32  C   UNL     1     -43.619  63.241 -43.341  1.00  0.00     0.014 A 
BRANCH  30  33
HETATM   33  O   UNL     1     -43.947  63.893 -39.785  1.00  0.00    -0.356 OA
HETATM   34  C   UNL     1     -45.009  63.703 -38.858  1.00  0.00     0.210 C 
ENDBRANCH  30  33
ENDBRANCH  26  27
ENDBRANCH  23  25
ENDBRANCH  22  23
ENDBRANCH  19  22
ENDBRANCH   1  16
BRANCH   3  35
HETATM   35  O   UNL     1     -40.036  59.189 -53.230  1.00  0.00    -0.344 OA
HETATM   36  H   UNL     1     -39.603  59.628 -52.475  1.00  0.00     0.219 HD
ENDBRANCH   3  35
BRANCH  11  37
HETATM   37  C   UNL     1     -40.638  53.578 -52.911  1.00  0.00     0.273 C 
BRANCH  37  38
HETATM   38  C   UNL     1     -40.213  52.137 -52.830  1.00  0.00    -0.033 A 
HETATM   39  C   UNL     1     -40.218  51.317 -53.969  1.00  0.00     0.009 A 
HETATM   40  C   UNL     1     -39.851  49.973 -53.870  1.00  0.00     0.001 A 
HETATM   41  C   UNL     1     -39.473  49.440 -52.639  1.00  0.00     0.000 A 
HETATM   42  C   UNL     1     -39.457  50.246 -51.505  1.00  0.00     0.001 A 
HETATM   43  C   UNL     1     -39.825  51.588 -51.597  1.00  0.00     0.009 A 
ENDBRANCH  37  38
ENDBRANCH  11  37
TORSDOF 9
ENDMDL
MODEL 2
REMARK VINA RESULT:      -9.4      1.510      2.456
REMARK  9 active torsions:
REMARK  status: ('A' for Active; 'I' for Inactive)
REMARK    1  A    between atoms: O_2  and  C_3 
REMARK    2  A    between atoms: C_6  and  C_7 
REMARK    3  A    between atoms: C_8  and  C_9 
REMARK    4  A    between atoms: C_9  and  O_10 
REMARK    5  A    between atoms: O_10  and  C_11 
REMARK    6  A    between atoms: C_14  and  C_15 
REMARK    7  A    between atoms: C_17  and  O_18 
REMARK    8  A    between atoms: N_26  and  C_28 
REMARK    9  A    between atoms: C_28  and  C_29 
ROOT
HETATM    1  C   UNL     1     -43.783  61.525 -50.609  1.00  0.00     0.243 C 
HETATM    2  N   UNL     1     -42.320  61.316 -50.604  1.00  0.00    -0.235 NA
HETATM    3  C   UNL     1     -41.904  60.261 -51.197  1.00  0.00     0.173 C 
HETATM    4  C   UNL     1     -42.742  59.248 -51.790  1.00  0.00     0.057 A 
HETATM    5  C   UNL     1     -44.092  59.355 -51.566  1.00  0.00     0.087 A 
HETATM    6  S   UNL     1     -44.989  58.092 -52.251  1.00  0.00    -0.074 SA
HETATM    7  C   UNL     1     -43.579  57.367 -52.862  1.00  0.00     0.018 A 
HETATM    8  C   UNL     1     -42.430  58.087 -52.571  1.00  0.00    -0.024 A 
HETATM    9  C   UNL     1     -41.076  57.607 -53.005  1.00  0.00     0.068 C 
HETATM   10  C   UNL     1     -41.166  56.435 -54.008  1.00  0.00     0.240 C 
HETATM   11  N   UNL     1     -42.247  55.427 -53.632  1.00  0.00    -0.063 N 
HETATM   12  H   UNL     1     -42.288  54.721 -54.374  1.00  0.00     0.280 HD
HETATM   13  C   UNL     1     -43.617  56.094 -53.629  1.00  0.00     0.282 C 
HETATM   14  N   UNL     1     -44.615  60.356 -50.843  1.00  0.00    -0.357 N 
HETATM   15  H   UNL     1     -45.618  60.512 -50.798  1.00  0.00     0.162 HD
ENDROOT
BRANCH   1  16
HETATM   16  C   UNL     1     -44.278  62.165 -49.321  1.00  0.00    -0.014 A 
HETATM   17  C   UNL     1     -44.700  61.348 -48.254  1.00  0.00     0.014 A 
HETATM   18  C   UNL     1     -45.028  61.899 -47.013  1.00  0.00     0.038 A 
HETATM   19  C   UNL     1     -44.947  63.276 -46.833  1.00  0.00     0.079 A 
HETATM   20  C   UNL     1     -44.552  64.107 -47.883  1.00  0.00     0.038 A 
HETATM   21  C   UNL     1     -44.215  63.552 -49.119  1.00  0.00     0.014 A 
BRANCH  19  22
HETATM   22  O   UNL     1     -45.120  63.923 -45.587  1.00  0.00    -0.276 OA
BRANCH  22  23
HETATM   23  C   UNL     1     -46.346  64.252 -45.027  1.00  0.00     0.288 C 
HETATM   24  O   UNL     1     -47.392  64.487 -45.613  1.00  0.00    -0.260 OA
BRANCH  23  25
HETATM   25  C   UNL     1     -46.267  64.197 -43.549  1.00  0.00     0.083 C 
HETATM   26  C   UNL     1     -45.116  64.154 -42.860  1.00  0.00     0.017 C 
BRANCH  26  27
HETATM   27  C   UNL     1     -45.064  63.998 -41.405  1.00  0.00    -0.036 A 
HETATM   28  C   UNL     1     -46.202  63.637 -40.672  1.00  0.00     0.014 A 
HETATM   29  C   UNL     1     -46.120  63.402 -39.295  1.00  0.00     0.037 A 
HETATM   30  C   UNL     1     -44.897  63.520 -38.636  1.00  0.00     0.068 A 
HETATM   31  C   UNL     1     -43.764  63.896 -39.362  1.00  0.00     0.037 A 
HETATM   32  C   UNL     1     -43.841  64.124 -40.739  1.00  0.00     0.014 A 
BRANCH  30  33
HETATM   33  O   UNL     1     -44.677  63.299 -37.304  1.00  0.00    -0.356 OA
HETATM   34  C   UNL     1     -43.760  64.172 -36.655  1.00  0.00     0.210 C 
ENDBRANCH  30  33
ENDBRANCH  26  27
ENDBRANCH  23  25
ENDBRANCH  22  23
ENDBRANCH  19  22
ENDBRANCH   1  16
BRANCH   3  35
HETATM   35  O   UNL     1     -40.577  60.051 -51.266  1.00  0.00    -0.344 OA
HETATM   36  H   UNL     1     -40.286  59.843 -50.359  1.00  0.00     0.219 HD
ENDBRANCH   3  35
BRANCH  11  37
HETATM   37  C   UNL     1     -41.924  54.671 -52.361  1.00  0.00     0.273 C 
BRANCH  37  38
HETATM   38  C   UNL     1     -41.114  53.424 -52.584  1.00  0.00    -0.033 A 
HETATM   39  C   UNL     1     -40.373  52.846 -51.540  1.00  0.00     0.009 A 
HETATM   40  C   UNL     1     -39.602  51.706 -51.773  1.00  0.00     0.001 A 
HETATM   41  C   UNL     1     -39.566  51.132 -53.042  1.00  0.00     0.000 A 
HETATM   42  C   UNL     1     -40.302  51.692 -54.083  1.00  0.00     0.001 A 
HETATM   43  C   UNL     1     -41.073  52.832 -53.857  1.00  0.00     0.009 A 
ENDBRANCH  37  38
ENDBRANCH  11  37
TORSDOF 9
ENDMDL
MODEL 3
REMARK VINA RESULT:      -9.2      6.933     10.404
REMARK  9 active torsions:
REMARK  status: ('A' for Active; 'I' for Inactive)
REMARK    1  A    between atoms: O_2  and  C_3 
REMARK    2  A    between atoms: C_6  and  C_7 
REMARK    3  A    between atoms: C_8  and  C_9 
REMARK    4  A    between atoms: C_9  and  O_10 
REMARK    5  A    between atoms: O_10  and  C_11 
REMARK    6  A    between atoms: C_14  and  C_15 
REMARK    7  A    between atoms: C_17  and  O_18 
REMARK    8  A    between atoms: N_26  and  C_28 
REMARK    9  A    between atoms: C_28  and  C_29 
ROOT
HETATM    1  C   UNL     1     -44.628  59.608 -53.702  1.00  0.00     0.243 C 
HETATM    2  N   UNL     1     -45.118  58.364 -54.331  1.00  0.00    -0.235 NA
HETATM    3  C   UNL     1     -44.608  57.276 -53.888  1.00  0.00     0.173 C 
HETATM    4  C   UNL     1     -43.564  57.183 -52.898  1.00  0.00     0.057 A 
HETATM    5  C   UNL     1     -42.970  58.360 -52.514  1.00  0.00     0.087 A 
HETATM    6  S   UNL     1     -41.718  58.147 -51.394  1.00  0.00    -0.074 SA
HETATM    7  C   UNL     1     -41.942  56.463 -51.402  1.00  0.00     0.018 A 
HETATM    8  C   UNL     1     -42.975  56.058 -52.232  1.00  0.00    -0.024 A 
HETATM    9  C   UNL     1     -43.324  54.607 -52.396  1.00  0.00     0.068 C 
HETATM   10  C   UNL     1     -42.614  53.715 -51.353  1.00  0.00     0.240 C 
HETATM   11  N   UNL     1     -41.163  54.129 -51.123  1.00  0.00    -0.063 N 
HETATM   12  H   UNL     1     -40.784  53.536 -50.378  1.00  0.00     0.280 HD
HETATM   13  C   UNL     1     -41.097  55.553 -50.584  1.00  0.00     0.282 C 
HETATM   14  N   UNL     1     -43.345  59.544 -53.022  1.00  0.00    -0.357 N 
HETATM   15  H   UNL     1     -43.006  60.420 -52.635  1.00  0.00     0.162 HD
ENDROOT
BRANCH   1  16
HETATM   16  C   UNL     1     -44.541  60.759 -54.694  1.00  0.00    -0.014 A 
HETATM   17  C   UNL     1     -43.346  61.496 -54.802  1.00  0.00     0.014 A 
HETATM   18  C   UNL     1     -43.186  62.464 -55.796  1.00  0.00     0.038 A 
HETATM   19  C   UNL     1     -44.228  62.711 -56.684  1.00  0.00     0.079 A 
HETATM   20  C   UNL     1     -45.430  62.008 -56.581  1.00  0.00     0.038 A 
HETATM   21  C   UNL     1     -45.582  61.033 -55.594  1.00  0.00     0.014 A 
BRANCH  19  22
HETATM   22  O   UNL     1     -44.126  63.565 -57.807  1.00  0.00    -0.276 OA
BRANCH  22  23
HETATM   23  C   UNL     1     -43.442  63.259 -58.976  1.00  0.00     0.288 C 
HETATM   24  O   UNL     1     -42.666  63.974 -59.591  1.00  0.00    -0.260 OA
BRANCH  23  25
HETATM   25  C   UNL     1     -43.704  61.856 -59.372  1.00  0.00     0.083 C 
HETATM   26  C   UNL     1     -42.848  60.844 -59.164  1.00  0.00     0.017 C 
BRANCH  26  27
HETATM   27  C   UNL     1     -43.085  59.485 -59.654  1.00  0.00    -0.036 A 
HETATM   28  C   UNL     1     -42.038  58.561 -59.769  1.00  0.00     0.014 A 
HETATM   29  C   UNL     1     -42.291  57.239 -60.152  1.00  0.00     0.037 A 
HETATM   30  C   UNL     1     -43.595  56.825 -60.418  1.00  0.00     0.068 A 
HETATM   31  C   UNL     1     -44.638  57.748 -60.320  1.00  0.00     0.037 A 
HETATM   32  C   UNL     1     -44.390  59.068 -59.931  1.00  0.00     0.014 A 
BRANCH  30  33
HETATM   33  O   UNL     1     -43.979  55.563 -60.780  1.00  0.00    -0.356 OA
HETATM   34  C   UNL     1     -44.380  54.691 -59.729  1.00  0.00     0.210 C 
ENDBRANCH  30  33
ENDBRANCH  26  27
ENDBRANCH  23  25
ENDBRANCH  22  23
ENDBRANCH  19  22
ENDBRANCH   1  16
BRANCH   3  35
HETATM   35  O   UNL     1     -45.057  56.112 -54.390  1.00  0.00    -0.344 OA
HETATM   36  H   UNL     1     -44.515  55.411 -53.983  1.00  0.00     0.219 HD
ENDBRANCH   3  35
BRANCH  11  37
HETATM   37  C   UNL     1     -40.287  53.884 -52.332  1.00  0.00     0.273 C 
BRANCH  37  38
HETATM   38  C   UNL     1     -40.111  52.429 -52.671  1.00  0.00    -0.033 A 
HETATM   39  C   UNL     1     -39.676  51.508 -51.706  1.00  0.00     0.009 A 
HETATM   40  C   UNL     1     -39.487  50.167 -52.047  1.00  0.00     0.001 A 
HETATM   41  C   UNL     1     -39.734  49.735 -53.348  1.00  0.00     0.000 A 
HETATM   42  C   UNL     1     -40.173  50.637 -54.312  1.00  0.00     0.001 A 
HETATM   43  C   UNL     1     -40.361  51.978 -53.978  1.00  0.00     0.009 A 
ENDBRANCH  37  38
ENDBRANCH  11  37
TORSDOF 9
ENDMDL
MODEL 4
REMARK VINA RESULT:      -8.8      5.622     10.871
REMARK  9 active torsions:
REMARK  status: ('A' for Active; 'I' for Inactive)
REMARK    1  A    between atoms: O_2  and  C_3 
REMARK    2  A    between atoms: C_6  and  C_7 
REMARK    3  A    between atoms: C_8  and  C_9 
REMARK    4  A    between atoms: C_9  and  O_10 
REMARK    5  A    between atoms: O_10  and  C_11 
REMARK    6  A    between atoms: C_14  and  C_15 
REMARK    7  A    between atoms: C_17  and  O_18 
REMARK    8  A    between atoms: N_26  and  C_28 
REMARK    9  A    between atoms: C_28  and  C_29 
ROOT
HETATM    1  C   UNL     1     -43.076  55.870 -56.607  1.00  0.00     0.243 C 
HETATM    2  N   UNL     1     -43.407  57.042 -55.771  1.00  0.00    -0.235 NA
HETATM    3  C   UNL     1     -43.369  58.178 -56.360  1.00  0.00     0.173 C 
HETATM    4  C   UNL     1     -42.965  58.400 -57.727  1.00  0.00     0.057 A 
HETATM    5  C   UNL     1     -42.438  57.324 -58.396  1.00  0.00     0.087 A 
HETATM    6  S   UNL     1     -41.939  57.692 -59.972  1.00  0.00    -0.074 SA
HETATM    7  C   UNL     1     -42.416  59.312 -59.789  1.00  0.00     0.018 A 
HETATM    8  C   UNL     1     -42.974  59.575 -58.547  1.00  0.00    -0.024 A 
HETATM    9  C   UNL     1     -43.443  60.951 -58.177  1.00  0.00     0.068 C 
HETATM   10  C   UNL     1     -43.488  61.900 -59.395  1.00  0.00     0.240 C 
HETATM   11  N   UNL     1     -42.283  61.728 -60.314  1.00  0.00    -0.063 N 
HETATM   12  H   UNL     1     -42.418  62.341 -61.124  1.00  0.00     0.280 HD
HETATM   13  C   UNL     1     -42.241  60.312 -60.875  1.00  0.00     0.282 C 
HETATM   14  N   UNL     1     -42.313  56.119 -57.820  1.00  0.00    -0.357 N 
HETATM   15  H   UNL     1     -42.057  55.296 -58.358  1.00  0.00     0.162 HD
ENDROOT
BRANCH   1  16
HETATM   16  C   UNL     1     -42.325  54.800 -55.829  1.00  0.00    -0.014 A 
HETATM   17  C   UNL     1     -40.923  54.869 -55.724  1.00  0.00     0.014 A 
HETATM   18  C   UNL     1     -40.218  53.984 -54.904  1.00  0.00     0.038 A 
HETATM   19  C   UNL     1     -40.913  53.014 -54.190  1.00  0.00     0.079 A 
HETATM   20  C   UNL     1     -42.301  52.912 -54.296  1.00  0.00     0.038 A 
HETATM   21  C   UNL     1     -43.004  53.805 -55.109  1.00  0.00     0.014 A 
BRANCH  19  22
HETATM   22  O   UNL     1     -40.321  52.162 -53.230  1.00  0.00    -0.276 OA
BRANCH  22  23
HETATM   23  C   UNL     1     -40.153  52.474 -51.887  1.00  0.00     0.288 C 
HETATM   24  O   UNL     1     -39.865  51.712 -50.978  1.00  0.00    -0.260 OA
BRANCH  23  25
HETATM   25  C   UNL     1     -40.284  53.935 -51.681  1.00  0.00     0.083 C 
HETATM   26  C   UNL     1     -41.447  54.558 -51.432  1.00  0.00     0.017 C 
BRANCH  26  27
HETATM   27  C   UNL     1     -41.566  56.014 -51.332  1.00  0.00    -0.036 A 
HETATM   28  C   UNL     1     -41.029  56.712 -50.242  1.00  0.00     0.014 A 
HETATM   29  C   UNL     1     -41.069  58.111 -50.201  1.00  0.00     0.037 A 
HETATM   30  C   UNL     1     -41.640  58.826 -51.253  1.00  0.00     0.068 A 
HETATM   31  C   UNL     1     -42.189  58.131 -52.332  1.00  0.00     0.037 A 
HETATM   32  C   UNL     1     -42.145  56.734 -52.380  1.00  0.00     0.014 A 
BRANCH  30  33
HETATM   33  O   UNL     1     -41.724  60.188 -51.345  1.00  0.00    -0.356 OA
HETATM   34  C   UNL     1     -42.610  60.836 -50.440  1.00  0.00     0.210 C 
ENDBRANCH  30  33
ENDBRANCH  26  27
ENDBRANCH  23  25
ENDBRANCH  22  23
ENDBRANCH  19  22
ENDBRANCH   1  16
BRANCH   3  35
HETATM   35  O   UNL     1     -43.713  59.272 -55.657  1.00  0.00    -0.344 OA
HETATM   36  H   UNL     1     -43.045  59.951 -55.865  1.00  0.00     0.219 HD
ENDBRANCH   3  35
BRANCH  11  37
HETATM   37  C   UNL     1     -40.989  62.176 -59.669  1.00  0.00     0.273 C 
BRANCH  37  38
HETATM   38  C   UNL     1     -40.047  62.872 -60.613  1.00  0.00    -0.033 A 
HETATM   39  C   UNL     1     -39.079  63.770 -60.138  1.00  0.00     0.009 A 
HETATM   40  C   UNL     1     -38.233  64.431 -61.032  1.00  0.00     0.001 A 
HETATM   41  C   UNL     1     -38.343  64.198 -62.401  1.00  0.00     0.000 A 
HETATM   42  C   UNL     1     -39.294  63.303 -62.883  1.00  0.00     0.001 A 
HETATM   43  C   UNL     1     -40.143  62.642 -61.995  1.00  0.00     0.009 A 
ENDBRANCH  37  38
ENDBRANCH  11  37
TORSDOF 9
ENDMDL
MODEL 5
REMARK VINA RESULT:      -8.7      4.838      7.703
REMARK  9 active torsions:
REMARK  status: ('A' for Active; 'I' for Inactive)
REMARK    1  A    between atoms: O_2  and  C_3 
REMARK    2  A    between atoms: C_6  and  C_7 
REMARK    3  A    between atoms: C_8  and  C_9 
REMARK    4  A    between atoms: C_9  and  O_10 
REMARK    5  A    between atoms: O_10  and  C_11 
REMARK    6  A    between atoms: C_14  and  C_15 
REMARK    7  A    between atoms: C_17  and  O_18 
REMARK    8  A    between atoms: N_26  and  C_28 
REMARK    9  A    between atoms: C_28  and  C_29 
ROOT
HETATM    1  C   UNL     1     -44.598  61.471 -53.583  1.00  0.00     0.243 C 
HETATM    2  N   UNL     1     -43.223  61.386 -53.048  1.00  0.00    -0.235 NA
HETATM    3  C   UNL     1     -42.625  60.267 -53.218  1.00  0.00     0.173 C 
HETATM    4  C   UNL     1     -43.207  59.089 -53.813  1.00  0.00     0.057 A 
HETATM    5  C   UNL     1     -44.553  59.132 -54.078  1.00  0.00     0.087 A 
HETATM    6  S   UNL     1     -45.158  57.686 -54.721  1.00  0.00    -0.074 SA
HETATM    7  C   UNL     1     -43.621  56.965 -54.652  1.00  0.00     0.018 A 
HETATM    8  C   UNL     1     -42.644  57.819 -54.166  1.00  0.00    -0.024 A 
HETATM    9  C   UNL     1     -41.221  57.369 -54.008  1.00  0.00     0.068 C 
HETATM   10  C   UNL     1     -40.959  56.010 -54.696  1.00  0.00     0.240 C 
HETATM   11  N   UNL     1     -42.099  55.019 -54.484  1.00  0.00    -0.063 N 
HETATM   12  H   UNL     1     -41.881  54.173 -55.020  1.00  0.00     0.280 HD
HETATM   13  C   UNL     1     -43.391  55.561 -55.083  1.00  0.00     0.282 C 
HETATM   14  N   UNL     1     -45.296  60.217 -53.812  1.00  0.00    -0.357 N 
HETATM   15  H   UNL     1     -46.255  60.298 -54.138  1.00  0.00     0.162 HD
ENDROOT
BRANCH   1  16
HETATM   16  C   UNL     1     -45.505  62.324 -52.709  1.00  0.00    -0.014 A 
HETATM   17  C   UNL     1     -45.970  63.564 -53.188  1.00  0.00     0.014 A 
HETATM   18  C   UNL     1     -46.913  64.304 -52.471  1.00  0.00     0.038 A 
HETATM   19  C   UNL     1     -47.389  63.814 -51.260  1.00  0.00     0.079 A 
HETATM   20  C   UNL     1     -46.926  62.598 -50.755  1.00  0.00     0.038 A 
HETATM   21  C   UNL     1     -45.992  61.854 -51.479  1.00  0.00     0.014 A 
BRANCH  19  22
HETATM   22  O   UNL     1     -48.440  64.409 -50.524  1.00  0.00    -0.276 OA
BRANCH  22  23
HETATM   23  C   UNL     1     -49.660  63.805 -50.251  1.00  0.00     0.288 C 
HETATM   24  O   UNL     1     -50.203  63.684 -49.165  1.00  0.00    -0.260 OA
BRANCH  23  25
HETATM   25  C   UNL     1     -50.311  63.376 -51.510  1.00  0.00     0.083 C 
HETATM   26  C   UNL     1     -51.623  63.114 -51.627  1.00  0.00     0.017 C 
BRANCH  26  27
HETATM   27  C   UNL     1     -52.226  62.594 -52.856  1.00  0.00    -0.036 A 
HETATM   28  C   UNL     1     -53.404  63.146 -53.375  1.00  0.00     0.014 A 
HETATM   29  C   UNL     1     -53.922  62.702 -54.598  1.00  0.00     0.037 A 
HETATM   30  C   UNL     1     -53.264  61.706 -55.316  1.00  0.00     0.068 A 
HETATM   31  C   UNL     1     -52.098  61.144 -54.792  1.00  0.00     0.037 A 
HETATM   32  C   UNL     1     -51.574  61.590 -53.575  1.00  0.00     0.014 A 
BRANCH  30  33
HETATM   33  O   UNL     1     -53.651  61.199 -56.526  1.00  0.00    -0.356 OA
HETATM   34  C   UNL     1     -53.435  59.808 -56.734  1.00  0.00     0.210 C 
ENDBRANCH  30  33
ENDBRANCH  26  27
ENDBRANCH  23  25
ENDBRANCH  22  23
ENDBRANCH  19  22
ENDBRANCH   1  16
BRANCH   3  35
HETATM   35  O   UNL     1     -41.354  60.153 -52.796  1.00  0.00    -0.344 OA
HETATM   36  H   UNL     1     -41.394  60.072 -51.825  1.00  0.00     0.219 HD
ENDBRANCH   3  35
BRANCH  11  37
HETATM   37  C   UNL     1     -42.224  54.574 -53.043  1.00  0.00     0.273 C 
BRANCH  37  38
HETATM   38  C   UNL     1     -41.265  53.482 -52.657  1.00  0.00    -0.033 A 
HETATM   39  C   UNL     1     -40.851  53.320 -51.326  1.00  0.00     0.009 A 
HETATM   40  C   UNL     1     -39.934  52.320 -50.991  1.00  0.00     0.001 A 
HETATM   41  C   UNL     1     -39.429  51.475 -51.977  1.00  0.00     0.000 A 
HETATM   42  C   UNL     1     -39.838  51.622 -53.299  1.00  0.00     0.001 A 
HETATM   43  C   UNL     1     -40.751  52.620 -53.640  1.00  0.00     0.009 A 
ENDBRANCH  37  38
ENDBRANCH  11  37
TORSDOF 9
ENDMDL
MODEL 6
REMARK VINA RESULT:      -8.7      6.598     10.913
REMARK  9 active torsions:
REMARK  status: ('A' for Active; 'I' for Inactive)
REMARK    1  A    between atoms: O_2  and  C_3 
REMARK    2  A    between atoms: C_6  and  C_7 
REMARK    3  A    between atoms: C_8  and  C_9 
REMARK    4  A    between atoms: C_9  and  O_10 
REMARK    5  A    between atoms: O_10  and  C_11 
REMARK    6  A    between atoms: C_14  and  C_15 
REMARK    7  A    between atoms: C_17  and  O_18 
REMARK    8  A    between atoms: N_26  and  C_28 
REMARK    9  A    between atoms: C_28  and  C_29 
ROOT
HETATM    1  C   UNL     1     -43.120  61.479 -55.617  1.00  0.00     0.243 C 
HETATM    2  N   UNL     1     -44.472  60.911 -55.435  1.00  0.00    -0.235 NA
HETATM    3  C   UNL     1     -44.569  59.962 -54.581  1.00  0.00     0.173 C 
HETATM    4  C   UNL     1     -43.471  59.372 -53.857  1.00  0.00     0.057 A 
HETATM    5  C   UNL     1     -42.207  59.760 -54.227  1.00  0.00     0.087 A 
HETATM    6  S   UNL     1     -40.982  58.973 -53.363  1.00  0.00    -0.074 SA
HETATM    7  C   UNL     1     -42.125  58.085 -52.473  1.00  0.00     0.018 A 
HETATM    8  C   UNL     1     -43.433  58.395 -52.808  1.00  0.00    -0.024 A 
HETATM    9  C   UNL     1     -44.593  57.708 -52.150  1.00  0.00     0.068 C 
HETATM   10  C   UNL     1     -44.159  56.878 -50.921  1.00  0.00     0.240 C 
HETATM   11  N   UNL     1     -42.859  56.118 -51.160  1.00  0.00    -0.063 N 
HETATM   12  H   UNL     1     -42.606  55.648 -50.284  1.00  0.00     0.280 HD
HETATM   13  C   UNL     1     -41.720  57.090 -51.444  1.00  0.00     0.282 C 
HETATM   14  N   UNL     1     -41.996  60.654 -55.205  1.00  0.00    -0.357 N 
HETATM   15  H   UNL     1     -41.075  61.044 -55.379  1.00  0.00     0.162 HD
ENDROOT
BRANCH   1  16
HETATM   16  C   UNL     1     -42.856  61.891 -57.058  1.00  0.00    -0.014 A 
HETATM   17  C   UNL     1     -41.553  61.795 -57.582  1.00  0.00     0.014 A 
HETATM   18  C   UNL     1     -41.304  62.032 -58.936  1.00  0.00     0.038 A 
HETATM   19  C   UNL     1     -42.359  62.378 -59.775  1.00  0.00     0.079 A 
HETATM   20  C   UNL     1     -43.655  62.500 -59.272  1.00  0.00     0.038 A 
HETATM   21  C   UNL     1     -43.903  62.253 -57.920  1.00  0.00     0.014 A 
BRANCH  19  22
HETATM   22  O   UNL     1     -42.245  62.503 -61.179  1.00  0.00    -0.276 OA
BRANCH  22  23
HETATM   23  C   UNL     1     -42.180  61.438 -62.068  1.00  0.00     0.288 C 
HETATM   24  O   UNL     1     -42.093  61.491 -63.285  1.00  0.00    -0.260 OA
BRANCH  23  25
HETATM   25  C   UNL     1     -42.134  60.155 -61.329  1.00  0.00     0.083 C 
HETATM   26  C   UNL     1     -43.221  59.511 -60.874  1.00  0.00     0.017 C 
BRANCH  26  27
HETATM   27  C   UNL     1     -43.145  58.297 -60.059  1.00  0.00    -0.036 A 
HETATM   28  C   UNL     1     -42.486  58.293 -58.822  1.00  0.00     0.014 A 
HETATM   29  C   UNL     1     -42.498  57.153 -58.010  1.00  0.00     0.037 A 
HETATM   30  C   UNL     1     -43.174  56.006 -58.424  1.00  0.00     0.068 A 
HETATM   31  C   UNL     1     -43.817  56.003 -59.664  1.00  0.00     0.037 A 
HETATM   32  C   UNL     1     -43.814  57.143 -60.474  1.00  0.00     0.014 A 
BRANCH  30  33
HETATM   33  O   UNL     1     -43.279  54.838 -57.721  1.00  0.00    -0.356 OA
HETATM   34  C   UNL     1     -42.929  54.889 -56.343  1.00  0.00     0.210 C 
ENDBRANCH  30  33
ENDBRANCH  26  27
ENDBRANCH  23  25
ENDBRANCH  22  23
ENDBRANCH  19  22
ENDBRANCH   1  16
BRANCH   3  35
HETATM   35  O   UNL     1     -45.787  59.445 -54.340  1.00  0.00    -0.344 OA
HETATM   36  H   UNL     1     -45.773  58.536 -54.692  1.00  0.00     0.219 HD
ENDBRANCH   3  35
BRANCH  11  37
HETATM   37  C   UNL     1     -43.006  55.019 -52.190  1.00  0.00     0.273 C 
BRANCH  37  38
HETATM   38  C   UNL     1     -41.913  53.986 -52.140  1.00  0.00    -0.033 A 
HETATM   39  C   UNL     1     -41.412  53.522 -50.914  1.00  0.00     0.009 A 
HETATM   40  C   UNL     1     -40.376  52.586 -50.887  1.00  0.00     0.001 A 
HETATM   41  C   UNL     1     -39.836  52.105 -52.078  1.00  0.00     0.000 A 
HETATM   42  C   UNL     1     -40.330  52.553 -53.299  1.00  0.00     0.001 A 
HETATM   43  C   UNL     1     -41.363  53.489 -53.333  1.00  0.00     0.009 A 
ENDBRANCH  37  38
ENDBRANCH  11  37
TORSDOF 9
ENDMDL
MODEL 7
REMARK VINA RESULT:      -8.4      7.990     12.024
REMARK  9 active torsions:
REMARK  status: ('A' for Active; 'I' for Inactive)
REMARK    1  A    between atoms: O_2  and  C_3 
REMARK    2  A    between atoms: C_6  and  C_7 
REMARK    3  A    between atoms: C_8  and  C_9 
REMARK    4  A    between atoms: C_9  and  O_10 
REMARK    5  A    between atoms: O_10  and  C_11 
REMARK    6  A    between atoms: C_14  and  C_15 
REMARK    7  A    between atoms: C_17  and  O_18 
REMARK    8  A    between atoms: N_26  and  C_28 
REMARK    9  A    between atoms: C_28  and  C_29 
ROOT
HETATM    1  C   UNL     1     -43.089  58.518 -57.124  1.00  0.00     0.243 C 
HETATM    2  N   UNL     1     -43.443  57.114 -57.421  1.00  0.00    -0.235 NA
HETATM    3  C   UNL     1     -43.268  56.280 -56.466  1.00  0.00     0.173 C 
HETATM    4  C   UNL     1     -42.695  56.588 -55.179  1.00  0.00     0.057 A 
HETATM    5  C   UNL     1     -42.159  57.842 -55.026  1.00  0.00     0.087 A 
HETATM    6  S   UNL     1     -41.459  58.094 -53.505  1.00  0.00    -0.074 SA
HETATM    7  C   UNL     1     -41.855  56.515 -53.017  1.00  0.00     0.018 A 
HETATM    8  C   UNL     1     -42.536  55.802 -53.991  1.00  0.00    -0.024 A 
HETATM    9  C   UNL     1     -42.961  54.380 -53.766  1.00  0.00     0.068 C 
HETATM   10  C   UNL     1     -42.806  53.952 -52.289  1.00  0.00     0.240 C 
HETATM   11  N   UNL     1     -41.514  54.469 -51.664  1.00  0.00    -0.063 N 
HETATM   12  H   UNL     1     -41.517  54.200 -50.675  1.00  0.00     0.280 HD
HETATM   13  C   UNL     1     -41.494  55.993 -51.672  1.00  0.00     0.282 C 
HETATM   14  N   UNL     1     -42.176  58.748 -56.016  1.00  0.00    -0.357 N 
HETATM   15  H   UNL     1     -41.910  59.715 -55.856  1.00  0.00     0.162 HD
ENDROOT
BRANCH   1  16
HETATM   16  C   UNL     1     -42.500  59.232 -58.332  1.00  0.00    -0.014 A 
HETATM   17  C   UNL     1     -42.394  58.552 -59.560  1.00  0.00     0.014 A 
HETATM   18  C   UNL     1     -41.989  59.220 -60.719  1.00  0.00     0.038 A 
HETATM   19  C   UNL     1     -41.676  60.573 -60.653  1.00  0.00     0.079 A 
HETATM   20  C   UNL     1     -41.752  61.262 -59.442  1.00  0.00     0.038 A 
HETATM   21  C   UNL     1     -42.168  60.595 -58.287  1.00  0.00     0.014 A 
BRANCH  19  22
HETATM   22  O   UNL     1     -41.391  61.375 -61.783  1.00  0.00    -0.276 OA
BRANCH  22  23
HETATM   23  C   UNL     1     -42.296  62.228 -62.400  1.00  0.00     0.288 C 
HETATM   24  O   UNL     1     -42.095  63.366 -62.794  1.00  0.00    -0.260 OA
BRANCH  23  25
HETATM   25  C   UNL     1     -43.586  61.534 -62.620  1.00  0.00     0.083 C 
HETATM   26  C   UNL     1     -44.616  61.570 -61.761  1.00  0.00     0.017 C 
BRANCH  26  27
HETATM   27  C   UNL     1     -45.843  60.794 -61.953  1.00  0.00    -0.036 A 
HETATM   28  C   UNL     1     -46.619  60.939 -63.110  1.00  0.00     0.014 A 
HETATM   29  C   UNL     1     -47.739  60.127 -63.325  1.00  0.00     0.037 A 
HETATM   30  C   UNL     1     -48.091  59.158 -62.387  1.00  0.00     0.068 A 
HETATM   31  C   UNL     1     -47.328  59.024 -61.225  1.00  0.00     0.037 A 
HETATM   32  C   UNL     1     -46.204  59.827 -61.011  1.00  0.00     0.014 A 
BRANCH  30  33
HETATM   33  O   UNL     1     -49.145  58.291 -62.484  1.00  0.00    -0.356 OA
HETATM   34  C   UNL     1     -48.856  56.911 -62.290  1.00  0.00     0.210 C 
ENDBRANCH  30  33
ENDBRANCH  26  27
ENDBRANCH  23  25
ENDBRANCH  22  23
ENDBRANCH  19  22
ENDBRANCH   1  16
BRANCH   3  35
HETATM   35  O   UNL     1     -43.623  54.998 -56.668  1.00  0.00    -0.344 OA
HETATM   36  H   UNL     1     -43.563  54.846 -57.629  1.00  0.00     0.219 HD
ENDBRANCH   3  35
BRANCH  11  37
HETATM   37  C   UNL     1     -40.280  53.831 -52.263  1.00  0.00     0.273 C 
BRANCH  37  38
HETATM   38  C   UNL     1     -40.082  52.394 -51.863  1.00  0.00    -0.033 A 
HETATM   39  C   UNL     1     -39.698  51.427 -52.805  1.00  0.00     0.009 A 
HETATM   40  C   UNL     1     -39.550  50.092 -52.422  1.00  0.00     0.001 A 
HETATM   41  C   UNL     1     -39.779  49.713 -51.100  1.00  0.00     0.000 A 
HETATM   42  C   UNL     1     -40.152  50.665 -50.156  1.00  0.00     0.001 A 
HETATM   43  C   UNL     1     -40.304  51.999 -50.533  1.00  0.00     0.009 A 
ENDBRANCH  37  38
ENDBRANCH  11  37
TORSDOF 9
ENDMDL
MODEL 8
REMARK VINA RESULT:      -8.4      3.637     11.595
REMARK  9 active torsions:
REMARK  status: ('A' for Active; 'I' for Inactive)
REMARK    1  A    between atoms: O_2  and  C_3 
REMARK    2  A    between atoms: C_6  and  C_7 
REMARK    3  A    between atoms: C_8  and  C_9 
REMARK    4  A    between atoms: C_9  and  O_10 
REMARK    5  A    between atoms: O_10  and  C_11 
REMARK    6  A    between atoms: C_14  and  C_15 
REMARK    7  A    between atoms: C_17  and  O_18 
REMARK    8  A    between atoms: N_26  and  C_28 
REMARK    9  A    between atoms: C_28  and  C_29 
ROOT
HETATM    1  C   UNL     1     -44.514  61.509 -53.911  1.00  0.00     0.243 C 
HETATM    2  N   UNL     1     -45.968  61.441 -53.658  1.00  0.00    -0.235 NA
HETATM    3  C   UNL     1     -46.370  61.970 -52.563  1.00  0.00     0.173 C 
HETATM    4  C   UNL     1     -45.521  62.545 -51.549  1.00  0.00     0.057 A 
HETATM    5  C   UNL     1     -44.168  62.375 -51.708  1.00  0.00     0.087 A 
HETATM    6  S   UNL     1     -43.255  63.033 -50.443  1.00  0.00    -0.074 SA
HETATM    7  C   UNL     1     -44.661  63.557 -49.646  1.00  0.00     0.018 A 
HETATM    8  C   UNL     1     -45.822  63.258 -50.343  1.00  0.00    -0.024 A 
HETATM    9  C   UNL     1     -47.174  63.620 -49.801  1.00  0.00     0.068 C 
HETATM   10  C   UNL     1     -47.081  64.570 -48.587  1.00  0.00     0.240 C 
HETATM   11  N   UNL     1     -45.955  64.187 -47.631  1.00  0.00    -0.063 N 
HETATM   12  H   UNL     1     -45.918  64.896 -46.892  1.00  0.00     0.280 HD
HETATM   13  C   UNL     1     -44.608  64.265 -48.340  1.00  0.00     0.282 C 
HETATM   14  N   UNL     1     -43.652  61.719 -52.759  1.00  0.00    -0.357 N 
HETATM   15  H   UNL     1     -42.654  61.718 -52.947  1.00  0.00     0.162 HD
ENDROOT
BRANCH   1  16
HETATM   16  C   UNL     1     -43.995  60.271 -54.627  1.00  0.00    -0.014 A 
HETATM   17  C   UNL     1     -44.903  59.293 -55.074  1.00  0.00     0.014 A 
HETATM   18  C   UNL     1     -44.473  58.217 -55.855  1.00  0.00     0.038 A 
HETATM   19  C   UNL     1     -43.126  58.105 -56.183  1.00  0.00     0.079 A 
HETATM   20  C   UNL     1     -42.205  59.052 -55.732  1.00  0.00     0.038 A 
HETATM   21  C   UNL     1     -42.639  60.132 -54.961  1.00  0.00     0.014 A 
BRANCH  19  22
HETATM   22  O   UNL     1     -42.607  57.140 -57.077  1.00  0.00    -0.276 OA
BRANCH  22  23
HETATM   23  C   UNL     1     -42.865  55.778 -57.012  1.00  0.00     0.288 C 
HETATM   24  O   UNL     1     -43.466  55.096 -57.828  1.00  0.00    -0.260 OA
BRANCH  23  25
HETATM   25  C   UNL     1     -42.218  55.189 -55.817  1.00  0.00     0.083 C 
HETATM   26  C   UNL     1     -42.861  54.447 -54.902  1.00  0.00     0.017 C 
BRANCH  26  27
HETATM   27  C   UNL     1     -42.222  53.961 -53.678  1.00  0.00    -0.036 A 
HETATM   28  C   UNL     1     -40.988  53.299 -53.717  1.00  0.00     0.014 A 
HETATM   29  C   UNL     1     -40.343  52.920 -52.533  1.00  0.00     0.037 A 
HETATM   30  C   UNL     1     -40.923  53.204 -51.298  1.00  0.00     0.068 A 
HETATM   31  C   UNL     1     -42.161  53.850 -51.258  1.00  0.00     0.037 A 
HETATM   32  C   UNL     1     -42.804  54.237 -52.438  1.00  0.00     0.014 A 
BRANCH  30  33
HETATM   33  O   UNL     1     -40.391  52.908 -50.074  1.00  0.00    -0.356 OA
HETATM   34  C   UNL     1     -39.967  54.008 -49.278  1.00  0.00     0.210 C 
ENDBRANCH  30  33
ENDBRANCH  26  27
ENDBRANCH  23  25
ENDBRANCH  22  23
ENDBRANCH  19  22
ENDBRANCH   1  16
BRANCH   3  35
HETATM   35  O   UNL     1     -47.691  61.980 -52.309  1.00  0.00    -0.344 OA
HETATM   36  H   UNL     1     -48.051  62.762 -52.767  1.00  0.00     0.219 HD
ENDBRANCH   3  35
BRANCH  11  37
HETATM   37  C   UNL     1     -46.209  62.871 -46.927  1.00  0.00     0.273 C 
BRANCH  37  38
HETATM   38  C   UNL     1     -45.395  62.683 -45.677  1.00  0.00    -0.033 A 
HETATM   39  C   UNL     1     -45.183  63.745 -44.784  1.00  0.00     0.009 A 
HETATM   40  C   UNL     1     -44.398  63.559 -43.644  1.00  0.00     0.001 A 
HETATM   41  C   UNL     1     -43.824  62.316 -43.384  1.00  0.00     0.000 A 
HETATM   42  C   UNL     1     -44.033  61.254 -44.258  1.00  0.00     0.001 A 
HETATM   43  C   UNL     1     -44.814  61.434 -45.400  1.00  0.00     0.009 A 
ENDBRANCH  37  38
ENDBRANCH  11  37
TORSDOF 9
ENDMDL
MODEL 9
REMARK VINA RESULT:      -8.2      6.073      9.224
REMARK  9 active torsions:
REMARK  status: ('A' for Active; 'I' for Inactive)
REMARK    1  A    between atoms: O_2  and  C_3 
REMARK    2  A    between atoms: C_6  and  C_7 
REMARK    3  A    between atoms: C_8  and  C_9 
REMARK    4  A    between atoms: C_9  and  O_10 
REMARK    5  A    between atoms: O_10  and  C_11 
REMARK    6  A    between atoms: C_14  and  C_15 
REMARK    7  A    between atoms: C_17  and  O_18 
REMARK    8  A    between atoms: N_26  and  C_28 
REMARK    9  A    between atoms: C_28  and  C_29 
ROOT
HETATM    1  C   UNL     1     -45.417  61.611 -53.959  1.00  0.00     0.243 C 
HETATM    2  N   UNL     1     -44.364  61.646 -52.923  1.00  0.00    -0.235 NA
HETATM    3  C   UNL     1     -43.671  60.577 -52.795  1.00  0.00     0.173 C 
HETATM    4  C   UNL     1     -43.887  59.347 -53.517  1.00  0.00     0.057 A 
HETATM    5  C   UNL     1     -45.018  59.277 -54.292  1.00  0.00     0.087 A 
HETATM    6  S   UNL     1     -45.217  57.778 -55.055  1.00  0.00    -0.074 SA
HETATM    7  C   UNL     1     -43.786  57.186 -54.356  1.00  0.00     0.018 A 
HETATM    8  C   UNL     1     -43.143  58.123 -53.563  1.00  0.00    -0.024 A 
HETATM    9  C   UNL     1     -41.870  57.793 -52.839  1.00  0.00     0.068 C 
HETATM   10  C   UNL     1     -41.264  56.451 -53.307  1.00  0.00     0.240 C 
HETATM   11  N   UNL     1     -42.323  55.373 -53.516  1.00  0.00    -0.063 N 
HETATM   12  H   UNL     1     -41.852  54.541 -53.885  1.00  0.00     0.280 HD
HETATM   13  C   UNL     1     -43.307  55.799 -54.599  1.00  0.00     0.282 C 
HETATM   14  N   UNL     1     -45.879  60.301 -54.388  1.00  0.00    -0.357 N 
HETATM   15  H   UNL     1     -46.634  60.299 -55.068  1.00  0.00     0.162 HD
ENDROOT
BRANCH   1  16
HETATM   16  C   UNL     1     -46.653  62.399 -53.551  1.00  0.00    -0.014 A 
HETATM   17  C   UNL     1     -47.445  63.014 -54.539  1.00  0.00     0.014 A 
HETATM   18  C   UNL     1     -48.658  63.624 -54.212  1.00  0.00     0.038 A 
HETATM   19  C   UNL     1     -49.083  63.634 -52.887  1.00  0.00     0.079 A 
HETATM   20  C   UNL     1     -48.303  63.050 -51.888  1.00  0.00     0.038 A 
HETATM   21  C   UNL     1     -47.096  62.430 -52.220  1.00  0.00     0.014 A 
BRANCH  19  22
HETATM   22  O   UNL     1     -50.351  64.098 -52.466  1.00  0.00    -0.276 OA
BRANCH  22  23
HETATM   23  C   UNL     1     -51.405  63.283 -52.076  1.00  0.00     0.288 C 
HETATM   24  O   UNL     1     -51.751  63.010 -50.938  1.00  0.00    -0.260 OA
BRANCH  23  25
HETATM   25  C   UNL     1     -52.164  62.825 -53.263  1.00  0.00     0.083 C 
HETATM   26  C   UNL     1     -52.128  61.571 -53.740  1.00  0.00     0.017 C 
BRANCH  26  27
HETATM   27  C   UNL     1     -52.808  61.167 -54.973  1.00  0.00    -0.036 A 
HETATM   28  C   UNL     1     -54.013  61.763 -55.366  1.00  0.00     0.014 A 
HETATM   29  C   UNL     1     -54.606  61.434 -56.590  1.00  0.00     0.037 A 
HETATM   30  C   UNL     1     -53.996  60.510 -57.437  1.00  0.00     0.068 A 
HETATM   31  C   UNL     1     -52.804  59.903 -57.040  1.00  0.00     0.037 A 
HETATM   32  C   UNL     1     -52.204  60.234 -55.821  1.00  0.00     0.014 A 
BRANCH  30  33
HETATM   33  O   UNL     1     -54.459  60.118 -58.663  1.00  0.00    -0.356 OA
HETATM   34  C   UNL     1     -53.730  59.088 -59.321  1.00  0.00     0.210 C 
ENDBRANCH  30  33
ENDBRANCH  26  27
ENDBRANCH  23  25
ENDBRANCH  22  23
ENDBRANCH  19  22
ENDBRANCH   1  16
BRANCH   3  35
HETATM   35  O   UNL     1     -42.666  60.573 -51.901  1.00  0.00    -0.344 OA
HETATM   36  H   UNL     1     -42.116  61.353 -52.105  1.00  0.00     0.219 HD
ENDBRANCH   3  35
BRANCH  11  37
HETATM   37  C   UNL     1     -42.977  54.939 -52.222  1.00  0.00     0.273 C 
BRANCH  37  38
HETATM   38  C   UNL     1     -42.001  54.515 -51.159  1.00  0.00    -0.033 A 
HETATM   39  C   UNL     1     -41.926  55.195 -49.933  1.00  0.00     0.009 A 
HETATM   40  C   UNL     1     -40.992  54.807 -48.970  1.00  0.00     0.001 A 
HETATM   41  C   UNL     1     -40.131  53.740 -49.219  1.00  0.00     0.000 A 
HETATM   42  C   UNL     1     -40.201  53.054 -50.428  1.00  0.00     0.001 A 
HETATM   43  C   UNL     1     -41.130  53.438 -51.395  1.00  0.00     0.009 A 
ENDBRANCH  37  38
ENDBRANCH  11  37
TORSDOF 9
ENDMDL
MODEL 10
REMARK VINA RESULT:      -8.2      3.709      5.458
REMARK  9 active torsions:
REMARK  status: ('A' for Active; 'I' for Inactive)
REMARK    1  A    between atoms: O_2  and  C_3 
REMARK    2  A    between atoms: C_6  and  C_7 
REMARK    3  A    between atoms: C_8  and  C_9 
REMARK    4  A    between atoms: C_9  and  O_10 
REMARK    5  A    between atoms: O_10  and  C_11 
REMARK    6  A    between atoms: C_14  and  C_15 
REMARK    7  A    between atoms: C_17  and  O_18 
REMARK    8  A    between atoms: N_26  and  C_28 
REMARK    9  A    between atoms: C_28  and  C_29 
ROOT
HETATM    1  C   UNL     1     -45.185  60.244 -49.766  1.00  0.00     0.243 C 
HETATM    2  N   UNL     1     -46.098  60.652 -50.854  1.00  0.00    -0.235 NA
HETATM    3  C   UNL     1     -45.783  60.249 -52.028  1.00  0.00     0.173 C 
HETATM    4  C   UNL     1     -44.592  59.510 -52.369  1.00  0.00     0.057 A 
HETATM    5  C   UNL     1     -43.655  59.359 -51.377  1.00  0.00     0.087 A 
HETATM    6  S   UNL     1     -42.268  58.529 -51.884  1.00  0.00    -0.074 SA
HETATM    7  C   UNL     1     -42.895  58.359 -53.454  1.00  0.00     0.018 A 
HETATM    8  C   UNL     1     -44.160  58.906 -53.595  1.00  0.00    -0.024 A 
HETATM    9  C   UNL     1     -44.883  58.877 -54.910  1.00  0.00     0.068 C 
HETATM   10  C   UNL     1     -44.191  57.952 -55.935  1.00  0.00     0.240 C 
HETATM   11  N   UNL     1     -42.671  58.079 -55.904  1.00  0.00    -0.063 N 
HETATM   12  H   UNL     1     -42.286  57.393 -56.561  1.00  0.00     0.280 HD
HETATM   13  C   UNL     1     -42.133  57.680 -54.536  1.00  0.00     0.282 C 
HETATM   14  N   UNL     1     -43.835  59.860 -50.146  1.00  0.00    -0.357 N 
HETATM   15  H   UNL     1     -43.211  59.626 -49.380  1.00  0.00     0.162 HD
ENDROOT
BRANCH   1  16
HETATM   16  C   UNL     1     -45.051  61.316 -48.695  1.00  0.00    -0.014 A 
HETATM   17  C   UNL     1     -44.726  62.635 -49.065  1.00  0.00     0.014 A 
HETATM   18  C   UNL     1     -44.732  63.668 -48.125  1.00  0.00     0.038 A 
HETATM   19  C   UNL     1     -45.052  63.386 -46.801  1.00  0.00     0.079 A 
HETATM   20  C   UNL     1     -45.356  62.081 -46.407  1.00  0.00     0.038 A 
HETATM   21  C   UNL     1     -45.360  61.053 -47.351  1.00  0.00     0.014 A 
BRANCH  19  22
HETATM   22  O   UNL     1     -45.224  64.371 -45.801  1.00  0.00    -0.276 OA
BRANCH  22  23
HETATM   23  C   UNL     1     -46.417  64.634 -45.142  1.00  0.00     0.288 C 
HETATM   24  O   UNL     1     -47.522  64.782 -45.639  1.00  0.00    -0.260 OA
BRANCH  23  25
HETATM   25  C   UNL     1     -46.206  64.627 -43.676  1.00  0.00     0.083 C 
HETATM   26  C   UNL     1     -45.176  64.018 -43.068  1.00  0.00     0.017 C 
BRANCH  26  27
HETATM   27  C   UNL     1     -45.044  63.939 -41.612  1.00  0.00    -0.036 A 
HETATM   28  C   UNL     1     -46.148  63.658 -40.797  1.00  0.00     0.014 A 
HETATM   29  C   UNL     1     -45.993  63.495 -39.415  1.00  0.00     0.037 A 
HETATM   30  C   UNL     1     -44.731  63.605 -38.835  1.00  0.00     0.068 A 
HETATM   31  C   UNL     1     -43.631  63.900 -39.644  1.00  0.00     0.037 A 
HETATM   32  C   UNL     1     -43.781  64.056 -41.025  1.00  0.00     0.014 A 
BRANCH  30  33
HETATM   33  O   UNL     1     -44.441  63.449 -37.507  1.00  0.00    -0.356 OA
HETATM   34  C   UNL     1     -44.582  62.138 -36.973  1.00  0.00     0.210 C 
ENDBRANCH  30  33
ENDBRANCH  26  27
ENDBRANCH  23  25
ENDBRANCH  22  23
ENDBRANCH  19  22
ENDBRANCH   1  16
BRANCH   3  35
HETATM   35  O   UNL     1     -46.608  60.549 -53.047  1.00  0.00    -0.344 OA
HETATM   36  H   UNL     1     -46.302  60.025 -53.810  1.00  0.00     0.219 HD
ENDBRANCH   3  35
BRANCH  11  37
HETATM   37  C   UNL     1     -42.189  59.430 -56.388  1.00  0.00     0.273 C 
BRANCH  37  38
HETATM   38  C   UNL     1     -42.184  59.574 -57.886  1.00  0.00    -0.033 A 
HETATM   39  C   UNL     1     -42.019  58.458 -58.720  1.00  0.00     0.009 A 
HETATM   40  C   UNL     1     -41.986  58.616 -60.107  1.00  0.00     0.001 A 
HETATM   41  C   UNL     1     -42.121  59.882 -60.671  1.00  0.00     0.000 A 
HETATM   42  C   UNL     1     -42.293  60.996 -59.854  1.00  0.00     0.001 A 
HETATM   43  C   UNL     1     -42.324  60.845 -58.468  1.00  0.00     0.009 A 
ENDBRANCH  37  38
ENDBRANCH  11  37
TORSDOF 9
ENDMDL
