MODEL 1
REMARK VINA RESULT:      -7.7      0.000      0.000
REMARK  6 active torsions:
REMARK  status: ('A' for Active; 'I' for Inactive)
REMARK    1  A    between atoms: C_6  and  C_7 
REMARK    2  A    between atoms: N_8  and  N_9 
REMARK       I    between atoms: N_9  and  C_10 
REMARK    3  A    between atoms: C_10  and  C_11 
REMARK    4  A    between atoms: C_14  and  O_15 
REMARK    5  A    between atoms: O_15  and  C_16 
REMARK    6  A    between atoms: C_16  and  C_17 
ROOT
HETATM    1  C   UNL     1     -43.770  58.692 -54.642  1.00  0.00     0.217 C 
HETATM    2  N   UNL     1     -42.680  59.586 -54.234  1.00  0.00    -0.247 N 
HETATM    3  C   UNL     1     -42.878  60.343 -53.072  1.00  0.00     0.272 C 
HETATM    4  O   UNL     1     -42.199  61.299 -52.718  1.00  0.00    -0.266 OA
HETATM    5  C   UNL     1     -43.967  59.878 -52.178  1.00  0.00     0.054 A 
HETATM    6  C   UNL     1     -44.499  58.602 -52.409  1.00  0.00     0.026 A 
HETATM    7  N   UNL     1     -44.048  57.811 -53.500  1.00  0.00    -0.265 NA
HETATM    8  C   UNL     1     -44.365  60.632 -51.071  1.00  0.00     0.019 A 
HETATM    9  C   UNL     1     -45.291  60.097 -50.175  1.00  0.00     0.001 A 
HETATM   10  C   UNL     1     -45.790  58.808 -50.374  1.00  0.00     0.002 A 
HETATM   11  C   UNL     1     -45.382  58.055 -51.478  1.00  0.00     0.024 A 
HETATM   12  H   UNL     1     -43.166  57.383 -53.220  1.00  0.00     0.130 HD
ENDROOT
BRANCH   2  13
HETATM   13  N   UNL     1     -41.319  59.107 -54.504  1.00  0.00    -0.163 NA
HETATM   14  C   UNL     1     -40.565  58.710 -53.408  1.00  0.00     0.249 C 
HETATM   15  O   UNL     1     -39.577  59.346 -53.052  1.00  0.00    -0.272 OA
HETATM   16  H   UNL     1     -40.781  59.836 -54.971  1.00  0.00     0.156 HD
BRANCH  14  17
HETATM   17  C   UNL     1     -40.882  57.427 -52.755  1.00  0.00     0.028 A 
HETATM   18  C   UNL     1     -40.840  56.236 -53.487  1.00  0.00     0.019 A 
HETATM   19  C   UNL     1     -41.121  55.027 -52.848  1.00  0.00     0.038 A 
HETATM   20  C   UNL     1     -41.453  54.999 -51.490  1.00  0.00     0.069 A 
HETATM   21  C   UNL     1     -41.463  56.191 -50.757  1.00  0.00     0.038 A 
HETATM   22  C   UNL     1     -41.163  57.404 -51.386  1.00  0.00     0.019 A 
BRANCH  20  23
HETATM   23  O   UNL     1     -41.724  53.753 -50.993  1.00  0.00    -0.348 OA
BRANCH  23  24
HETATM   24  C   UNL     1     -40.784  53.221 -50.060  1.00  0.00     0.202 C 
BRANCH  24  25
HETATM   25  C   UNL     1     -40.280  51.924 -50.621  1.00  0.00    -0.011 C 
HETATM   26  C   UNL     1     -39.628  51.796 -51.785  1.00  0.00     0.009 C 
ENDBRANCH  24  25
ENDBRANCH  23  24
ENDBRANCH  20  23
ENDBRANCH  14  17
ENDBRANCH   2  13
BRANCH   1  27
HETATM   27  C   UNL     1     -43.580  57.913 -55.945  1.00  0.00    -0.014 A 
HETATM   28  C   UNL     1     -43.851  58.500 -57.206  1.00  0.00    -0.052 A 
HETATM   29  C   UNL     1     -43.686  57.735 -58.380  1.00  0.00     0.014 A 
HETATM   30  C   UNL     1     -44.292  59.931 -57.364  1.00  0.00     0.049 C 
HETATM   31  C   UNL     1     -43.294  56.394 -58.333  1.00  0.00    -0.061 A 
HETATM   32  C   UNL     1     -43.204  55.580 -59.590  1.00  0.00     0.048 C 
HETATM   33  C   UNL     1     -43.065  55.805 -57.093  1.00  0.00     0.007 A 
HETATM   34  C   UNL     1     -43.198  56.554 -55.922  1.00  0.00     0.011 A 
ENDBRANCH   1  27
TORSDOF 6
ENDMDL
MODEL 2
REMARK VINA RESULT:      -7.5      2.016      5.749
REMARK  6 active torsions:
REMARK  status: ('A' for Active; 'I' for Inactive)
REMARK    1  A    between atoms: C_6  and  C_7 
REMARK    2  A    between atoms: N_8  and  N_9 
REMARK       I    between atoms: N_9  and  C_10 
REMARK    3  A    between atoms: C_10  and  C_11 
REMARK    4  A    between atoms: C_14  and  O_15 
REMARK    5  A    between atoms: O_15  and  C_16 
REMARK    6  A    between atoms: C_16  and  C_17 
ROOT
HETATM    1  C   UNL     1     -42.357  56.338 -54.954  1.00  0.00     0.217 C 
HETATM    2  N   UNL     1     -41.873  57.024 -53.751  1.00  0.00    -0.247 N 
HETATM    3  C   UNL     1     -41.381  56.221 -52.714  1.00  0.00     0.272 C 
HETATM    4  O   UNL     1     -41.164  56.590 -51.566  1.00  0.00    -0.266 OA
HETATM    5  C   UNL     1     -41.035  54.827 -53.087  1.00  0.00     0.054 A 
HETATM    6  C   UNL     1     -40.954  54.520 -54.452  1.00  0.00     0.026 A 
HETATM    7  N   UNL     1     -41.254  55.498 -55.438  1.00  0.00    -0.265 NA
HETATM    8  C   UNL     1     -40.682  53.886 -52.117  1.00  0.00     0.019 A 
HETATM    9  C   UNL     1     -40.226  52.629 -52.516  1.00  0.00     0.001 A 
HETATM   10  C   UNL     1     -40.099  52.333 -53.875  1.00  0.00     0.002 A 
HETATM   11  C   UNL     1     -40.445  53.281 -54.841  1.00  0.00     0.024 A 
HETATM   12  H   UNL     1     -40.432  56.094 -55.533  1.00  0.00     0.130 HD
ENDROOT
BRANCH   2  13
HETATM   13  N   UNL     1     -41.220  58.322 -53.967  1.00  0.00    -0.163 NA
HETATM   14  C   UNL     1     -42.034  59.446 -53.932  1.00  0.00     0.249 C 
HETATM   15  O   UNL     1     -42.244  60.111 -54.943  1.00  0.00    -0.272 OA
HETATM   16  H   UNL     1     -40.761  58.331 -54.877  1.00  0.00     0.156 HD
BRANCH  14  17
HETATM   17  C   UNL     1     -42.535  59.919 -52.628  1.00  0.00     0.028 A 
HETATM   18  C   UNL     1     -43.889  60.225 -52.464  1.00  0.00     0.019 A 
HETATM   19  C   UNL     1     -44.352  60.649 -51.217  1.00  0.00     0.038 A 
HETATM   20  C   UNL     1     -43.472  60.780 -50.139  1.00  0.00     0.069 A 
HETATM   21  C   UNL     1     -42.125  60.443 -50.302  1.00  0.00     0.038 A 
HETATM   22  C   UNL     1     -41.658  59.998 -51.543  1.00  0.00     0.019 A 
BRANCH  20  23
HETATM   23  O   UNL     1     -44.051  61.223 -48.979  1.00  0.00    -0.348 OA
BRANCH  23  24
HETATM   24  C   UNL     1     -45.431  60.913 -48.798  1.00  0.00     0.202 C 
BRANCH  24  25
HETATM   25  C   UNL     1     -45.660  60.729 -47.326  1.00  0.00    -0.011 C 
HETATM   26  C   UNL     1     -44.777  61.045 -46.370  1.00  0.00     0.009 C 
ENDBRANCH  24  25
ENDBRANCH  23  24
ENDBRANCH  20  23
ENDBRANCH  14  17
ENDBRANCH   2  13
BRANCH   1  27
HETATM   27  C   UNL     1     -42.953  57.211 -56.061  1.00  0.00    -0.014 A 
HETATM   28  C   UNL     1     -44.267  57.732 -55.967  1.00  0.00    -0.052 A 
HETATM   29  C   UNL     1     -44.784  58.512 -57.024  1.00  0.00     0.014 A 
HETATM   30  C   UNL     1     -45.150  57.514 -54.767  1.00  0.00     0.049 C 
HETATM   31  C   UNL     1     -44.044  58.757 -58.184  1.00  0.00    -0.061 A 
HETATM   32  C   UNL     1     -44.647  59.520 -59.326  1.00  0.00     0.048 C 
HETATM   33  C   UNL     1     -42.768  58.214 -58.294  1.00  0.00     0.007 A 
HETATM   34  C   UNL     1     -42.230  57.461 -57.247  1.00  0.00     0.011 A 
ENDBRANCH   1  27
TORSDOF 6
ENDMDL
MODEL 3
REMARK VINA RESULT:      -7.4      2.073      3.242
REMARK  6 active torsions:
REMARK  status: ('A' for Active; 'I' for Inactive)
REMARK    1  A    between atoms: C_6  and  C_7 
REMARK    2  A    between atoms: N_8  and  N_9 
REMARK       I    between atoms: N_9  and  C_10 
REMARK    3  A    between atoms: C_10  and  C_11 
REMARK    4  A    between atoms: C_14  and  O_15 
REMARK    5  A    between atoms: O_15  and  C_16 
REMARK    6  A    between atoms: C_16  and  C_17 
ROOT
HETATM    1  C   UNL     1     -43.664  58.504 -54.435  1.00  0.00     0.217 C 
HETATM    2  N   UNL     1     -43.158  57.382 -53.636  1.00  0.00    -0.247 N 
HETATM    3  C   UNL     1     -42.438  57.698 -52.477  1.00  0.00     0.272 C 
HETATM    4  O   UNL     1     -41.747  56.920 -51.829  1.00  0.00    -0.266 OA
HETATM    5  C   UNL     1     -42.603  59.085 -51.973  1.00  0.00     0.054 A 
HETATM    6  C   UNL     1     -43.650  59.850 -52.507  1.00  0.00     0.026 A 
HETATM    7  N   UNL     1     -44.480  59.331 -53.536  1.00  0.00    -0.265 NA
HETATM    8  C   UNL     1     -41.825  59.569 -50.919  1.00  0.00     0.019 A 
HETATM    9  C   UNL     1     -42.106  60.824 -50.381  1.00  0.00     0.001 A 
HETATM   10  C   UNL     1     -43.176  61.572 -50.877  1.00  0.00     0.002 A 
HETATM   11  C   UNL     1     -43.957  61.079 -51.925  1.00  0.00     0.024 A 
HETATM   12  H   UNL     1     -45.166  58.719 -53.093  1.00  0.00     0.130 HD
ENDROOT
BRANCH   2  13
HETATM   13  N   UNL     1     -44.005  56.184 -53.599  1.00  0.00    -0.163 NA
HETATM   14  C   UNL     1     -43.523  55.055 -54.248  1.00  0.00     0.249 C 
HETATM   15  O   UNL     1     -44.069  54.621 -55.259  1.00  0.00    -0.272 OA
HETATM   16  H   UNL     1     -44.912  56.387 -54.016  1.00  0.00     0.156 HD
BRANCH  14  17
HETATM   17  C   UNL     1     -42.424  54.293 -53.627  1.00  0.00     0.028 A 
HETATM   18  C   UNL     1     -42.450  54.012 -52.258  1.00  0.00     0.019 A 
HETATM   19  C   UNL     1     -41.413  53.270 -51.690  1.00  0.00     0.038 A 
HETATM   20  C   UNL     1     -40.348  52.816 -52.474  1.00  0.00     0.069 A 
HETATM   21  C   UNL     1     -40.345  53.074 -53.849  1.00  0.00     0.038 A 
HETATM   22  C   UNL     1     -41.391  53.801 -54.429  1.00  0.00     0.019 A 
BRANCH  20  23
HETATM   23  O   UNL     1     -39.390  52.117 -51.790  1.00  0.00    -0.348 OA
BRANCH  23  24
HETATM   24  C   UNL     1     -39.856  51.182 -50.819  1.00  0.00     0.202 C 
BRANCH  24  25
HETATM   25  C   UNL     1     -39.592  49.807 -51.357  1.00  0.00    -0.011 C 
HETATM   26  C   UNL     1     -39.609  49.478 -52.656  1.00  0.00     0.009 C 
ENDBRANCH  24  25
ENDBRANCH  23  24
ENDBRANCH  20  23
ENDBRANCH  14  17
ENDBRANCH   2  13
BRANCH   1  27
HETATM   27  C   UNL     1     -44.395  58.160 -55.734  1.00  0.00    -0.014 A 
HETATM   28  C   UNL     1     -43.701  57.669 -56.867  1.00  0.00    -0.052 A 
HETATM   29  C   UNL     1     -44.413  57.389 -58.052  1.00  0.00     0.014 A 
HETATM   30  C   UNL     1     -42.218  57.403 -56.866  1.00  0.00     0.049 C 
HETATM   31  C   UNL     1     -45.788  57.616 -58.153  1.00  0.00    -0.061 A 
HETATM   32  C   UNL     1     -46.507  57.387 -59.450  1.00  0.00     0.048 C 
HETATM   33  C   UNL     1     -46.464  58.135 -57.053  1.00  0.00     0.007 A 
HETATM   34  C   UNL     1     -45.781  58.395 -55.864  1.00  0.00     0.011 A 
ENDBRANCH   1  27
TORSDOF 6
ENDMDL
MODEL 4
REMARK VINA RESULT:      -7.4      2.645      7.634
REMARK  6 active torsions:
REMARK  status: ('A' for Active; 'I' for Inactive)
REMARK    1  A    between atoms: C_6  and  C_7 
REMARK    2  A    between atoms: N_8  and  N_9 
REMARK       I    between atoms: N_9  and  C_10 
REMARK    3  A    between atoms: C_10  and  C_11 
REMARK    4  A    between atoms: C_14  and  O_15 
REMARK    5  A    between atoms: O_15  and  C_16 
REMARK    6  A    between atoms: C_16  and  C_17 
ROOT
HETATM    1  C   UNL     1     -41.996  55.935 -52.662  1.00  0.00     0.217 C 
HETATM    2  N   UNL     1     -42.170  55.554 -54.068  1.00  0.00    -0.247 N 
HETATM    3  C   UNL     1     -41.379  54.501 -54.546  1.00  0.00     0.272 C 
HETATM    4  O   UNL     1     -41.213  54.209 -55.725  1.00  0.00    -0.266 OA
HETATM    5  C   UNL     1     -40.759  53.638 -53.509  1.00  0.00     0.054 A 
HETATM    6  C   UNL     1     -41.230  53.762 -52.195  1.00  0.00     0.026 A 
HETATM    7  N   UNL     1     -42.221  54.724 -51.863  1.00  0.00    -0.265 NA
HETATM    8  C   UNL     1     -39.830  52.653 -53.850  1.00  0.00     0.019 A 
HETATM    9  C   UNL     1     -39.377  51.770 -52.869  1.00  0.00     0.001 A 
HETATM   10  C   UNL     1     -39.876  51.858 -51.568  1.00  0.00     0.002 A 
HETATM   11  C   UNL     1     -40.813  52.840 -51.235  1.00  0.00     0.024 A 
HETATM   12  H   UNL     1     -43.124  54.336 -52.139  1.00  0.00     0.130 HD
ENDROOT
BRANCH   2  13
HETATM   13  N   UNL     1     -43.531  55.673 -54.605  1.00  0.00    -0.163 NA
HETATM   14  C   UNL     1     -43.876  56.892 -55.174  1.00  0.00     0.249 C 
HETATM   15  O   UNL     1     -44.713  57.624 -54.650  1.00  0.00    -0.272 OA
HETATM   16  H   UNL     1     -44.211  55.500 -53.866  1.00  0.00     0.156 HD
BRANCH  14  17
HETATM   17  C   UNL     1     -43.328  57.239 -56.497  1.00  0.00     0.028 A 
HETATM   18  C   UNL     1     -42.674  58.459 -56.690  1.00  0.00     0.019 A 
HETATM   19  C   UNL     1     -42.140  58.762 -57.944  1.00  0.00     0.038 A 
HETATM   20  C   UNL     1     -42.264  57.862 -59.007  1.00  0.00     0.069 A 
HETATM   21  C   UNL     1     -42.892  56.630 -58.799  1.00  0.00     0.038 A 
HETATM   22  C   UNL     1     -43.412  56.311 -57.540  1.00  0.00     0.019 A 
BRANCH  20  23
HETATM   23  O   UNL     1     -41.713  58.289 -60.185  1.00  0.00    -0.348 OA
BRANCH  23  24
HETATM   24  C   UNL     1     -42.515  59.158 -60.985  1.00  0.00     0.202 C 
BRANCH  24  25
HETATM   25  C   UNL     1     -41.702  60.388 -61.264  1.00  0.00    -0.011 C 
HETATM   26  C   UNL     1     -41.566  61.422 -60.423  1.00  0.00     0.009 C 
ENDBRANCH  24  25
ENDBRANCH  23  24
ENDBRANCH  20  23
ENDBRANCH  14  17
ENDBRANCH   2  13
BRANCH   1  27
HETATM   27  C   UNL     1     -42.813  57.126 -52.157  1.00  0.00    -0.014 A 
HETATM   28  C   UNL     1     -42.369  58.459 -52.339  1.00  0.00    -0.052 A 
HETATM   29  C   UNL     1     -43.143  59.526 -51.834  1.00  0.00     0.014 A 
HETATM   30  C   UNL     1     -41.101  58.806 -53.076  1.00  0.00     0.049 C 
HETATM   31  C   UNL     1     -44.326  59.302 -51.125  1.00  0.00    -0.061 A 
HETATM   32  C   UNL     1     -45.087  60.449 -50.529  1.00  0.00     0.048 C 
HETATM   33  C   UNL     1     -44.743  57.992 -50.913  1.00  0.00     0.007 A 
HETATM   34  C   UNL     1     -44.003  56.924 -51.427  1.00  0.00     0.011 A 
ENDBRANCH   1  27
TORSDOF 6
ENDMDL
MODEL 5
REMARK VINA RESULT:      -7.3      2.041      5.445
REMARK  6 active torsions:
REMARK  status: ('A' for Active; 'I' for Inactive)
REMARK    1  A    between atoms: C_6  and  C_7 
REMARK    2  A    between atoms: N_8  and  N_9 
REMARK       I    between atoms: N_9  and  C_10 
REMARK    3  A    between atoms: C_10  and  C_11 
REMARK    4  A    between atoms: C_14  and  O_15 
REMARK    5  A    between atoms: O_15  and  C_16 
REMARK    6  A    between atoms: C_16  and  C_17 
ROOT
HETATM    1  C   UNL     1     -43.968  58.870 -55.273  1.00  0.00     0.217 C 
HETATM    2  N   UNL     1     -43.127  57.694 -55.521  1.00  0.00    -0.247 N 
HETATM    3  C   UNL     1     -43.396  56.951 -56.678  1.00  0.00     0.272 C 
HETATM    4  O   UNL     1     -42.971  55.828 -56.921  1.00  0.00    -0.266 OA
HETATM    5  C   UNL     1     -44.211  57.638 -57.711  1.00  0.00     0.054 A 
HETATM    6  C   UNL     1     -44.393  59.022 -57.580  1.00  0.00     0.026 A 
HETATM    7  N   UNL     1     -43.866  59.724 -56.464  1.00  0.00    -0.265 NA
HETATM    8  C   UNL     1     -44.675  56.956 -58.838  1.00  0.00     0.019 A 
HETATM    9  C   UNL     1     -45.314  57.666 -59.854  1.00  0.00     0.001 A 
HETATM   10  C   UNL     1     -45.459  59.052 -59.751  1.00  0.00     0.002 A 
HETATM   11  C   UNL     1     -44.984  59.731 -58.626  1.00  0.00     0.024 A 
HETATM   12  H   UNL     1     -42.875  59.882 -56.645  1.00  0.00     0.130 HD
ENDROOT
BRANCH   2  13
HETATM   13  N   UNL     1     -41.725  57.803 -55.099  1.00  0.00    -0.163 NA
HETATM   14  C   UNL     1     -41.366  57.133 -53.937  1.00  0.00     0.249 C 
HETATM   15  O   UNL     1     -41.045  57.747 -52.923  1.00  0.00    -0.272 OA
HETATM   16  H   UNL     1     -41.483  58.781 -54.951  1.00  0.00     0.156 HD
BRANCH  14  17
HETATM   17  C   UNL     1     -41.237  55.665 -53.974  1.00  0.00     0.028 A 
HETATM   18  C   UNL     1     -40.267  55.065 -54.782  1.00  0.00     0.019 A 
HETATM   19  C   UNL     1     -40.143  53.674 -54.789  1.00  0.00     0.038 A 
HETATM   20  C   UNL     1     -40.985  52.880 -54.004  1.00  0.00     0.069 A 
HETATM   21  C   UNL     1     -41.932  53.490 -53.174  1.00  0.00     0.038 A 
HETATM   22  C   UNL     1     -42.049  54.883 -53.148  1.00  0.00     0.019 A 
BRANCH  20  23
HETATM   23  O   UNL     1     -40.770  51.533 -54.117  1.00  0.00    -0.348 OA
BRANCH  23  24
HETATM   24  C   UNL     1     -39.482  51.059 -53.727  1.00  0.00     0.202 C 
BRANCH  24  25
HETATM   25  C   UNL     1     -39.445  51.046 -52.227  1.00  0.00    -0.011 C 
HETATM   26  C   UNL     1     -39.585  49.950 -51.468  1.00  0.00     0.009 C 
ENDBRANCH  24  25
ENDBRANCH  23  24
ENDBRANCH  20  23
ENDBRANCH  14  17
ENDBRANCH   2  13
BRANCH   1  27
HETATM   27  C   UNL     1     -43.717  59.645 -53.977  1.00  0.00    -0.014 A 
HETATM   28  C   UNL     1     -44.119  59.134 -52.719  1.00  0.00    -0.052 A 
HETATM   29  C   UNL     1     -43.889  59.895 -51.553  1.00  0.00     0.014 A 
HETATM   30  C   UNL     1     -44.772  57.787 -52.553  1.00  0.00     0.049 C 
HETATM   31  C   UNL     1     -43.303  61.163 -51.608  1.00  0.00    -0.061 A 
HETATM   32  C   UNL     1     -43.143  61.985 -50.363  1.00  0.00     0.048 C 
HETATM   33  C   UNL     1     -42.941  61.681 -52.847  1.00  0.00     0.007 A 
HETATM   34  C   UNL     1     -43.138  60.932 -54.010  1.00  0.00     0.011 A 
ENDBRANCH   1  27
TORSDOF 6
ENDMDL
MODEL 6
REMARK VINA RESULT:      -7.1      2.120      6.723
REMARK  6 active torsions:
REMARK  status: ('A' for Active; 'I' for Inactive)
REMARK    1  A    between atoms: C_6  and  C_7 
REMARK    2  A    between atoms: N_8  and  N_9 
REMARK       I    between atoms: N_9  and  C_10 
REMARK    3  A    between atoms: C_10  and  C_11 
REMARK    4  A    between atoms: C_14  and  O_15 
REMARK    5  A    between atoms: O_15  and  C_16 
REMARK    6  A    between atoms: C_16  and  C_17 
ROOT
HETATM    1  C   UNL     1     -42.623  55.893 -55.939  1.00  0.00     0.217 C 
HETATM    2  N   UNL     1     -43.651  56.772 -55.371  1.00  0.00    -0.247 N 
HETATM    3  C   UNL     1     -44.242  57.704 -56.234  1.00  0.00     0.272 C 
HETATM    4  O   UNL     1     -44.926  58.661 -55.893  1.00  0.00    -0.266 OA
HETATM    5  C   UNL     1     -44.064  57.442 -57.684  1.00  0.00     0.054 A 
HETATM    6  C   UNL     1     -43.590  56.179 -58.063  1.00  0.00     0.026 A 
HETATM    7  N   UNL     1     -43.235  55.210 -57.087  1.00  0.00    -0.265 NA
HETATM    8  C   UNL     1     -44.470  58.374 -58.642  1.00  0.00     0.019 A 
HETATM    9  C   UNL     1     -44.419  58.034 -59.994  1.00  0.00     0.001 A 
HETATM   10  C   UNL     1     -43.990  56.761 -60.376  1.00  0.00     0.002 A 
HETATM   11  C   UNL     1     -43.594  55.829 -59.414  1.00  0.00     0.024 A 
HETATM   12  H   UNL     1     -44.100  54.778 -56.762  1.00  0.00     0.130 HD
ENDROOT
BRANCH   2  13
HETATM   13  N   UNL     1     -44.503  56.181 -54.332  1.00  0.00    -0.163 NA
HETATM   14  C   UNL     1     -44.092  56.344 -53.016  1.00  0.00     0.249 C 
HETATM   15  O   UNL     1     -43.717  55.388 -52.343  1.00  0.00    -0.272 OA
HETATM   16  H   UNL     1     -44.585  55.176 -54.482  1.00  0.00     0.156 HD
BRANCH  14  17
HETATM   17  C   UNL     1     -44.246  57.667 -52.383  1.00  0.00     0.028 A 
HETATM   18  C   UNL     1     -45.187  57.855 -51.366  1.00  0.00     0.019 A 
HETATM   19  C   UNL     1     -45.304  59.108 -50.762  1.00  0.00     0.038 A 
HETATM   20  C   UNL     1     -44.499  60.175 -51.172  1.00  0.00     0.069 A 
HETATM   21  C   UNL     1     -43.538  59.971 -52.168  1.00  0.00     0.038 A 
HETATM   22  C   UNL     1     -43.402  58.713 -52.765  1.00  0.00     0.019 A 
BRANCH  20  23
HETATM   23  O   UNL     1     -44.728  61.352 -50.511  1.00  0.00    -0.348 OA
BRANCH  23  24
HETATM   24  C   UNL     1     -44.366  61.389 -49.132  1.00  0.00     0.202 C 
BRANCH  24  25
HETATM   25  C   UNL     1     -45.182  62.468 -48.483  1.00  0.00    -0.011 C 
HETATM   26  C   UNL     1     -46.265  62.255 -47.723  1.00  0.00     0.009 C 
ENDBRANCH  24  25
ENDBRANCH  23  24
ENDBRANCH  20  23
ENDBRANCH  14  17
ENDBRANCH   2  13
BRANCH   1  27
HETATM   27  C   UNL     1     -41.933  54.919 -54.982  1.00  0.00    -0.014 A 
HETATM   28  C   UNL     1     -40.962  55.359 -54.050  1.00  0.00    -0.052 A 
HETATM   29  C   UNL     1     -40.333  54.421 -53.204  1.00  0.00     0.014 A 
HETATM   30  C   UNL     1     -40.574  56.806 -53.895  1.00  0.00     0.049 C 
HETATM   31  C   UNL     1     -40.618  53.055 -53.284  1.00  0.00    -0.061 A 
HETATM   32  C   UNL     1     -39.877  52.070 -52.430  1.00  0.00     0.048 C 
HETATM   33  C   UNL     1     -41.544  52.617 -54.225  1.00  0.00     0.007 A 
HETATM   34  C   UNL     1     -42.195  53.534 -55.054  1.00  0.00     0.011 A 
ENDBRANCH   1  27
TORSDOF 6
ENDMDL
MODEL 7
REMARK VINA RESULT:      -7.0      2.361      6.223
REMARK  6 active torsions:
REMARK  status: ('A' for Active; 'I' for Inactive)
REMARK    1  A    between atoms: C_6  and  C_7 
REMARK    2  A    between atoms: N_8  and  N_9 
REMARK       I    between atoms: N_9  and  C_10 
REMARK    3  A    between atoms: C_10  and  C_11 
REMARK    4  A    between atoms: C_14  and  O_15 
REMARK    5  A    between atoms: O_15  and  C_16 
REMARK    6  A    between atoms: C_16  and  C_17 
ROOT
HETATM    1  C   UNL     1     -43.506  57.360 -51.905  1.00  0.00     0.217 C 
HETATM    2  N   UNL     1     -43.416  57.847 -53.286  1.00  0.00    -0.247 N 
HETATM    3  C   UNL     1     -44.331  58.834 -53.675  1.00  0.00     0.272 C 
HETATM    4  O   UNL     1     -44.562  59.181 -54.827  1.00  0.00    -0.266 OA
HETATM    5  C   UNL     1     -45.012  59.553 -52.569  1.00  0.00     0.054 A 
HETATM    6  C   UNL     1     -44.494  59.398 -51.276  1.00  0.00     0.026 A 
HETATM    7  N   UNL     1     -43.393  58.535 -51.031  1.00  0.00    -0.265 NA
HETATM    8  C   UNL     1     -46.055  60.447 -52.823  1.00  0.00     0.019 A 
HETATM    9  C   UNL     1     -46.574  61.209 -51.776  1.00  0.00     0.001 A 
HETATM   10  C   UNL     1     -46.031  61.094 -50.494  1.00  0.00     0.002 A 
HETATM   11  C   UNL     1     -44.982  60.204 -50.248  1.00  0.00     0.024 A 
HETATM   12  H   UNL     1     -42.547  59.038 -51.300  1.00  0.00     0.130 HD
ENDROOT
BRANCH   2  13
HETATM   13  N   UNL     1     -42.066  57.917 -53.859  1.00  0.00    -0.163 NA
HETATM   14  C   UNL     1     -41.680  56.869 -54.685  1.00  0.00     0.249 C 
HETATM   15  O   UNL     1     -40.797  56.085 -54.347  1.00  0.00    -0.272 OA
HETATM   16  H   UNL     1     -41.374  57.960 -53.111  1.00  0.00     0.156 HD
BRANCH  14  17
HETATM   17  C   UNL     1     -42.248  56.790 -56.042  1.00  0.00     0.028 A 
HETATM   18  C   UNL     1     -42.739  55.575 -56.529  1.00  0.00     0.019 A 
HETATM   19  C   UNL     1     -43.294  55.522 -57.809  1.00  0.00     0.038 A 
HETATM   20  C   UNL     1     -43.354  56.668 -58.608  1.00  0.00     0.069 A 
HETATM   21  C   UNL     1     -42.889  57.886 -58.102  1.00  0.00     0.038 A 
HETATM   22  C   UNL     1     -42.349  57.951 -56.814  1.00  0.00     0.019 A 
BRANCH  20  23
HETATM   23  O   UNL     1     -43.904  56.474 -59.846  1.00  0.00    -0.348 OA
BRANCH  23  24
HETATM   24  C   UNL     1     -45.066  55.647 -59.905  1.00  0.00     0.202 C 
BRANCH  24  25
HETATM   25  C   UNL     1     -46.262  56.547 -59.800  1.00  0.00    -0.011 C 
HETATM   26  C   UNL     1     -46.328  57.792 -60.291  1.00  0.00     0.009 C 
ENDBRANCH  24  25
ENDBRANCH  23  24
ENDBRANCH  20  23
ENDBRANCH  14  17
ENDBRANCH   2  13
BRANCH   1  27
HETATM   27  C   UNL     1     -42.548  56.238 -51.499  1.00  0.00    -0.014 A 
HETATM   28  C   UNL     1     -42.717  54.913 -51.971  1.00  0.00    -0.052 A 
HETATM   29  C   UNL     1     -41.823  53.905 -51.550  1.00  0.00     0.014 A 
HETATM   30  C   UNL     1     -43.806  54.520 -52.935  1.00  0.00     0.049 C 
HETATM   31  C   UNL     1     -40.790  54.170 -50.647  1.00  0.00    -0.061 A 
HETATM   32  C   UNL     1     -39.905  53.065 -50.153  1.00  0.00     0.048 C 
HETATM   33  C   UNL     1     -40.647  55.463 -50.154  1.00  0.00     0.007 A 
HETATM   34  C   UNL     1     -41.506  56.479 -50.578  1.00  0.00     0.011 A 
ENDBRANCH   1  27
TORSDOF 6
ENDMDL
MODEL 8
REMARK VINA RESULT:      -7.0      2.854      7.833
REMARK  6 active torsions:
REMARK  status: ('A' for Active; 'I' for Inactive)
REMARK    1  A    between atoms: C_6  and  C_7 
REMARK    2  A    between atoms: N_8  and  N_9 
REMARK       I    between atoms: N_9  and  C_10 
REMARK    3  A    between atoms: C_10  and  C_11 
REMARK    4  A    between atoms: C_14  and  O_15 
REMARK    5  A    between atoms: O_15  and  C_16 
REMARK    6  A    between atoms: C_16  and  C_17 
ROOT
HETATM    1  C   UNL     1     -42.570  56.623 -53.172  1.00  0.00     0.217 C 
HETATM    2  N   UNL     1     -42.875  56.405 -54.591  1.00  0.00    -0.247 N 
HETATM    3  C   UNL     1     -42.122  55.433 -55.263  1.00  0.00     0.272 C 
HETATM    4  O   UNL     1     -42.068  55.285 -56.478  1.00  0.00    -0.266 OA
HETATM    5  C   UNL     1     -41.395  54.470 -54.399  1.00  0.00     0.054 A 
HETATM    6  C   UNL     1     -41.737  54.428 -53.040  1.00  0.00     0.026 A 
HETATM    7  N   UNL     1     -42.703  55.321 -52.504  1.00  0.00    -0.265 NA
HETATM    8  C   UNL     1     -40.491  53.553 -54.941  1.00  0.00     0.019 A 
HETATM    9  C   UNL     1     -39.935  52.572 -54.119  1.00  0.00     0.001 A 
HETATM   10  C   UNL     1     -40.306  52.496 -52.775  1.00  0.00     0.002 A 
HETATM   11  C   UNL     1     -41.218  53.410 -52.241  1.00  0.00     0.024 A 
HETATM   12  H   UNL     1     -43.623  54.948 -52.737  1.00  0.00     0.130 HD
ENDROOT
BRANCH   2  13
HETATM   13  N   UNL     1     -44.283  56.554 -54.977  1.00  0.00    -0.163 NA
HETATM   14  C   UNL     1     -44.661  57.780 -55.510  1.00  0.00     0.249 C 
HETATM   15  O   UNL     1     -45.419  58.531 -54.902  1.00  0.00    -0.272 OA
HETATM   16  H   UNL     1     -44.883  56.398 -54.168  1.00  0.00     0.156 HD
BRANCH  14  17
HETATM   17  C   UNL     1     -44.251  58.112 -56.887  1.00  0.00     0.028 A 
HETATM   18  C   UNL     1     -45.039  57.714 -57.970  1.00  0.00     0.019 A 
HETATM   19  C   UNL     1     -44.649  58.056 -59.266  1.00  0.00     0.038 A 
HETATM   20  C   UNL     1     -43.476  58.783 -59.488  1.00  0.00     0.069 A 
HETATM   21  C   UNL     1     -42.709  59.205 -58.397  1.00  0.00     0.038 A 
HETATM   22  C   UNL     1     -43.104  58.883 -57.095  1.00  0.00     0.019 A 
BRANCH  20  23
HETATM   23  O   UNL     1     -43.200  59.036 -60.805  1.00  0.00    -0.348 OA
BRANCH  23  24
HETATM   24  C   UNL     1     -43.870  60.149 -61.394  1.00  0.00     0.202 C 
BRANCH  24  25
HETATM   25  C   UNL     1     -42.908  61.300 -61.398  1.00  0.00    -0.011 C 
HETATM   26  C   UNL     1     -41.970  61.510 -62.332  1.00  0.00     0.009 C 
ENDBRANCH  24  25
ENDBRANCH  23  24
ENDBRANCH  20  23
ENDBRANCH  14  17
ENDBRANCH   2  13
BRANCH   1  27
HETATM   27  C   UNL     1     -43.348  57.728 -52.454  1.00  0.00    -0.014 A 
HETATM   28  C   UNL     1     -42.948  59.084 -52.530  1.00  0.00    -0.052 A 
HETATM   29  C   UNL     1     -43.681  60.067 -51.831  1.00  0.00     0.014 A 
HETATM   30  C   UNL     1     -41.773  59.546 -53.351  1.00  0.00     0.049 C 
HETATM   31  C   UNL     1     -44.778  59.733 -51.032  1.00  0.00    -0.061 A 
HETATM   32  C   UNL     1     -45.491  60.785 -50.235  1.00  0.00     0.048 C 
HETATM   33  C   UNL     1     -45.149  58.396 -50.926  1.00  0.00     0.007 A 
HETATM   34  C   UNL     1     -44.450  57.413 -51.631  1.00  0.00     0.011 A 
ENDBRANCH   1  27
TORSDOF 6
ENDMDL
MODEL 9
REMARK VINA RESULT:      -6.8     17.107     20.127
REMARK  6 active torsions:
REMARK  status: ('A' for Active; 'I' for Inactive)
REMARK    1  A    between atoms: C_6  and  C_7 
REMARK    2  A    between atoms: N_8  and  N_9 
REMARK       I    between atoms: N_9  and  C_10 
REMARK    3  A    between atoms: C_10  and  C_11 
REMARK    4  A    between atoms: C_14  and  O_15 
REMARK    5  A    between atoms: O_15  and  C_16 
REMARK    6  A    between atoms: C_16  and  C_17 
ROOT
HETATM    1  C   UNL     1     -34.816  38.865 -51.392  1.00  0.00     0.217 C 
HETATM    2  N   UNL     1     -34.127  40.156 -51.282  1.00  0.00    -0.247 N 
HETATM    3  C   UNL     1     -33.007  40.352 -52.101  1.00  0.00     0.272 C 
HETATM    4  O   UNL     1     -32.180  41.248 -51.978  1.00  0.00    -0.266 OA
HETATM    5  C   UNL     1     -32.878  39.422 -53.250  1.00  0.00     0.054 A 
HETATM    6  C   UNL     1     -33.993  38.640 -53.582  1.00  0.00     0.026 A 
HETATM    7  N   UNL     1     -35.180  38.696 -52.805  1.00  0.00    -0.265 NA
HETATM    8  C   UNL     1     -31.732  39.414 -54.048  1.00  0.00     0.019 A 
HETATM    9  C   UNL     1     -31.704  38.629 -55.201  1.00  0.00     0.001 A 
HETATM   10  C   UNL     1     -32.828  37.883 -55.562  1.00  0.00     0.002 A 
HETATM   11  C   UNL     1     -33.976  37.902 -54.766  1.00  0.00     0.024 A 
HETATM   12  H   UNL     1     -35.692  39.530 -53.093  1.00  0.00     0.130 HD
ENDROOT
BRANCH   2  13
HETATM   13  N   UNL     1     -34.979  41.321 -51.014  1.00  0.00    -0.163 NA
HETATM   14  C   UNL     1     -35.109  42.252 -52.036  1.00  0.00     0.249 C 
HETATM   15  O   UNL     1     -34.639  43.382 -51.929  1.00  0.00    -0.272 OA
HETATM   16  H   UNL     1     -34.625  41.831 -50.206  1.00  0.00     0.156 HD
BRANCH  14  17
HETATM   17  C   UNL     1     -35.944  41.914 -53.203  1.00  0.00     0.028 A 
HETATM   18  C   UNL     1     -37.244  41.435 -53.022  1.00  0.00     0.019 A 
HETATM   19  C   UNL     1     -38.030  41.141 -54.138  1.00  0.00     0.038 A 
HETATM   20  C   UNL     1     -37.524  41.314 -55.430  1.00  0.00     0.069 A 
HETATM   21  C   UNL     1     -36.234  41.824 -55.603  1.00  0.00     0.038 A 
HETATM   22  C   UNL     1     -35.447  42.138 -54.490  1.00  0.00     0.019 A 
BRANCH  20  23
HETATM   23  O   UNL     1     -38.391  40.972 -56.433  1.00  0.00    -0.348 OA
BRANCH  23  24
HETATM   24  C   UNL     1     -37.893  40.079 -57.428  1.00  0.00     0.202 C 
BRANCH  24  25
HETATM   25  C   UNL     1     -38.050  40.756 -58.758  1.00  0.00    -0.011 C 
HETATM   26  C   UNL     1     -37.291  41.771 -59.193  1.00  0.00     0.009 C 
ENDBRANCH  24  25
ENDBRANCH  23  24
ENDBRANCH  20  23
ENDBRANCH  14  17
ENDBRANCH   2  13
BRANCH   1  27
HETATM   27  C   UNL     1     -36.000  38.626 -50.453  1.00  0.00    -0.014 A 
HETATM   28  C   UNL     1     -35.810  38.333 -49.080  1.00  0.00    -0.052 A 
HETATM   29  C   UNL     1     -36.931  38.095 -48.257  1.00  0.00     0.014 A 
HETATM   30  C   UNL     1     -34.450  38.283 -48.435  1.00  0.00     0.049 C 
HETATM   31  C   UNL     1     -38.232  38.106 -48.768  1.00  0.00    -0.061 A 
HETATM   32  C   UNL     1     -39.400  37.770 -47.889  1.00  0.00     0.048 C 
HETATM   33  C   UNL     1     -38.418  38.356 -50.124  1.00  0.00     0.007 A 
HETATM   34  C   UNL     1     -37.322  38.619 -50.949  1.00  0.00     0.011 A 
ENDBRANCH   1  27
TORSDOF 6
ENDMDL
MODEL 10
REMARK VINA RESULT:      -6.7      2.188      7.429
REMARK  6 active torsions:
REMARK  status: ('A' for Active; 'I' for Inactive)
REMARK    1  A    between atoms: C_6  and  C_7 
REMARK    2  A    between atoms: N_8  and  N_9 
REMARK       I    between atoms: N_9  and  C_10 
REMARK    3  A    between atoms: C_10  and  C_11 
REMARK    4  A    between atoms: C_14  and  O_15 
REMARK    5  A    between atoms: O_15  and  C_16 
REMARK    6  A    between atoms: C_16  and  C_17 
ROOT
HETATM    1  C   UNL     1     -42.695  56.495 -53.742  1.00  0.00     0.217 C 
HETATM    2  N   UNL     1     -43.808  57.449 -53.687  1.00  0.00    -0.247 N 
HETATM    3  C   UNL     1     -44.191  58.052 -54.892  1.00  0.00     0.272 C 
HETATM    4  O   UNL     1     -44.920  59.032 -55.002  1.00  0.00    -0.266 OA
HETATM    5  C   UNL     1     -43.715  57.383 -56.128  1.00  0.00     0.054 A 
HETATM    6  C   UNL     1     -43.188  56.090 -56.005  1.00  0.00     0.026 A 
HETATM    7  N   UNL     1     -43.060  55.472 -54.732  1.00  0.00    -0.265 NA
HETATM    8  C   UNL     1     -43.898  57.967 -57.384  1.00  0.00     0.019 A 
HETATM    9  C   UNL     1     -43.567  57.246 -58.530  1.00  0.00     0.001 A 
HETATM   10  C   UNL     1     -43.084  55.940 -58.417  1.00  0.00     0.002 A 
HETATM   11  C   UNL     1     -42.912  55.356 -57.160  1.00  0.00     0.024 A 
HETATM   12  H   UNL     1     -43.980  55.112 -54.477  1.00  0.00     0.130 HD
ENDROOT
BRANCH   2  13
HETATM   13  N   UNL     1     -44.868  57.148 -52.717  1.00  0.00    -0.163 NA
HETATM   14  C   UNL     1     -44.738  57.709 -51.453  1.00  0.00     0.249 C 
HETATM   15  O   UNL     1     -44.526  57.010 -50.466  1.00  0.00    -0.272 OA
HETATM   16  H   UNL     1     -44.933  56.141 -52.576  1.00  0.00     0.156 HD
BRANCH  14  17
HETATM   17  C   UNL     1     -44.998  59.150 -51.285  1.00  0.00     0.028 A 
HETATM   18  C   UNL     1     -43.968  60.010 -50.895  1.00  0.00     0.019 A 
HETATM   19  C   UNL     1     -44.226  61.376 -50.763  1.00  0.00     0.038 A 
HETATM   20  C   UNL     1     -45.504  61.887 -51.008  1.00  0.00     0.069 A 
HETATM   21  C   UNL     1     -46.522  61.024 -51.429  1.00  0.00     0.038 A 
HETATM   22  C   UNL     1     -46.266  59.658 -51.582  1.00  0.00     0.019 A 
BRANCH  20  23
HETATM   23  O   UNL     1     -45.626  63.238 -50.825  1.00  0.00    -0.348 OA
BRANCH  23  24
HETATM   24  C   UNL     1     -46.621  63.899 -51.604  1.00  0.00     0.202 C 
BRANCH  24  25
HETATM   25  C   UNL     1     -45.907  64.768 -52.599  1.00  0.00    -0.011 C 
HETATM   26  C   UNL     1     -44.742  64.461 -53.184  1.00  0.00     0.009 C 
ENDBRANCH  24  25
ENDBRANCH  23  24
ENDBRANCH  20  23
ENDBRANCH  14  17
ENDBRANCH   2  13
BRANCH   1  27
HETATM   27  C   UNL     1     -42.235  55.884 -52.417  1.00  0.00    -0.014 A 
HETATM   28  C   UNL     1     -41.383  56.589 -51.533  1.00  0.00    -0.052 A 
HETATM   29  C   UNL     1     -40.964  55.976 -50.333  1.00  0.00     0.014 A 
HETATM   30  C   UNL     1     -40.909  57.994 -51.799  1.00  0.00     0.049 C 
HETATM   31  C   UNL     1     -41.340  54.670 -50.006  1.00  0.00    -0.061 A 
HETATM   32  C   UNL     1     -40.816  54.013 -48.764  1.00  0.00     0.048 C 
HETATM   33  C   UNL     1     -42.147  53.963 -50.892  1.00  0.00     0.007 A 
HETATM   34  C   UNL     1     -42.592  54.562 -52.072  1.00  0.00     0.011 A 
ENDBRANCH   1  27
TORSDOF 6
ENDMDL
