MODEL 1
REMARK VINA RESULT:      -8.7      0.000      0.000
REMARK  4 active torsions:
REMARK  status: ('A' for Active; 'I' for Inactive)
REMARK    1  A    between atoms: C_3  and  C_4 
REMARK       I    between atoms: C_4  and  N_5 
REMARK    2  A    between atoms: N_5  and  C_6 
REMARK    3  A    between atoms: C_13  and  C_14 
REMARK       I    between atoms: C_14  and  N_15 
REMARK    4  A    between atoms: C_23  and  O_24 
ROOT
HETATM    1  C   UNL     1     -42.668  54.977 -56.238  1.00  0.00     0.280 C 
HETATM    2  N   UNL     1     -41.473  55.019 -55.539  1.00  0.00    -0.321 N 
HETATM    3  O   UNL     1     -43.585  54.195 -56.020  1.00  0.00    -0.265 OA
HETATM    4  H   UNL     1     -40.842  55.758 -55.835  1.00  0.00     0.169 HD
ENDROOT
BRANCH   2   5
HETATM    5  C   UNL     1     -41.048  54.194 -54.480  1.00  0.00     0.036 A 
HETATM    6  C   UNL     1     -41.344  54.441 -53.132  1.00  0.00     0.046 A 
HETATM    7  C   UNL     1     -40.878  53.550 -52.140  1.00  0.00     0.030 A 
HETATM    8  C   UNL     1     -40.125  52.449 -52.528  1.00  0.00     0.063 A 
HETATM    9  C   UNL     1     -40.973  53.450 -50.718  1.00  0.00     0.156 A 
HETATM   10  N   UNL     1     -39.819  51.792 -51.369  1.00  0.00    -0.277 N 
HETATM   11  C   UNL     1     -39.812  52.171 -53.859  1.00  0.00     0.034 A 
HETATM   12  H   UNL     1     -39.276  50.943 -51.270  1.00  0.00     0.189 HD
HETATM   13  N   UNL     1     -40.314  52.363 -50.258  1.00  0.00    -0.168 NA
HETATM   14  C   UNL     1     -40.294  53.064 -54.825  1.00  0.00     0.032 A 
BRANCH   9  15
HETATM   15  C   UNL     1     -41.677  54.359 -49.802  1.00  0.00     0.270 C 
HETATM   16  N   UNL     1     -40.945  54.720 -48.703  1.00  0.00    -0.365 N 
HETATM   17  H   UNL     1     -40.010  54.345 -48.599  1.00  0.00     0.159 HD
HETATM   18  H   UNL     1     -41.351  55.330 -48.013  1.00  0.00     0.159 HD
HETATM   19  O   UNL     1     -42.818  54.775 -49.967  1.00  0.00    -0.266 OA
ENDBRANCH   9  15
ENDBRANCH   2   5
BRANCH   1  20
HETATM   20  C   UNL     1     -42.739  55.993 -57.280  1.00  0.00     0.150 A 
HETATM   21  C   UNL     1     -43.228  55.965 -58.580  1.00  0.00    -0.009 A 
HETATM   22  C   UNL     1     -43.860  54.826 -59.295  1.00  0.00     0.052 C 
HETATM   23  C   UNL     1     -42.995  57.269 -59.119  1.00  0.00     0.009 A 
HETATM   24  C   UNL     1     -42.389  58.010 -58.113  1.00  0.00     0.120 A 
HETATM   25  C   UNL     1     -43.235  57.892 -60.357  1.00  0.00     0.015 A 
HETATM   26  O   UNL     1     -42.242  57.241 -56.998  1.00  0.00    -0.301 OA
HETATM   27  C   UNL     1     -41.986  59.346 -58.239  1.00  0.00     0.102 A 
HETATM   28  C   UNL     1     -42.241  59.940 -59.484  1.00  0.00     0.040 A 
HETATM   29  C   UNL     1     -42.852  59.228 -60.523  1.00  0.00     0.004 A 
BRANCH  27  30
HETATM   30  O   UNL     1     -41.398  59.950 -57.164  1.00  0.00    -0.353 OA
HETATM   31  C   UNL     1     -42.260  60.620 -56.253  1.00  0.00     0.210 C 
ENDBRANCH  27  30
ENDBRANCH   1  20
TORSDOF 4
ENDMDL
MODEL 2
REMARK VINA RESULT:      -8.6      2.978      8.934
REMARK  4 active torsions:
REMARK  status: ('A' for Active; 'I' for Inactive)
REMARK    1  A    between atoms: C_3  and  C_4 
REMARK       I    between atoms: C_4  and  N_5 
REMARK    2  A    between atoms: N_5  and  C_6 
REMARK    3  A    between atoms: C_13  and  C_14 
REMARK       I    between atoms: C_14  and  N_15 
REMARK    4  A    between atoms: C_23  and  O_24 
ROOT
HETATM    1  C   UNL     1     -41.359  55.455 -53.634  1.00  0.00     0.280 C 
HETATM    2  N   UNL     1     -42.545  55.292 -54.330  1.00  0.00    -0.321 N 
HETATM    3  O   UNL     1     -40.643  56.448 -53.684  1.00  0.00    -0.265 OA
HETATM    4  H   UNL     1     -43.023  54.417 -54.140  1.00  0.00     0.169 HD
ENDROOT
BRANCH   2   5
HETATM    5  C   UNL     1     -43.161  56.182 -55.232  1.00  0.00     0.036 A 
HETATM    6  C   UNL     1     -42.913  56.189 -56.611  1.00  0.00     0.046 A 
HETATM    7  C   UNL     1     -43.586  57.117 -57.437  1.00  0.00     0.030 A 
HETATM    8  C   UNL     1     -44.476  58.011 -56.854  1.00  0.00     0.063 A 
HETATM    9  C   UNL     1     -43.615  57.423 -58.832  1.00  0.00     0.156 A 
HETATM   10  N   UNL     1     -44.954  58.770 -57.885  1.00  0.00    -0.277 N 
HETATM   11  C   UNL     1     -44.747  58.033 -55.486  1.00  0.00     0.034 A 
HETATM   12  H   UNL     1     -45.624  59.529 -57.830  1.00  0.00     0.189 HD
HETATM   13  N   UNL     1     -44.461  58.445 -59.092  1.00  0.00    -0.168 NA
HETATM   14  C   UNL     1     -44.075  57.096 -54.690  1.00  0.00     0.032 A 
BRANCH   9  15
HETATM   15  C   UNL     1     -42.865  56.762 -59.909  1.00  0.00     0.270 C 
HETATM   16  N   UNL     1     -41.540  57.104 -59.958  1.00  0.00    -0.365 N 
HETATM   17  H   UNL     1     -41.187  57.769 -59.280  1.00  0.00     0.159 HD
HETATM   18  H   UNL     1     -40.950  56.711 -60.672  1.00  0.00     0.159 HD
HETATM   19  O   UNL     1     -43.345  55.973 -60.715  1.00  0.00    -0.266 OA
ENDBRANCH   9  15
ENDBRANCH   2   5
BRANCH   1  20
HETATM   20  C   UNL     1     -41.040  54.304 -52.801  1.00  0.00     0.150 A 
HETATM   21  C   UNL     1     -41.233  54.046 -51.450  1.00  0.00    -0.009 A 
HETATM   22  C   UNL     1     -41.867  54.924 -50.432  1.00  0.00     0.052 C 
HETATM   23  C   UNL     1     -40.685  52.746 -51.212  1.00  0.00     0.009 A 
HETATM   24  C   UNL     1     -40.202  52.291 -52.432  1.00  0.00     0.120 A 
HETATM   25  C   UNL     1     -40.548  51.914 -50.087  1.00  0.00     0.015 A 
HETATM   26  O   UNL     1     -40.425  53.230 -53.395  1.00  0.00    -0.301 OA
HETATM   27  C   UNL     1     -39.576  51.054 -52.631  1.00  0.00     0.102 A 
HETATM   28  C   UNL     1     -39.456  50.246 -51.491  1.00  0.00     0.040 A 
HETATM   29  C   UNL     1     -39.931  50.667 -50.243  1.00  0.00     0.004 A 
BRANCH  27  30
HETATM   30  O   UNL     1     -39.147  50.739 -53.890  1.00  0.00    -0.353 OA
HETATM   31  C   UNL     1     -39.905  49.771 -54.602  1.00  0.00     0.210 C 
ENDBRANCH  27  30
ENDBRANCH   1  20
TORSDOF 4
ENDMDL
MODEL 3
REMARK VINA RESULT:      -8.5      1.166      2.392
REMARK  4 active torsions:
REMARK  status: ('A' for Active; 'I' for Inactive)
REMARK    1  A    between atoms: C_3  and  C_4 
REMARK       I    between atoms: C_4  and  N_5 
REMARK    2  A    between atoms: N_5  and  C_6 
REMARK    3  A    between atoms: C_13  and  C_14 
REMARK       I    between atoms: C_14  and  N_15 
REMARK    4  A    between atoms: C_23  and  O_24 
ROOT
HETATM    1  C   UNL     1     -42.495  55.741 -55.468  1.00  0.00     0.280 C 
HETATM    2  N   UNL     1     -41.225  55.307 -55.127  1.00  0.00    -0.321 N 
HETATM    3  O   UNL     1     -43.538  55.328 -54.976  1.00  0.00    -0.265 OA
HETATM    4  H   UNL     1     -40.475  55.787 -55.615  1.00  0.00     0.169 HD
ENDROOT
BRANCH   2   5
HETATM    5  C   UNL     1     -40.859  54.317 -54.194  1.00  0.00     0.036 A 
HETATM    6  C   UNL     1     -41.034  54.449 -52.810  1.00  0.00     0.046 A 
HETATM    7  C   UNL     1     -40.641  53.397 -51.953  1.00  0.00     0.030 A 
HETATM    8  C   UNL     1     -40.078  52.254 -52.508  1.00  0.00     0.063 A 
HETATM    9  C   UNL     1     -40.662  53.151 -50.546  1.00  0.00     0.156 A 
HETATM   10  N   UNL     1     -39.799  51.436 -51.450  1.00  0.00    -0.277 N 
HETATM   11  C   UNL     1     -39.889  52.088 -53.881  1.00  0.00     0.034 A 
HETATM   12  H   UNL     1     -39.378  50.515 -51.480  1.00  0.00     0.189 HD
HETATM   13  N   UNL     1     -40.139  51.940 -50.251  1.00  0.00    -0.168 NA
HETATM   14  C   UNL     1     -40.297  53.142 -54.711  1.00  0.00     0.032 A 
BRANCH   9  15
HETATM   15  C   UNL     1     -41.172  54.038 -49.490  1.00  0.00     0.270 C 
HETATM   16  N   UNL     1     -40.293  54.243 -48.461  1.00  0.00    -0.365 N 
HETATM   17  H   UNL     1     -39.391  53.782 -48.495  1.00  0.00     0.159 HD
HETATM   18  H   UNL     1     -40.561  54.826 -47.686  1.00  0.00     0.159 HD
HETATM   19  O   UNL     1     -42.280  54.562 -49.490  1.00  0.00    -0.266 OA
ENDBRANCH   9  15
ENDBRANCH   2   5
BRANCH   1  20
HETATM   20  C   UNL     1     -42.472  56.779 -56.490  1.00  0.00     0.150 A 
HETATM   21  C   UNL     1     -42.260  58.151 -56.424  1.00  0.00    -0.009 A 
HETATM   22  C   UNL     1     -41.970  58.975 -55.223  1.00  0.00     0.052 C 
HETATM   23  C   UNL     1     -42.386  58.636 -57.764  1.00  0.00     0.009 A 
HETATM   24  C   UNL     1     -42.656  57.531 -58.561  1.00  0.00     0.120 A 
HETATM   25  C   UNL     1     -42.300  59.898 -58.378  1.00  0.00     0.015 A 
HETATM   26  O   UNL     1     -42.700  56.407 -57.791  1.00  0.00    -0.301 OA
HETATM   27  C   UNL     1     -42.859  57.577 -59.946  1.00  0.00     0.102 A 
HETATM   28  C   UNL     1     -42.766  58.849 -60.529  1.00  0.00     0.040 A 
HETATM   29  C   UNL     1     -42.493  59.988 -59.762  1.00  0.00     0.004 A 
BRANCH  27  30
HETATM   30  O   UNL     1     -43.121  56.408 -60.603  1.00  0.00    -0.353 OA
HETATM   31  C   UNL     1     -44.484  56.012 -60.689  1.00  0.00     0.210 C 
ENDBRANCH  27  30
ENDBRANCH   1  20
TORSDOF 4
ENDMDL
MODEL 4
REMARK VINA RESULT:      -8.5      1.821      2.836
REMARK  4 active torsions:
REMARK  status: ('A' for Active; 'I' for Inactive)
REMARK    1  A    between atoms: C_3  and  C_4 
REMARK       I    between atoms: C_4  and  N_5 
REMARK    2  A    between atoms: N_5  and  C_6 
REMARK    3  A    between atoms: C_13  and  C_14 
REMARK       I    between atoms: C_14  and  N_15 
REMARK    4  A    between atoms: C_23  and  O_24 
ROOT
HETATM    1  C   UNL     1     -42.649  55.886 -55.783  1.00  0.00     0.280 C 
HETATM    2  N   UNL     1     -41.395  55.387 -55.476  1.00  0.00    -0.321 N 
HETATM    3  O   UNL     1     -43.661  55.711 -55.115  1.00  0.00    -0.265 OA
HETATM    4  H   UNL     1     -40.665  55.662 -56.126  1.00  0.00     0.169 HD
ENDROOT
BRANCH   2   5
HETATM    5  C   UNL     1     -41.016  54.580 -54.385  1.00  0.00     0.036 A 
HETATM    6  C   UNL     1     -40.705  53.218 -54.494  1.00  0.00     0.046 A 
HETATM    7  C   UNL     1     -40.328  52.493 -53.341  1.00  0.00     0.030 A 
HETATM    8  C   UNL     1     -40.285  53.152 -52.119  1.00  0.00     0.063 A 
HETATM    9  C   UNL     1     -39.940  51.149 -53.051  1.00  0.00     0.156 A 
HETATM   10  N   UNL     1     -39.903  52.205 -51.211  1.00  0.00    -0.277 N 
HETATM   11  C   UNL     1     -40.588  54.506 -51.973  1.00  0.00     0.034 A 
HETATM   12  H   UNL     1     -39.770  52.329 -50.213  1.00  0.00     0.189 HD
HETATM   13  N   UNL     1     -39.684  50.987 -51.733  1.00  0.00    -0.168 NA
HETATM   14  C   UNL     1     -40.948  55.205 -53.132  1.00  0.00     0.032 A 
BRANCH   9  15
HETATM   15  C   UNL     1     -39.806  50.032 -53.996  1.00  0.00     0.270 C 
HETATM   16  N   UNL     1     -40.923  49.805 -54.754  1.00  0.00    -0.365 N 
HETATM   17  H   UNL     1     -41.734  50.395 -54.611  1.00  0.00     0.159 HD
HETATM   18  H   UNL     1     -40.928  49.050 -55.421  1.00  0.00     0.159 HD
HETATM   19  O   UNL     1     -38.804  49.337 -54.122  1.00  0.00    -0.266 OA
ENDBRANCH   9  15
ENDBRANCH   2   5
BRANCH   1  20
HETATM   20  C   UNL     1     -42.649  56.675 -57.007  1.00  0.00     0.150 A 
HETATM   21  C   UNL     1     -43.060  56.389 -58.303  1.00  0.00    -0.009 A 
HETATM   22  C   UNL     1     -43.658  55.129 -58.816  1.00  0.00     0.052 C 
HETATM   23  C   UNL     1     -42.785  57.562 -59.074  1.00  0.00     0.009 A 
HETATM   24  C   UNL     1     -42.234  58.489 -58.200  1.00  0.00     0.120 A 
HETATM   25  C   UNL     1     -42.946  57.927 -60.423  1.00  0.00     0.015 A 
HETATM   26  O   UNL     1     -42.160  57.956 -56.948  1.00  0.00    -0.301 OA
HETATM   27  C   UNL     1     -41.814  59.776 -58.562  1.00  0.00     0.102 A 
HETATM   28  C   UNL     1     -41.989  60.111 -59.913  1.00  0.00     0.040 A 
HETATM   29  C   UNL     1     -42.542  59.206 -60.826  1.00  0.00     0.004 A 
BRANCH  27  30
HETATM   30  O   UNL     1     -41.285  60.582 -57.594  1.00  0.00    -0.353 OA
HETATM   31  C   UNL     1     -41.598  61.967 -57.673  1.00  0.00     0.210 C 
ENDBRANCH  27  30
ENDBRANCH   1  20
TORSDOF 4
ENDMDL
MODEL 5
REMARK VINA RESULT:      -8.4      3.021      8.862
REMARK  4 active torsions:
REMARK  status: ('A' for Active; 'I' for Inactive)
REMARK    1  A    between atoms: C_3  and  C_4 
REMARK       I    between atoms: C_4  and  N_5 
REMARK    2  A    between atoms: N_5  and  C_6 
REMARK    3  A    between atoms: C_13  and  C_14 
REMARK       I    between atoms: C_14  and  N_15 
REMARK    4  A    between atoms: C_23  and  O_24 
ROOT
HETATM    1  C   UNL     1     -42.981  55.603 -54.394  1.00  0.00     0.280 C 
HETATM    2  N   UNL     1     -42.257  55.910 -55.533  1.00  0.00    -0.321 N 
HETATM    3  O   UNL     1     -44.118  55.991 -54.155  1.00  0.00    -0.265 OA
HETATM    4  H   UNL     1     -41.342  55.471 -55.577  1.00  0.00     0.169 HD
ENDROOT
BRANCH   2   5
HETATM    5  C   UNL     1     -42.637  56.720 -56.621  1.00  0.00     0.036 A 
HETATM    6  C   UNL     1     -43.379  56.257 -57.716  1.00  0.00     0.046 A 
HETATM    7  C   UNL     1     -43.718  57.149 -58.757  1.00  0.00     0.030 A 
HETATM    8  C   UNL     1     -43.296  58.470 -58.673  1.00  0.00     0.063 A 
HETATM    9  C   UNL     1     -44.442  57.071 -59.986  1.00  0.00     0.156 A 
HETATM   10  N   UNL     1     -43.760  59.073 -59.808  1.00  0.00    -0.277 N 
HETATM   11  C   UNL     1     -42.556  58.966 -57.599  1.00  0.00     0.034 A 
HETATM   12  H   UNL     1     -43.637  60.040 -60.085  1.00  0.00     0.189 HD
HETATM   13  N   UNL     1     -44.458  58.264 -60.623  1.00  0.00    -0.168 NA
HETATM   14  C   UNL     1     -42.241  58.064 -56.574  1.00  0.00     0.032 A 
BRANCH   9  15
HETATM   15  C   UNL     1     -45.117  55.895 -60.555  1.00  0.00     0.270 C 
HETATM   16  N   UNL     1     -46.303  55.584 -59.946  1.00  0.00    -0.365 N 
HETATM   17  H   UNL     1     -46.615  56.157 -59.171  1.00  0.00     0.159 HD
HETATM   18  H   UNL     1     -46.829  54.785 -60.260  1.00  0.00     0.159 HD
HETATM   19  O   UNL     1     -44.688  55.224 -61.486  1.00  0.00    -0.266 OA
ENDBRANCH   9  15
ENDBRANCH   2   5
BRANCH   1  20
HETATM   20  C   UNL     1     -42.244  54.737 -53.483  1.00  0.00     0.150 A 
HETATM   21  C   UNL     1     -42.071  54.762 -52.104  1.00  0.00    -0.009 A 
HETATM   22  C   UNL     1     -42.636  55.731 -51.129  1.00  0.00     0.052 C 
HETATM   23  C   UNL     1     -41.217  53.658 -51.792  1.00  0.00     0.009 A 
HETATM   24  C   UNL     1     -40.932  53.026 -52.995  1.00  0.00     0.120 A 
HETATM   25  C   UNL     1     -40.658  53.135 -50.613  1.00  0.00     0.015 A 
HETATM   26  O   UNL     1     -41.560  53.674 -54.017  1.00  0.00    -0.301 OA
HETATM   27  C   UNL     1     -40.115  51.896 -53.129  1.00  0.00     0.102 A 
HETATM   28  C   UNL     1     -39.573  51.397 -51.935  1.00  0.00     0.040 A 
HETATM   29  C   UNL     1     -39.837  52.003 -50.701  1.00  0.00     0.004 A 
BRANCH  27  30
HETATM   30  O   UNL     1     -39.920  51.381 -54.379  1.00  0.00    -0.353 OA
HETATM   31  C   UNL     1     -39.765  49.971 -54.475  1.00  0.00     0.210 C 
ENDBRANCH  27  30
ENDBRANCH   1  20
TORSDOF 4
ENDMDL
MODEL 6
REMARK VINA RESULT:      -8.4      2.070      3.664
REMARK  4 active torsions:
REMARK  status: ('A' for Active; 'I' for Inactive)
REMARK    1  A    between atoms: C_3  and  C_4 
REMARK       I    between atoms: C_4  and  N_5 
REMARK    2  A    between atoms: N_5  and  C_6 
REMARK    3  A    between atoms: C_13  and  C_14 
REMARK       I    between atoms: C_14  and  N_15 
REMARK    4  A    between atoms: C_23  and  O_24 
ROOT
HETATM    1  C   UNL     1     -42.624  55.814 -55.245  1.00  0.00     0.280 C 
HETATM    2  N   UNL     1     -41.355  55.428 -54.847  1.00  0.00    -0.321 N 
HETATM    3  O   UNL     1     -43.670  55.433 -54.734  1.00  0.00    -0.265 OA
HETATM    4  H   UNL     1     -40.603  55.873 -55.363  1.00  0.00     0.169 HD
ENDROOT
BRANCH   2   5
HETATM    5  C   UNL     1     -40.994  54.530 -53.824  1.00  0.00     0.036 A 
HETATM    6  C   UNL     1     -40.679  53.182 -54.045  1.00  0.00     0.046 A 
HETATM    7  C   UNL     1     -40.321  52.360 -52.954  1.00  0.00     0.030 A 
HETATM    8  C   UNL     1     -40.299  52.910 -51.679  1.00  0.00     0.063 A 
HETATM    9  C   UNL     1     -39.936  50.996 -52.775  1.00  0.00     0.156 A 
HETATM   10  N   UNL     1     -39.931  51.888 -50.849  1.00  0.00    -0.277 N 
HETATM   11  C   UNL     1     -40.606  54.246 -51.420  1.00  0.00     0.034 A 
HETATM   12  H   UNL     1     -39.815  51.925 -49.843  1.00  0.00     0.189 HD
HETATM   13  N   UNL     1     -39.701  50.720 -51.471  1.00  0.00    -0.168 NA
HETATM   14  C   UNL     1     -40.948  55.044 -52.521  1.00  0.00     0.032 A 
BRANCH   9  15
HETATM   15  C   UNL     1     -39.784  49.964 -53.811  1.00  0.00     0.270 C 
HETATM   16  N   UNL     1     -40.832  49.899 -54.690  1.00  0.00    -0.365 N 
HETATM   17  H   UNL     1     -41.610  50.535 -54.565  1.00  0.00     0.159 HD
HETATM   18  H   UNL     1     -40.821  49.213 -55.427  1.00  0.00     0.159 HD
HETATM   19  O   UNL     1     -38.826  49.207 -53.911  1.00  0.00    -0.266 OA
ENDBRANCH   9  15
ENDBRANCH   2   5
BRANCH   1  20
HETATM   20  C   UNL     1     -42.596  56.758 -56.354  1.00  0.00     0.150 A 
HETATM   21  C   UNL     1     -42.382  58.130 -56.409  1.00  0.00    -0.009 A 
HETATM   22  C   UNL     1     -42.094  59.056 -55.284  1.00  0.00     0.052 C 
HETATM   23  C   UNL     1     -42.502  58.494 -57.787  1.00  0.00     0.009 A 
HETATM   24  C   UNL     1     -42.772  57.324 -58.484  1.00  0.00     0.120 A 
HETATM   25  C   UNL     1     -42.412  59.697 -58.510  1.00  0.00     0.015 A 
HETATM   26  O   UNL     1     -42.820  56.272 -57.618  1.00  0.00    -0.301 OA
HETATM   27  C   UNL     1     -42.970  57.247 -59.869  1.00  0.00     0.102 A 
HETATM   28  C   UNL     1     -42.872  58.463 -60.562  1.00  0.00     0.040 A 
HETATM   29  C   UNL     1     -42.600  59.664 -59.897  1.00  0.00     0.004 A 
BRANCH  27  30
HETATM   30  O   UNL     1     -43.231  56.025 -60.420  1.00  0.00    -0.353 OA
HETATM   31  C   UNL     1     -44.594  55.717 -60.680  1.00  0.00     0.210 C 
ENDBRANCH  27  30
ENDBRANCH   1  20
TORSDOF 4
ENDMDL
MODEL 7
REMARK VINA RESULT:      -8.1      2.904      8.783
REMARK  4 active torsions:
REMARK  status: ('A' for Active; 'I' for Inactive)
REMARK    1  A    between atoms: C_3  and  C_4 
REMARK       I    between atoms: C_4  and  N_5 
REMARK    2  A    between atoms: N_5  and  C_6 
REMARK    3  A    between atoms: C_13  and  C_14 
REMARK       I    between atoms: C_14  and  N_15 
REMARK    4  A    between atoms: C_23  and  O_24 
ROOT
HETATM    1  C   UNL     1     -42.836  55.656 -55.043  1.00  0.00     0.280 C 
HETATM    2  N   UNL     1     -42.165  55.798 -56.245  1.00  0.00    -0.321 N 
HETATM    3  O   UNL     1     -43.948  56.109 -54.798  1.00  0.00    -0.265 OA
HETATM    4  H   UNL     1     -41.266  55.326 -56.280  1.00  0.00     0.169 HD
ENDROOT
BRANCH   2   5
HETATM    5  C   UNL     1     -42.577  56.485 -57.404  1.00  0.00     0.036 A 
HETATM    6  C   UNL     1     -42.182  57.792 -57.717  1.00  0.00     0.046 A 
HETATM    7  C   UNL     1     -42.644  58.396 -58.908  1.00  0.00     0.030 A 
HETATM    8  C   UNL     1     -43.493  57.676 -59.738  1.00  0.00     0.063 A 
HETATM    9  C   UNL     1     -42.467  59.654 -59.561  1.00  0.00     0.156 A 
HETATM   10  N   UNL     1     -43.770  58.509 -60.785  1.00  0.00    -0.277 N 
HETATM   11  C   UNL     1     -43.908  56.373 -59.459  1.00  0.00     0.034 A 
HETATM   12  H   UNL     1     -44.363  58.316 -61.584  1.00  0.00     0.189 HD
HETATM   13  N   UNL     1     -43.169  59.709 -60.716  1.00  0.00    -0.168 NA
HETATM   14  C   UNL     1     -43.427  55.793 -58.277  1.00  0.00     0.032 A 
BRANCH   9  15
HETATM   15  C   UNL     1     -41.647  60.788 -59.113  1.00  0.00     0.270 C 
HETATM   16  N   UNL     1     -41.518  61.785 -60.043  1.00  0.00    -0.365 N 
HETATM   17  H   UNL     1     -41.973  61.671 -60.941  1.00  0.00     0.159 HD
HETATM   18  H   UNL     1     -40.962  62.596 -59.829  1.00  0.00     0.159 HD
HETATM   19  O   UNL     1     -41.105  60.871 -58.017  1.00  0.00    -0.266 OA
ENDBRANCH   9  15
ENDBRANCH   2   5
BRANCH   1  20
HETATM   20  C   UNL     1     -42.078  54.881 -54.070  1.00  0.00     0.150 A 
HETATM   21  C   UNL     1     -41.761  55.108 -52.737  1.00  0.00    -0.009 A 
HETATM   22  C   UNL     1     -42.146  56.267 -51.890  1.00  0.00     0.052 C 
HETATM   23  C   UNL     1     -40.967  53.992 -52.322  1.00  0.00     0.009 A 
HETATM   24  C   UNL     1     -40.859  53.154 -53.424  1.00  0.00     0.120 A 
HETATM   25  C   UNL     1     -40.331  53.613 -51.127  1.00  0.00     0.015 A 
HETATM   26  O   UNL     1     -41.537  53.687 -54.478  1.00  0.00    -0.301 OA
HETATM   27  C   UNL     1     -40.149  51.946 -53.440  1.00  0.00     0.102 A 
HETATM   28  C   UNL     1     -39.526  51.594 -52.233  1.00  0.00     0.040 A 
HETATM   29  C   UNL     1     -39.614  52.411 -51.099  1.00  0.00     0.004 A 
BRANCH  27  30
HETATM   30  O   UNL     1     -40.124  51.223 -54.599  1.00  0.00    -0.353 OA
HETATM   31  C   UNL     1     -39.732  49.861 -54.497  1.00  0.00     0.210 C 
ENDBRANCH  27  30
ENDBRANCH   1  20
TORSDOF 4
ENDMDL
MODEL 8
REMARK VINA RESULT:      -8.1      2.803      8.817
REMARK  4 active torsions:
REMARK  status: ('A' for Active; 'I' for Inactive)
REMARK    1  A    between atoms: C_3  and  C_4 
REMARK       I    between atoms: C_4  and  N_5 
REMARK    2  A    between atoms: N_5  and  C_6 
REMARK    3  A    between atoms: C_13  and  C_14 
REMARK       I    between atoms: C_14  and  N_15 
REMARK    4  A    between atoms: C_23  and  O_24 
ROOT
HETATM    1  C   UNL     1     -40.867  54.703 -54.280  1.00  0.00     0.280 C 
HETATM    2  N   UNL     1     -42.222  54.925 -54.459  1.00  0.00    -0.321 N 
HETATM    3  O   UNL     1     -39.971  55.343 -54.817  1.00  0.00    -0.265 OA
HETATM    4  H   UNL     1     -42.821  54.320 -53.905  1.00  0.00     0.169 HD
ENDROOT
BRANCH   2   5
HETATM    5  C   UNL     1     -42.853  55.878 -55.282  1.00  0.00     0.036 A 
HETATM    6  C   UNL     1     -42.708  55.923 -56.675  1.00  0.00     0.046 A 
HETATM    7  C   UNL     1     -43.387  56.915 -57.416  1.00  0.00     0.030 A 
HETATM    8  C   UNL     1     -44.179  57.833 -56.740  1.00  0.00     0.063 A 
HETATM    9  C   UNL     1     -43.502  57.273 -58.795  1.00  0.00     0.156 A 
HETATM   10  N   UNL     1     -44.689  58.654 -57.705  1.00  0.00    -0.277 N 
HETATM   11  C   UNL     1     -44.347  57.819 -55.354  1.00  0.00     0.034 A 
HETATM   12  H   UNL     1     -45.310  59.445 -57.575  1.00  0.00     0.189 HD
HETATM   13  N   UNL     1     -44.307  58.348 -58.957  1.00  0.00    -0.168 NA
HETATM   14  C   UNL     1     -43.671  56.819 -54.642  1.00  0.00     0.032 A 
BRANCH   9  15
HETATM   15  C   UNL     1     -42.872  56.613 -59.947  1.00  0.00     0.270 C 
HETATM   16  N   UNL     1     -41.535  56.879 -60.079  1.00  0.00    -0.365 N 
HETATM   17  H   UNL     1     -41.094  57.494 -59.406  1.00  0.00     0.159 HD
HETATM   18  H   UNL     1     -41.022  56.480 -60.849  1.00  0.00     0.159 HD
HETATM   19  O   UNL     1     -43.455  55.887 -60.744  1.00  0.00    -0.266 OA
ENDBRANCH   9  15
ENDBRANCH   2   5
BRANCH   1  20
HETATM   20  C   UNL     1     -40.600  53.613 -53.351  1.00  0.00     0.150 A 
HETATM   21  C   UNL     1     -40.153  52.311 -53.542  1.00  0.00    -0.009 A 
HETATM   22  C   UNL     1     -39.794  51.646 -54.822  1.00  0.00     0.052 C 
HETATM   23  C   UNL     1     -40.110  51.713 -52.244  1.00  0.00     0.009 A 
HETATM   24  C   UNL     1     -40.523  52.687 -51.345  1.00  0.00     0.120 A 
HETATM   25  C   UNL     1     -39.765  50.445 -51.744  1.00  0.00     0.015 A 
HETATM   26  O   UNL     1     -40.811  53.839 -52.014  1.00  0.00    -0.301 OA
HETATM   27  C   UNL     1     -40.631  52.502 -49.961  1.00  0.00     0.102 A 
HETATM   28  C   UNL     1     -40.279  51.227 -49.492  1.00  0.00     0.040 A 
HETATM   29  C   UNL     1     -39.855  50.218 -50.365  1.00  0.00     0.004 A 
BRANCH  27  30
HETATM   30  O   UNL     1     -41.056  53.552 -49.197  1.00  0.00    -0.353 OA
HETATM   31  C   UNL     1     -40.257  53.888 -48.070  1.00  0.00     0.210 C 
ENDBRANCH  27  30
ENDBRANCH   1  20
TORSDOF 4
ENDMDL
MODEL 9
REMARK VINA RESULT:      -7.9      3.376      8.792
REMARK  4 active torsions:
REMARK  status: ('A' for Active; 'I' for Inactive)
REMARK    1  A    between atoms: C_3  and  C_4 
REMARK       I    between atoms: C_4  and  N_5 
REMARK    2  A    between atoms: N_5  and  C_6 
REMARK    3  A    between atoms: C_13  and  C_14 
REMARK       I    between atoms: C_14  and  N_15 
REMARK    4  A    between atoms: C_23  and  O_24 
ROOT
HETATM    1  C   UNL     1     -41.688  56.459 -53.742  1.00  0.00     0.280 C 
HETATM    2  N   UNL     1     -43.043  56.415 -54.022  1.00  0.00    -0.321 N 
HETATM    3  O   UNL     1     -40.965  57.434 -53.909  1.00  0.00    -0.265 OA
HETATM    4  H   UNL     1     -43.489  55.534 -53.787  1.00  0.00     0.169 HD
ENDROOT
BRANCH   2   5
HETATM    5  C   UNL     1     -43.860  57.429 -54.561  1.00  0.00     0.036 A 
HETATM    6  C   UNL     1     -44.369  57.407 -55.866  1.00  0.00     0.046 A 
HETATM    7  C   UNL     1     -45.186  58.468 -56.315  1.00  0.00     0.030 A 
HETATM    8  C   UNL     1     -45.458  59.518 -55.447  1.00  0.00     0.063 A 
HETATM    9  C   UNL     1     -45.879  58.796 -57.520  1.00  0.00     0.156 A 
HETATM   10  N   UNL     1     -46.251  60.378 -56.155  1.00  0.00    -0.277 N 
HETATM   11  C   UNL     1     -44.969  59.574 -54.141  1.00  0.00     0.034 A 
HETATM   12  H   UNL     1     -46.639  61.258 -55.836  1.00  0.00     0.189 HD
HETATM   13  N   UNL     1     -46.529  59.977 -57.407  1.00  0.00    -0.168 NA
HETATM   14  C   UNL     1     -44.169  58.504 -53.717  1.00  0.00     0.032 A 
BRANCH   9  15
HETATM   15  C   UNL     1     -45.937  58.012 -58.762  1.00  0.00     0.270 C 
HETATM   16  N   UNL     1     -46.865  57.005 -58.743  1.00  0.00    -0.365 N 
HETATM   17  H   UNL     1     -47.418  56.872 -57.905  1.00  0.00     0.159 HD
HETATM   18  H   UNL     1     -46.966  56.406 -59.546  1.00  0.00     0.159 HD
HETATM   19  O   UNL     1     -45.233  58.205 -59.746  1.00  0.00    -0.266 OA
ENDBRANCH   9  15
ENDBRANCH   2   5
BRANCH   1  20
HETATM   20  C   UNL     1     -41.191  55.202 -53.199  1.00  0.00     0.150 A 
HETATM   21  C   UNL     1     -40.612  54.090 -53.798  1.00  0.00    -0.009 A 
HETATM   22  C   UNL     1     -40.314  53.878 -55.238  1.00  0.00     0.052 C 
HETATM   23  C   UNL     1     -40.356  53.159 -52.742  1.00  0.00     0.009 A 
HETATM   24  C   UNL     1     -40.786  53.765 -51.569  1.00  0.00     0.120 A 
HETATM   25  C   UNL     1     -39.808  51.867 -52.665  1.00  0.00     0.015 A 
HETATM   26  O   UNL     1     -41.283  55.004 -51.844  1.00  0.00    -0.301 OA
HETATM   27  C   UNL     1     -40.721  53.179 -50.298  1.00  0.00     0.102 A 
HETATM   28  C   UNL     1     -40.168  51.891 -50.254  1.00  0.00     0.040 A 
HETATM   29  C   UNL     1     -39.720  51.246 -51.414  1.00  0.00     0.004 A 
BRANCH  27  30
HETATM   30  O   UNL     1     -41.186  53.892 -49.230  1.00  0.00    -0.353 OA
HETATM   31  C   UNL     1     -40.410  53.843 -48.040  1.00  0.00     0.210 C 
ENDBRANCH  27  30
ENDBRANCH   1  20
TORSDOF 4
ENDMDL
MODEL 10
REMARK VINA RESULT:      -7.8      3.419      8.899
REMARK  4 active torsions:
REMARK  status: ('A' for Active; 'I' for Inactive)
REMARK    1  A    between atoms: C_3  and  C_4 
REMARK       I    between atoms: C_4  and  N_5 
REMARK    2  A    between atoms: N_5  and  C_6 
REMARK    3  A    between atoms: C_13  and  C_14 
REMARK       I    between atoms: C_14  and  N_15 
REMARK    4  A    between atoms: C_23  and  O_24 
ROOT
HETATM    1  C   UNL     1     -41.641  56.044 -53.399  1.00  0.00     0.280 C 
HETATM    2  N   UNL     1     -43.013  56.126 -53.559  1.00  0.00    -0.321 N 
HETATM    3  O   UNL     1     -40.833  56.878 -53.792  1.00  0.00    -0.265 OA
HETATM    4  H   UNL     1     -43.529  55.359 -53.139  1.00  0.00     0.169 HD
ENDROOT
BRANCH   2   5
HETATM    5  C   UNL     1     -43.762  57.131 -54.202  1.00  0.00     0.036 A 
HETATM    6  C   UNL     1     -44.156  57.070 -55.546  1.00  0.00     0.046 A 
HETATM    7  C   UNL     1     -44.912  58.127 -56.101  1.00  0.00     0.030 A 
HETATM    8  C   UNL     1     -45.240  59.211 -55.297  1.00  0.00     0.063 A 
HETATM    9  C   UNL     1     -45.491  58.421 -57.373  1.00  0.00     0.156 A 
HETATM   10  N   UNL     1     -45.952  60.056 -56.100  1.00  0.00    -0.277 N 
HETATM   11  C   UNL     1     -44.865  59.306 -53.956  1.00  0.00     0.034 A 
HETATM   12  H   UNL     1     -46.351  60.953 -55.848  1.00  0.00     0.189 HD
HETATM   13  N   UNL     1     -46.127  59.615 -57.358  1.00  0.00    -0.168 NA
HETATM   14  C   UNL     1     -44.124  58.240 -53.426  1.00  0.00     0.032 A 
BRANCH   9  15
HETATM   15  C   UNL     1     -45.454  57.594 -58.587  1.00  0.00     0.270 C 
HETATM   16  N   UNL     1     -46.580  56.839 -58.782  1.00  0.00    -0.365 N 
HETATM   17  H   UNL     1     -47.325  56.896 -58.098  1.00  0.00     0.159 HD
HETATM   18  H   UNL     1     -46.639  56.230 -59.581  1.00  0.00     0.159 HD
HETATM   19  O   UNL     1     -44.519  57.550 -59.378  1.00  0.00    -0.266 OA
ENDBRANCH   9  15
ENDBRANCH   2   5
BRANCH   1  20
HETATM   20  C   UNL     1     -41.235  54.841 -52.685  1.00  0.00     0.150 A 
HETATM   21  C   UNL     1     -41.218  54.517 -51.334  1.00  0.00    -0.009 A 
HETATM   22  C   UNL     1     -41.648  55.358 -50.186  1.00  0.00     0.052 C 
HETATM   23  C   UNL     1     -40.687  53.192 -51.250  1.00  0.00     0.009 A 
HETATM   24  C   UNL     1     -40.423  52.789 -52.553  1.00  0.00     0.120 A 
HETATM   25  C   UNL     1     -40.403  52.297 -50.203  1.00  0.00     0.015 A 
HETATM   26  O   UNL     1     -40.762  53.783 -53.421  1.00  0.00    -0.301 OA
HETATM   27  C   UNL     1     -39.882  51.547 -52.910  1.00  0.00     0.102 A 
HETATM   28  C   UNL     1     -39.611  50.677 -51.844  1.00  0.00     0.040 A 
HETATM   29  C   UNL     1     -39.865  51.043 -50.517  1.00  0.00     0.004 A 
BRANCH  27  30
HETATM   30  O   UNL     1     -39.672  51.287 -54.235  1.00  0.00    -0.353 OA
HETATM   31  C   UNL     1     -39.622  49.920 -54.620  1.00  0.00     0.210 C 
ENDBRANCH  27  30
ENDBRANCH   1  20
TORSDOF 4
ENDMDL
