MODEL 1
REMARK VINA RESULT:      -9.2      0.000      0.000
REMARK  4 active torsions:
REMARK  status: ('A' for Active; 'I' for Inactive)
REMARK    1  A    between atoms: C_9  and  C_10 
REMARK    2  A    between atoms: C_10  and  C_11 
REMARK       I    between atoms: C_11  and  N_12 
REMARK    3  A    between atoms: N_12  and  C_13 
REMARK    4  A    between atoms: C_15  and  C_16 
ROOT
HETATM    1  C   UNL     1     -41.962  54.607 -55.545  1.00  0.00     0.227 C 
HETATM    2  N   UNL     1     -41.880  55.472 -56.609  1.00  0.00    -0.327 N 
HETATM    3  O   UNL     1     -43.010  54.174 -55.065  1.00  0.00    -0.273 OA
HETATM    4  H   UNL     1     -40.932  55.725 -56.895  1.00  0.00     0.169 HD
ENDROOT
BRANCH   1   5
HETATM    5  C   UNL     1     -40.651  54.144 -54.934  1.00  0.00     0.165 C 
BRANCH   5   6
HETATM    6  C   UNL     1     -40.545  53.739 -53.475  1.00  0.00     0.074 A 
HETATM    7  C   UNL     1     -40.198  52.325 -53.164  1.00  0.00     0.006 A 
HETATM    8  C   UNL     1     -39.950  51.360 -54.149  1.00  0.00     0.014 A 
HETATM    9  C   UNL     1     -40.116  51.964 -51.820  1.00  0.00     0.046 A 
HETATM   10  C   UNL     1     -39.634  50.049 -53.781  1.00  0.00     0.001 A 
HETATM   11  C   UNL     1     -39.560  49.693 -52.435  1.00  0.00     0.001 A 
HETATM   12  C   UNL     1     -39.799  50.651 -51.451  1.00  0.00     0.018 A 
HETATM   13  C   UNL     1     -40.358  52.983 -50.790  1.00  0.00     0.272 A 
HETATM   14  O   UNL     1     -40.300  52.718 -49.595  1.00  0.00    -0.266 OA
HETATM   15  N   UNL     1     -40.647  54.246 -51.245  1.00  0.00    -0.243 N 
HETATM   16  N   UNL     1     -40.744  54.629 -52.546  1.00  0.00    -0.175 NA
HETATM   17  H   UNL     1     -40.811  54.956 -50.537  1.00  0.00     0.192 HD
ENDBRANCH   5   6
ENDBRANCH   1   5
BRANCH   2  18
HETATM   18  C   UNL     1     -42.927  56.060 -57.344  1.00  0.00     0.035 A 
HETATM   19  C   UNL     1     -43.602  55.431 -58.392  1.00  0.00     0.047 A 
HETATM   20  C   UNL     1     -44.649  56.077 -59.086  1.00  0.00     0.071 A 
HETATM   21  C   UNL     1     -45.005  57.376 -58.706  1.00  0.00     0.049 A 
HETATM   22 CL   UNL     1     -46.269  58.251 -59.489  1.00  0.00    -0.083 Cl
HETATM   23  C   UNL     1     -44.333  58.012 -57.660  1.00  0.00     0.027 A 
HETATM   24  C   UNL     1     -43.302  57.358 -56.983  1.00  0.00     0.031 A 
BRANCH  20  25
HETATM   25  C   UNL     1     -45.357  55.367 -60.207  1.00  0.00     0.419 C 
HETATM   26  F   UNL     1     -45.182  54.014 -60.191  1.00  0.00    -0.166 F 
HETATM   27  F   UNL     1     -46.707  55.551 -60.183  1.00  0.00    -0.166 F 
HETATM   28  F   UNL     1     -44.937  55.767 -61.439  1.00  0.00    -0.166 F 
ENDBRANCH  20  25
ENDBRANCH   2  18
TORSDOF 4
ENDMDL
MODEL 2
REMARK VINA RESULT:      -9.0      4.559      8.703
REMARK  4 active torsions:
REMARK  status: ('A' for Active; 'I' for Inactive)
REMARK    1  A    between atoms: C_9  and  C_10 
REMARK    2  A    between atoms: C_10  and  C_11 
REMARK       I    between atoms: C_11  and  N_12 
REMARK    3  A    between atoms: N_12  and  C_13 
REMARK    4  A    between atoms: C_15  and  C_16 
ROOT
HETATM    1  C   UNL     1     -42.246  55.736 -54.419  1.00  0.00     0.227 C 
HETATM    2  N   UNL     1     -41.112  54.969 -54.535  1.00  0.00    -0.327 N 
HETATM    3  O   UNL     1     -43.117  55.583 -53.563  1.00  0.00    -0.273 OA
HETATM    4  H   UNL     1     -40.481  55.234 -55.293  1.00  0.00     0.169 HD
ENDROOT
BRANCH   1   5
HETATM    5  C   UNL     1     -42.417  56.863 -55.421  1.00  0.00     0.165 C 
BRANCH   5   6
HETATM    6  C   UNL     1     -42.755  56.599 -56.877  1.00  0.00     0.074 A 
HETATM    7  C   UNL     1     -42.525  57.694 -57.860  1.00  0.00     0.006 A 
HETATM    8  C   UNL     1     -41.999  58.943 -57.509  1.00  0.00     0.014 A 
HETATM    9  C   UNL     1     -42.852  57.441 -59.191  1.00  0.00     0.046 A 
HETATM   10  C   UNL     1     -41.815  59.926 -58.486  1.00  0.00     0.001 A 
HETATM   11  C   UNL     1     -42.150  59.669 -59.815  1.00  0.00     0.001 A 
HETATM   12  C   UNL     1     -42.668  58.424 -60.170  1.00  0.00     0.018 A 
HETATM   13  C   UNL     1     -43.385  56.122 -59.559  1.00  0.00     0.272 A 
HETATM   14  O   UNL     1     -43.690  55.850 -60.714  1.00  0.00    -0.266 OA
HETATM   15  N   UNL     1     -43.518  55.217 -58.535  1.00  0.00    -0.243 N 
HETATM   16  N   UNL     1     -43.218  55.433 -57.227  1.00  0.00    -0.175 NA
HETATM   17  H   UNL     1     -43.883  54.302 -58.785  1.00  0.00     0.192 HD
ENDBRANCH   5   6
ENDBRANCH   1   5
BRANCH   2  18
HETATM   18  C   UNL     1     -40.716  53.865 -53.755  1.00  0.00     0.035 A 
HETATM   19  C   UNL     1     -40.550  52.570 -54.253  1.00  0.00     0.047 A 
HETATM   20  C   UNL     1     -40.145  51.507 -53.415  1.00  0.00     0.071 A 
HETATM   21  C   UNL     1     -39.912  51.771 -52.062  1.00  0.00     0.049 A 
HETATM   22 CL   UNL     1     -39.414  50.542 -50.957  1.00  0.00    -0.083 Cl
HETATM   23  C   UNL     1     -40.077  53.062 -51.557  1.00  0.00     0.027 A 
HETATM   24  C   UNL     1     -40.476  54.102 -52.399  1.00  0.00     0.031 A 
BRANCH  20  25
HETATM   25  C   UNL     1     -39.972  50.127 -53.987  1.00  0.00     0.419 C 
HETATM   26  F   UNL     1     -39.831  49.158 -53.037  1.00  0.00    -0.166 F 
HETATM   27  F   UNL     1     -41.032  49.730 -54.746  1.00  0.00    -0.166 F 
HETATM   28  F   UNL     1     -38.869  50.013 -54.779  1.00  0.00    -0.166 F 
ENDBRANCH  20  25
ENDBRANCH   2  18
TORSDOF 4
ENDMDL
MODEL 3
REMARK VINA RESULT:      -8.8      4.496      8.675
REMARK  4 active torsions:
REMARK  status: ('A' for Active; 'I' for Inactive)
REMARK    1  A    between atoms: C_9  and  C_10 
REMARK    2  A    between atoms: C_10  and  C_11 
REMARK       I    between atoms: C_11  and  N_12 
REMARK    3  A    between atoms: N_12  and  C_13 
REMARK    4  A    between atoms: C_15  and  C_16 
ROOT
HETATM    1  C   UNL     1     -42.292  55.032 -56.140  1.00  0.00     0.227 C 
HETATM    2  N   UNL     1     -41.110  54.882 -55.456  1.00  0.00    -0.327 N 
HETATM    3  O   UNL     1     -43.303  54.352 -55.962  1.00  0.00    -0.273 OA
HETATM    4  H   UNL     1     -40.370  55.536 -55.715  1.00  0.00     0.169 HD
ENDROOT
BRANCH   1   5
HETATM    5  C   UNL     1     -42.347  56.134 -57.182  1.00  0.00     0.165 C 
BRANCH   5   6
HETATM    6  C   UNL     1     -43.646  56.833 -57.544  1.00  0.00     0.074 A 
HETATM    7  C   UNL     1     -44.384  56.360 -58.748  1.00  0.00     0.006 A 
HETATM    8  C   UNL     1     -43.947  55.297 -59.549  1.00  0.00     0.014 A 
HETATM    9  C   UNL     1     -45.568  57.018 -59.075  1.00  0.00     0.046 A 
HETATM   10  C   UNL     1     -44.690  54.912 -60.668  1.00  0.00     0.001 A 
HETATM   11  C   UNL     1     -45.871  55.579 -60.993  1.00  0.00     0.001 A 
HETATM   12  C   UNL     1     -46.313  56.634 -60.195  1.00  0.00     0.018 A 
HETATM   13  C   UNL     1     -46.033  58.120 -58.222  1.00  0.00     0.272 A 
HETATM   14  O   UNL     1     -47.066  58.733 -58.466  1.00  0.00    -0.266 OA
HETATM   15  N   UNL     1     -45.246  58.418 -57.136  1.00  0.00    -0.243 N 
HETATM   16  N   UNL     1     -44.083  57.804 -56.794  1.00  0.00    -0.175 NA
HETATM   17  H   UNL     1     -45.565  59.177 -56.541  1.00  0.00     0.192 HD
ENDBRANCH   5   6
ENDBRANCH   1   5
BRANCH   2  18
HETATM   18  C   UNL     1     -40.787  53.942 -54.460  1.00  0.00     0.035 A 
HETATM   19  C   UNL     1     -40.549  52.587 -54.704  1.00  0.00     0.047 A 
HETATM   20  C   UNL     1     -40.223  51.697 -53.657  1.00  0.00     0.071 A 
HETATM   21  C   UNL     1     -40.143  52.196 -52.353  1.00  0.00     0.049 A 
HETATM   22 CL   UNL     1     -39.751  51.191 -51.005  1.00  0.00    -0.083 Cl
HETATM   23  C   UNL     1     -40.381  53.548 -52.100  1.00  0.00     0.027 A 
HETATM   24  C   UNL     1     -40.700  54.415 -53.148  1.00  0.00     0.031 A 
BRANCH  20  25
HETATM   25  C   UNL     1     -39.969  50.245 -53.958  1.00  0.00     0.419 C 
HETATM   26  F   UNL     1     -38.795  50.023 -54.616  1.00  0.00    -0.166 F 
HETATM   27  F   UNL     1     -39.900  49.474 -52.836  1.00  0.00    -0.166 F 
HETATM   28  F   UNL     1     -40.931  49.689 -54.746  1.00  0.00    -0.166 F 
ENDBRANCH  20  25
ENDBRANCH   2  18
TORSDOF 4
ENDMDL
MODEL 4
REMARK VINA RESULT:      -8.8      1.835      2.345
REMARK  4 active torsions:
REMARK  status: ('A' for Active; 'I' for Inactive)
REMARK    1  A    between atoms: C_9  and  C_10 
REMARK    2  A    between atoms: C_10  and  C_11 
REMARK       I    between atoms: C_11  and  N_12 
REMARK    3  A    between atoms: N_12  and  C_13 
REMARK    4  A    between atoms: C_15  and  C_16 
ROOT
HETATM    1  C   UNL     1     -42.057  54.685 -55.790  1.00  0.00     0.227 C 
HETATM    2  N   UNL     1     -42.013  55.603 -56.812  1.00  0.00    -0.327 N 
HETATM    3  O   UNL     1     -43.085  54.177 -55.341  1.00  0.00    -0.273 OA
HETATM    4  H   UNL     1     -41.078  55.918 -57.076  1.00  0.00     0.169 HD
ENDROOT
BRANCH   1   5
HETATM    5  C   UNL     1     -40.729  54.263 -55.188  1.00  0.00     0.165 C 
BRANCH   5   6
HETATM    6  C   UNL     1     -40.600  53.863 -53.729  1.00  0.00     0.074 A 
HETATM    7  C   UNL     1     -40.235  52.453 -53.420  1.00  0.00     0.006 A 
HETATM    8  C   UNL     1     -39.991  51.488 -54.405  1.00  0.00     0.014 A 
HETATM    9  C   UNL     1     -40.132  52.096 -52.076  1.00  0.00     0.046 A 
HETATM   10  C   UNL     1     -39.657  50.181 -54.039  1.00  0.00     0.001 A 
HETATM   11  C   UNL     1     -39.563  49.829 -52.693  1.00  0.00     0.001 A 
HETATM   12  C   UNL     1     -39.798  50.788 -51.708  1.00  0.00     0.018 A 
HETATM   13  C   UNL     1     -40.371  53.115 -51.045  1.00  0.00     0.272 A 
HETATM   14  O   UNL     1     -40.295  52.853 -49.850  1.00  0.00    -0.266 OA
HETATM   15  N   UNL     1     -40.678  54.375 -51.500  1.00  0.00    -0.243 N 
HETATM   16  N   UNL     1     -40.795  54.754 -52.800  1.00  0.00    -0.175 NA
HETATM   17  H   UNL     1     -40.840  55.084 -50.791  1.00  0.00     0.192 HD
ENDBRANCH   5   6
ENDBRANCH   1   5
BRANCH   2  18
HETATM   18  C   UNL     1     -43.084  56.169 -57.529  1.00  0.00     0.035 A 
HETATM   19  C   UNL     1     -43.843  57.253 -57.083  1.00  0.00     0.047 A 
HETATM   20  C   UNL     1     -44.903  57.777 -57.856  1.00  0.00     0.071 A 
HETATM   21  C   UNL     1     -45.188  57.185 -59.091  1.00  0.00     0.049 A 
HETATM   22 CL   UNL     1     -46.461  57.750 -60.111  1.00  0.00    -0.083 Cl
HETATM   23  C   UNL     1     -44.435  56.100 -59.544  1.00  0.00     0.027 A 
HETATM   24  C   UNL     1     -43.389  55.597 -58.767  1.00  0.00     0.031 A 
BRANCH  20  25
HETATM   25  C   UNL     1     -45.697  58.947 -57.346  1.00  0.00     0.419 C 
HETATM   26  F   UNL     1     -47.034  58.695 -57.240  1.00  0.00    -0.166 F 
HETATM   27  F   UNL     1     -45.311  59.348 -56.101  1.00  0.00    -0.166 F 
HETATM   28  F   UNL     1     -45.604  60.044 -58.148  1.00  0.00    -0.166 F 
ENDBRANCH  20  25
ENDBRANCH   2  18
TORSDOF 4
ENDMDL
MODEL 5
REMARK VINA RESULT:      -8.7      4.449      8.939
REMARK  4 active torsions:
REMARK  status: ('A' for Active; 'I' for Inactive)
REMARK    1  A    between atoms: C_9  and  C_10 
REMARK    2  A    between atoms: C_10  and  C_11 
REMARK       I    between atoms: C_11  and  N_12 
REMARK    3  A    between atoms: N_12  and  C_13 
REMARK    4  A    between atoms: C_15  and  C_16 
ROOT
HETATM    1  C   UNL     1     -42.453  55.642 -55.870  1.00  0.00     0.227 C 
HETATM    2  N   UNL     1     -41.249  55.016 -55.655  1.00  0.00    -0.327 N 
HETATM    3  O   UNL     1     -43.450  55.519 -55.158  1.00  0.00    -0.273 OA
HETATM    4  H   UNL     1     -40.516  55.235 -56.332  1.00  0.00     0.169 HD
ENDROOT
BRANCH   1   5
HETATM    5  C   UNL     1     -42.542  56.566 -57.071  1.00  0.00     0.165 C 
BRANCH   5   6
HETATM    6  C   UNL     1     -43.473  56.281 -58.235  1.00  0.00     0.074 A 
HETATM    7  C   UNL     1     -44.726  57.080 -58.342  1.00  0.00     0.006 A 
HETATM    8  C   UNL     1     -45.075  58.087 -57.434  1.00  0.00     0.014 A 
HETATM    9  C   UNL     1     -45.578  56.799 -59.409  1.00  0.00     0.046 A 
HETATM   10  C   UNL     1     -46.271  58.792 -57.595  1.00  0.00     0.001 A 
HETATM   11  C   UNL     1     -47.122  58.501 -58.661  1.00  0.00     0.001 A 
HETATM   12  C   UNL     1     -46.775  57.504 -59.572  1.00  0.00     0.018 A 
HETATM   13  C   UNL     1     -45.199  55.754 -60.371  1.00  0.00     0.272 A 
HETATM   14  O   UNL     1     -45.913  55.468 -61.325  1.00  0.00    -0.266 OA
HETATM   15  N   UNL     1     -44.000  55.125 -60.140  1.00  0.00    -0.243 N 
HETATM   16  N   UNL     1     -43.152  55.368 -59.106  1.00  0.00    -0.175 NA
HETATM   17  H   UNL     1     -43.732  54.405 -60.805  1.00  0.00     0.192 HD
ENDBRANCH   5   6
ENDBRANCH   1   5
BRANCH   2  18
HETATM   18  C   UNL     1     -40.902  54.109 -54.637  1.00  0.00     0.035 A 
HETATM   19  C   UNL     1     -40.690  52.743 -54.839  1.00  0.00     0.047 A 
HETATM   20  C   UNL     1     -40.337  51.888 -53.771  1.00  0.00     0.071 A 
HETATM   21  C   UNL     1     -40.204  52.433 -52.490  1.00  0.00     0.049 A 
HETATM   22 CL   UNL     1     -39.776  51.474 -51.121  1.00  0.00    -0.083 Cl
HETATM   23  C   UNL     1     -40.415  53.797 -52.280  1.00  0.00     0.027 A 
HETATM   24  C   UNL     1     -40.761  54.629 -53.347  1.00  0.00     0.031 A 
BRANCH  20  25
HETATM   25  C   UNL     1     -40.113  50.423 -54.027  1.00  0.00     0.419 C 
HETATM   26  F   UNL     1     -41.143  49.822 -54.690  1.00  0.00    -0.166 F 
HETATM   27  F   UNL     1     -39.009  50.179 -54.788  1.00  0.00    -0.166 F 
HETATM   28  F   UNL     1     -39.956  49.701 -52.882  1.00  0.00    -0.166 F 
ENDBRANCH  20  25
ENDBRANCH   2  18
TORSDOF 4
ENDMDL
MODEL 6
REMARK VINA RESULT:      -8.6      1.775      2.341
REMARK  4 active torsions:
REMARK  status: ('A' for Active; 'I' for Inactive)
REMARK    1  A    between atoms: C_9  and  C_10 
REMARK    2  A    between atoms: C_10  and  C_11 
REMARK       I    between atoms: C_11  and  N_12 
REMARK    3  A    between atoms: N_12  and  C_13 
REMARK    4  A    between atoms: C_15  and  C_16 
ROOT
HETATM    1  C   UNL     1     -41.936  55.334 -54.184  1.00  0.00     0.227 C 
HETATM    2  N   UNL     1     -41.585  55.574 -55.490  1.00  0.00    -0.327 N 
HETATM    3  O   UNL     1     -43.036  55.584 -53.691  1.00  0.00    -0.273 OA
HETATM    4  H   UNL     1     -40.636  55.296 -55.746  1.00  0.00     0.169 HD
ENDROOT
BRANCH   1   5
HETATM    5  C   UNL     1     -40.883  54.696 -53.296  1.00  0.00     0.165 C 
BRANCH   5   6
HETATM    6  C   UNL     1     -40.456  53.250 -53.469  1.00  0.00     0.074 A 
HETATM    7  C   UNL     1     -40.335  52.405 -52.249  1.00  0.00     0.006 A 
HETATM    8  C   UNL     1     -40.610  52.874 -50.958  1.00  0.00     0.014 A 
HETATM    9  C   UNL     1     -39.930  51.082 -52.421  1.00  0.00     0.046 A 
HETATM   10  C   UNL     1     -40.469  52.024 -49.858  1.00  0.00     0.001 A 
HETATM   11  C   UNL     1     -40.058  50.703 -50.037  1.00  0.00     0.001 A 
HETATM   12  C   UNL     1     -39.789  50.229 -51.320  1.00  0.00     0.018 A 
HETATM   13  C   UNL     1     -39.660  50.587 -53.778  1.00  0.00     0.272 A 
HETATM   14  O   UNL     1     -39.300  49.434 -53.984  1.00  0.00    -0.266 OA
HETATM   15  N   UNL     1     -39.840  51.490 -54.797  1.00  0.00    -0.243 N 
HETATM   16  N   UNL     1     -40.224  52.788 -54.664  1.00  0.00    -0.175 NA
HETATM   17  H   UNL     1     -39.658  51.152 -55.738  1.00  0.00     0.192 HD
ENDBRANCH   5   6
ENDBRANCH   1   5
BRANCH   2  18
HETATM   18  C   UNL     1     -42.355  56.161 -56.512  1.00  0.00     0.035 A 
HETATM   19  C   UNL     1     -43.004  55.442 -57.519  1.00  0.00     0.047 A 
HETATM   20  C   UNL     1     -43.767  56.094 -58.514  1.00  0.00     0.071 A 
HETATM   21  C   UNL     1     -43.864  57.489 -58.477  1.00  0.00     0.049 A 
HETATM   22 CL   UNL     1     -44.772  58.379 -59.644  1.00  0.00    -0.083 Cl
HETATM   23  C   UNL     1     -43.218  58.214 -57.474  1.00  0.00     0.027 A 
HETATM   24  C   UNL     1     -42.470  57.554 -56.498  1.00  0.00     0.031 A 
BRANCH  20  25
HETATM   25  C   UNL     1     -44.454  55.288 -59.581  1.00  0.00     0.419 C 
HETATM   26  F   UNL     1     -44.340  53.940 -59.402  1.00  0.00    -0.166 F 
HETATM   27  F   UNL     1     -45.794  55.526 -59.646  1.00  0.00    -0.166 F 
HETATM   28  F   UNL     1     -43.961  55.526 -60.828  1.00  0.00    -0.166 F 
ENDBRANCH  20  25
ENDBRANCH   2  18
TORSDOF 4
ENDMDL
MODEL 7
REMARK VINA RESULT:      -8.6      4.768      8.603
REMARK  4 active torsions:
REMARK  status: ('A' for Active; 'I' for Inactive)
REMARK    1  A    between atoms: C_9  and  C_10 
REMARK    2  A    between atoms: C_10  and  C_11 
REMARK       I    between atoms: C_11  and  N_12 
REMARK    3  A    between atoms: N_12  and  C_13 
REMARK    4  A    between atoms: C_15  and  C_16 
ROOT
HETATM    1  C   UNL     1     -42.593  54.912 -55.938  1.00  0.00     0.227 C 
HETATM    2  N   UNL     1     -41.307  54.566 -55.603  1.00  0.00    -0.327 N 
HETATM    3  O   UNL     1     -43.604  54.526 -55.350  1.00  0.00    -0.273 OA
HETATM    4  H   UNL     1     -40.577  54.983 -56.184  1.00  0.00     0.169 HD
ENDROOT
BRANCH   1   5
HETATM    5  C   UNL     1     -42.767  55.854 -57.116  1.00  0.00     0.165 C 
BRANCH   5   6
HETATM    6  C   UNL     1     -42.494  57.343 -57.000  1.00  0.00     0.074 A 
HETATM    7  C   UNL     1     -42.310  58.121 -58.256  1.00  0.00     0.006 A 
HETATM    8  C   UNL     1     -42.392  57.551 -59.532  1.00  0.00     0.014 A 
HETATM    9  C   UNL     1     -42.048  59.485 -58.134  1.00  0.00     0.046 A 
HETATM   10  C   UNL     1     -42.203  58.344 -60.668  1.00  0.00     0.001 A 
HETATM   11  C   UNL     1     -41.935  59.707 -60.538  1.00  0.00     0.001 A 
HETATM   12  C   UNL     1     -41.859  60.280 -59.270  1.00  0.00     0.018 A 
HETATM   13  C   UNL     1     -41.982  60.084 -56.794  1.00  0.00     0.272 A 
HETATM   14  O   UNL     1     -41.753  61.276 -56.631  1.00  0.00    -0.266 OA
HETATM   15  N   UNL     1     -42.195  59.230 -55.739  1.00  0.00    -0.243 N 
HETATM   16  N   UNL     1     -42.443  57.896 -55.822  1.00  0.00    -0.175 NA
HETATM   17  H   UNL     1     -42.154  59.640 -54.810  1.00  0.00     0.192 HD
ENDBRANCH   5   6
ENDBRANCH   1   5
BRANCH   2  18
HETATM   18  C   UNL     1     -40.868  53.710 -54.576  1.00  0.00     0.035 A 
HETATM   19  C   UNL     1     -40.583  52.353 -54.751  1.00  0.00     0.047 A 
HETATM   20  C   UNL     1     -40.141  51.550 -53.677  1.00  0.00     0.071 A 
HETATM   21  C   UNL     1     -39.991  52.137 -52.417  1.00  0.00     0.049 A 
HETATM   22 CL   UNL     1     -39.457  51.243 -51.041  1.00  0.00    -0.083 Cl
HETATM   23  C   UNL     1     -40.275  53.492 -52.233  1.00  0.00     0.027 A 
HETATM   24  C   UNL     1     -40.709  54.273 -53.306  1.00  0.00     0.031 A 
BRANCH  20  25
HETATM   25  C   UNL     1     -39.840  50.094 -53.904  1.00  0.00     0.419 C 
HETATM   26  F   UNL     1     -40.007  49.323 -52.790  1.00  0.00    -0.166 F 
HETATM   27  F   UNL     1     -40.640  49.527 -54.851  1.00  0.00    -0.166 F 
HETATM   28  F   UNL     1     -38.557  49.871 -54.304  1.00  0.00    -0.166 F 
ENDBRANCH  20  25
ENDBRANCH   2  18
TORSDOF 4
ENDMDL
MODEL 8
REMARK VINA RESULT:      -8.6      5.180      9.154
REMARK  4 active torsions:
REMARK  status: ('A' for Active; 'I' for Inactive)
REMARK    1  A    between atoms: C_9  and  C_10 
REMARK    2  A    between atoms: C_10  and  C_11 
REMARK       I    between atoms: C_11  and  N_12 
REMARK    3  A    between atoms: N_12  and  C_13 
REMARK    4  A    between atoms: C_15  and  C_16 
ROOT
HETATM    1  C   UNL     1     -42.211  56.198 -54.448  1.00  0.00     0.227 C 
HETATM    2  N   UNL     1     -41.172  55.319 -54.637  1.00  0.00    -0.327 N 
HETATM    3  O   UNL     1     -42.962  56.204 -53.472  1.00  0.00    -0.273 OA
HETATM    4  H   UNL     1     -40.634  55.456 -55.495  1.00  0.00     0.169 HD
ENDROOT
BRANCH   1   5
HETATM    5  C   UNL     1     -42.429  57.245 -55.525  1.00  0.00     0.165 C 
BRANCH   5   6
HETATM    6  C   UNL     1     -42.766  56.867 -56.956  1.00  0.00     0.074 A 
HETATM    7  C   UNL     1     -42.534  57.880 -58.022  1.00  0.00     0.006 A 
HETATM    8  C   UNL     1     -42.007  59.154 -57.770  1.00  0.00     0.014 A 
HETATM    9  C   UNL     1     -42.859  57.524 -59.330  1.00  0.00     0.046 A 
HETATM   10  C   UNL     1     -41.821  60.056 -58.821  1.00  0.00     0.001 A 
HETATM   11  C   UNL     1     -42.155  59.695 -60.126  1.00  0.00     0.001 A 
HETATM   12  C   UNL     1     -42.673  58.426 -60.383  1.00  0.00     0.018 A 
HETATM   13  C   UNL     1     -43.394  56.181 -59.593  1.00  0.00     0.272 A 
HETATM   14  O   UNL     1     -43.697  55.819 -60.724  1.00  0.00    -0.266 OA
HETATM   15  N   UNL     1     -43.528  55.359 -58.501  1.00  0.00    -0.243 N 
HETATM   16  N   UNL     1     -43.230  55.678 -57.213  1.00  0.00    -0.175 NA
HETATM   17  H   UNL     1     -43.894  54.428 -58.678  1.00  0.00     0.192 HD
ENDBRANCH   5   6
ENDBRANCH   1   5
BRANCH   2  18
HETATM   18  C   UNL     1     -40.761  54.255 -53.812  1.00  0.00     0.035 A 
HETATM   19  C   UNL     1     -40.769  54.294 -52.416  1.00  0.00     0.047 A 
HETATM   20  C   UNL     1     -40.348  53.187 -51.647  1.00  0.00     0.071 A 
HETATM   21  C   UNL     1     -39.916  52.034 -52.310  1.00  0.00     0.049 A 
HETATM   22 CL   UNL     1     -39.383  50.629 -51.463  1.00  0.00    -0.083 Cl
HETATM   23  C   UNL     1     -39.904  51.988 -53.706  1.00  0.00     0.027 A 
HETATM   24  C   UNL     1     -40.326  53.091 -54.451  1.00  0.00     0.031 A 
BRANCH  20  25
HETATM   25  C   UNL     1     -40.373  53.264 -50.145  1.00  0.00     0.419 C 
HETATM   26  F   UNL     1     -41.425  53.980 -49.654  1.00  0.00    -0.166 F 
HETATM   27  F   UNL     1     -40.467  52.041 -49.552  1.00  0.00    -0.166 F 
HETATM   28  F   UNL     1     -39.263  53.858 -49.624  1.00  0.00    -0.166 F 
ENDBRANCH  20  25
ENDBRANCH   2  18
TORSDOF 4
ENDMDL
MODEL 9
REMARK VINA RESULT:      -8.5      5.007      8.992
REMARK  4 active torsions:
REMARK  status: ('A' for Active; 'I' for Inactive)
REMARK    1  A    between atoms: C_9  and  C_10 
REMARK    2  A    between atoms: C_10  and  C_11 
REMARK       I    between atoms: C_11  and  N_12 
REMARK    3  A    between atoms: N_12  and  C_13 
REMARK    4  A    between atoms: C_15  and  C_16 
ROOT
HETATM    1  C   UNL     1     -42.405  55.866 -55.782  1.00  0.00     0.227 C 
HETATM    2  N   UNL     1     -41.164  55.367 -55.469  1.00  0.00    -0.327 N 
HETATM    3  O   UNL     1     -43.445  55.604 -55.177  1.00  0.00    -0.273 OA
HETATM    4  H   UNL     1     -40.400  55.693 -56.062  1.00  0.00     0.169 HD
ENDROOT
BRANCH   1   5
HETATM    5  C   UNL     1     -42.484  56.824 -56.956  1.00  0.00     0.165 C 
BRANCH   5   6
HETATM    6  C   UNL     1     -43.811  57.336 -57.487  1.00  0.00     0.074 A 
HETATM    7  C   UNL     1     -44.402  56.651 -58.670  1.00  0.00     0.006 A 
HETATM    8  C   UNL     1     -43.804  55.554 -59.302  1.00  0.00     0.014 A 
HETATM    9  C   UNL     1     -45.615  57.139 -59.155  1.00  0.00     0.046 A 
HETATM   10  C   UNL     1     -44.415  54.965 -60.412  1.00  0.00     0.001 A 
HETATM   11  C   UNL     1     -45.625  55.462 -60.896  1.00  0.00     0.001 A 
HETATM   12  C   UNL     1     -46.229  56.550 -60.266  1.00  0.00     0.018 A 
HETATM   13  C   UNL     1     -46.249  58.278 -58.478  1.00  0.00     0.272 A 
HETATM   14  O   UNL     1     -47.314  58.746 -58.865  1.00  0.00    -0.266 OA
HETATM   15  N   UNL     1     -45.583  58.781 -57.388  1.00  0.00    -0.243 N 
HETATM   16  N   UNL     1     -44.396  58.336 -56.895  1.00  0.00    -0.175 NA
HETATM   17  H   UNL     1     -46.019  59.567 -56.914  1.00  0.00     0.192 HD
ENDBRANCH   5   6
ENDBRANCH   1   5
BRANCH   2  18
HETATM   18  C   UNL     1     -40.815  54.461 -54.449  1.00  0.00     0.035 A 
HETATM   19  C   UNL     1     -40.824  54.768 -53.087  1.00  0.00     0.047 A 
HETATM   20  C   UNL     1     -40.466  53.808 -52.114  1.00  0.00     0.071 A 
HETATM   21  C   UNL     1     -40.095  52.529 -52.538  1.00  0.00     0.049 A 
HETATM   22 CL   UNL     1     -39.641  51.286 -51.430  1.00  0.00    -0.083 Cl
HETATM   23  C   UNL     1     -40.082  52.214 -53.899  1.00  0.00     0.027 A 
HETATM   24  C   UNL     1     -40.441  53.174 -54.847  1.00  0.00     0.031 A 
BRANCH  20  25
HETATM   25  C   UNL     1     -40.492  54.174 -50.655  1.00  0.00     0.419 C 
HETATM   26  F   UNL     1     -41.353  53.414 -49.918  1.00  0.00    -0.166 F 
HETATM   27  F   UNL     1     -39.279  54.027 -50.050  1.00  0.00    -0.166 F 
HETATM   28  F   UNL     1     -40.875  55.463 -50.436  1.00  0.00    -0.166 F 
ENDBRANCH  20  25
ENDBRANCH   2  18
TORSDOF 4
ENDMDL
MODEL 10
REMARK VINA RESULT:      -8.5      4.994      9.273
REMARK  4 active torsions:
REMARK  status: ('A' for Active; 'I' for Inactive)
REMARK    1  A    between atoms: C_9  and  C_10 
REMARK    2  A    between atoms: C_10  and  C_11 
REMARK       I    between atoms: C_11  and  N_12 
REMARK    3  A    between atoms: N_12  and  C_13 
REMARK    4  A    between atoms: C_15  and  C_16 
ROOT
HETATM    1  C   UNL     1     -42.543  55.870 -55.819  1.00  0.00     0.227 C 
HETATM    2  N   UNL     1     -41.306  55.326 -55.572  1.00  0.00    -0.327 N 
HETATM    3  O   UNL     1     -43.549  55.679 -55.134  1.00  0.00    -0.273 OA
HETATM    4  H   UNL     1     -40.572  55.595 -56.229  1.00  0.00     0.169 HD
ENDROOT
BRANCH   1   5
HETATM    5  C   UNL     1     -42.662  56.788 -57.023  1.00  0.00     0.165 C 
BRANCH   5   6
HETATM    6  C   UNL     1     -43.513  56.425 -58.227  1.00  0.00     0.074 A 
HETATM    7  C   UNL     1     -44.762  57.202 -58.461  1.00  0.00     0.006 A 
HETATM    8  C   UNL     1     -45.178  58.256 -57.636  1.00  0.00     0.014 A 
HETATM    9  C   UNL     1     -45.540  56.851 -59.563  1.00  0.00     0.046 A 
HETATM   10  C   UNL     1     -46.366  58.937 -57.916  1.00  0.00     0.001 A 
HETATM   11  C   UNL     1     -47.143  58.576 -59.016  1.00  0.00     0.001 A 
HETATM   12  C   UNL     1     -46.730  57.533 -59.843  1.00  0.00     0.018 A 
HETATM   13  C   UNL     1     -45.092  55.758 -60.436  1.00  0.00     0.272 A 
HETATM   14  O   UNL     1     -45.739  55.409 -61.416  1.00  0.00    -0.266 OA
HETATM   15  N   UNL     1     -43.906  55.157 -60.091  1.00  0.00    -0.243 N 
HETATM   16  N   UNL     1     -43.128  55.468 -59.020  1.00  0.00    -0.175 NA
HETATM   17  H   UNL     1     -43.589  54.403 -60.694  1.00  0.00     0.192 HD
ENDBRANCH   5   6
ENDBRANCH   1   5
BRANCH   2  18
HETATM   18  C   UNL     1     -40.926  54.443 -54.544  1.00  0.00     0.035 A 
HETATM   19  C   UNL     1     -40.897  54.780 -53.189  1.00  0.00     0.047 A 
HETATM   20  C   UNL     1     -40.510  53.842 -52.206  1.00  0.00     0.071 A 
HETATM   21  C   UNL     1     -40.147  52.554 -52.614  1.00  0.00     0.049 A 
HETATM   22 CL   UNL     1     -39.659  51.336 -51.492  1.00  0.00    -0.083 Cl
HETATM   23  C   UNL     1     -40.172  52.210 -53.967  1.00  0.00     0.027 A 
HETATM   24  C   UNL     1     -40.560  53.149 -54.925  1.00  0.00     0.031 A 
BRANCH  20  25
HETATM   25  C   UNL     1     -40.494  54.238 -50.755  1.00  0.00     0.419 C 
HETATM   26  F   UNL     1     -39.282  54.061 -50.155  1.00  0.00    -0.166 F 
HETATM   27  F   UNL     1     -40.798  55.553 -50.561  1.00  0.00    -0.166 F 
HETATM   28  F   UNL     1     -41.376  53.526 -50.000  1.00  0.00    -0.166 F 
ENDBRANCH  20  25
ENDBRANCH   2  18
TORSDOF 4
ENDMDL
