MODEL 1
REMARK VINA RESULT:      -8.9      0.000      0.000
REMARK  6 active torsions:
REMARK  status: ('A' for Active; 'I' for Inactive)
REMARK    1  A    between atoms: O_2  and  C_3 
REMARK    2  A    between atoms: C_6  and  C_7 
REMARK    3  A    between atoms: C_11  and  C_12 
REMARK       I    between atoms: C_12  and  N_13 
REMARK    4  A    between atoms: N_13  and  N_14 
REMARK       I    between atoms: N_14  and  C_15 
REMARK    5  A    between atoms: C_15  and  C_16 
REMARK    6  A    between atoms: C_17  and  C_18 
ROOT
HETATM    1  C   UNL     1     -42.439  57.111 -56.725  1.00  0.00     0.288 C 
HETATM    2  N   UNL     1     -42.018  57.047 -58.038  1.00  0.00    -0.262 N 
HETATM    3  O   UNL     1     -42.909  58.144 -56.246  1.00  0.00    -0.264 OA
HETATM    4  H   UNL     1     -41.458  56.277 -58.395  1.00  0.00     0.190 HD
ENDROOT
BRANCH   1   5
HETATM    5  C   UNL     1     -42.282  55.907 -55.959  1.00  0.00     0.121 A 
HETATM    6  N   UNL     1     -43.275  54.972 -55.885  1.00  0.00    -0.272 N 
HETATM    7  N   UNL     1     -42.979  53.913 -55.119  1.00  0.00    -0.174 NA
HETATM    8  H   UNL     1     -44.184  55.012 -56.336  1.00  0.00     0.189 HD
HETATM    9  C   UNL     1     -41.729  54.143 -54.684  1.00  0.00     0.089 A 
HETATM   10  C   UNL     1     -41.258  55.390 -55.190  1.00  0.00     0.071 A 
BRANCH   9  11
HETATM   11  C   UNL     1     -41.033  53.194 -53.809  1.00  0.00    -0.005 A 
HETATM   12  C   UNL     1     -40.479  52.010 -54.310  1.00  0.00     0.016 A 
HETATM   13  C   UNL     1     -39.810  51.121 -53.460  1.00  0.00     0.037 A 
HETATM   14  C   UNL     1     -39.679  51.396 -52.098  1.00  0.00     0.068 A 
HETATM   15  C   UNL     1     -40.235  52.566 -51.586  1.00  0.00     0.037 A 
HETATM   16  C   UNL     1     -40.907  53.455 -52.436  1.00  0.00     0.016 A 
BRANCH  14  17
HETATM   17  O   UNL     1     -38.998  50.449 -51.385  1.00  0.00    -0.356 OA
HETATM   18  C   UNL     1     -39.772  49.587 -50.560  1.00  0.00     0.210 C 
ENDBRANCH  14  17
ENDBRANCH   9  11
ENDBRANCH   1   5
BRANCH   2  19
HETATM   19  N   UNL     1     -41.972  58.237 -58.779  1.00  0.00    -0.267 N 
HETATM   20  C   UNL     1     -42.165  58.157 -60.140  1.00  0.00     0.240 C 
HETATM   21  O   UNL     1     -42.522  57.133 -60.713  1.00  0.00    -0.271 OA
HETATM   22  H   UNL     1     -41.519  59.032 -58.333  1.00  0.00     0.190 HD
BRANCH  20  23
HETATM   23  C   UNL     1     -41.869  59.413 -60.881  1.00  0.00     0.089 A 
HETATM   24  C   UNL     1     -42.029  60.755 -60.187  1.00  0.00     0.036 A 
HETATM   25  C   UNL     1     -42.993  60.335 -61.272  1.00  0.00     0.025 A 
BRANCH  24  26
HETATM   26  C   UNL     1     -41.025  61.854 -60.445  1.00  0.00    -0.015 A 
HETATM   27  C   UNL     1     -40.222  62.374 -59.418  1.00  0.00     0.123 A 
HETATM   28  F   UNL     1     -40.331  61.871 -58.178  1.00  0.00    -0.206 F 
HETATM   29  C   UNL     1     -39.301  63.397 -59.639  1.00  0.00     0.043 A 
HETATM   30  C   UNL     1     -39.162  63.936 -60.914  1.00  0.00     0.003 A 
HETATM   31  C   UNL     1     -39.948  63.450 -61.956  1.00  0.00     0.001 A 
HETATM   32  C   UNL     1     -40.872  62.426 -61.721  1.00  0.00     0.011 A 
ENDBRANCH  24  26
ENDBRANCH  20  23
ENDBRANCH   2  19
TORSDOF 6
ENDMDL
MODEL 2
REMARK VINA RESULT:      -8.8      7.640      9.432
REMARK  6 active torsions:
REMARK  status: ('A' for Active; 'I' for Inactive)
REMARK    1  A    between atoms: O_2  and  C_3 
REMARK    2  A    between atoms: C_6  and  C_7 
REMARK    3  A    between atoms: C_11  and  C_12 
REMARK       I    between atoms: C_12  and  N_13 
REMARK    4  A    between atoms: N_13  and  N_14 
REMARK       I    between atoms: N_14  and  C_15 
REMARK    5  A    between atoms: C_15  and  C_16 
REMARK    6  A    between atoms: C_17  and  C_18 
ROOT
HETATM    1  C   UNL     1     -44.211  58.015 -51.100  1.00  0.00     0.288 C 
HETATM    2  N   UNL     1     -43.336  59.064 -50.903  1.00  0.00    -0.262 N 
HETATM    3  O   UNL     1     -45.368  58.049 -50.681  1.00  0.00    -0.264 OA
HETATM    4  H   UNL     1     -42.336  58.980 -51.066  1.00  0.00     0.190 HD
ENDROOT
BRANCH   1   5
HETATM    5  C   UNL     1     -43.680  56.885 -51.810  1.00  0.00     0.121 A 
HETATM    6  N   UNL     1     -44.227  56.460 -52.988  1.00  0.00    -0.272 N 
HETATM    7  N   UNL     1     -43.627  55.386 -53.518  1.00  0.00    -0.174 NA
HETATM    8  H   UNL     1     -45.020  56.867 -53.474  1.00  0.00     0.189 HD
HETATM    9  C   UNL     1     -42.627  55.098 -52.669  1.00  0.00     0.089 A 
HETATM   10  C   UNL     1     -42.630  56.018 -51.580  1.00  0.00     0.071 A 
BRANCH   9  11
HETATM   11  C   UNL     1     -41.717  53.971 -52.906  1.00  0.00    -0.005 A 
HETATM   12  C   UNL     1     -41.627  53.358 -54.161  1.00  0.00     0.016 A 
HETATM   13  C   UNL     1     -40.746  52.289 -54.370  1.00  0.00     0.037 A 
HETATM   14  C   UNL     1     -39.939  51.816 -53.334  1.00  0.00     0.068 A 
HETATM   15  C   UNL     1     -40.026  52.412 -52.079  1.00  0.00     0.037 A 
HETATM   16  C   UNL     1     -40.910  53.480 -51.869  1.00  0.00     0.016 A 
BRANCH  14  17
HETATM   17  O   UNL     1     -39.120  50.775 -53.676  1.00  0.00    -0.356 OA
HETATM   18  C   UNL     1     -39.667  49.785 -54.537  1.00  0.00     0.210 C 
ENDBRANCH  14  17
ENDBRANCH   9  11
ENDBRANCH   1   5
BRANCH   2  19
HETATM   19  N   UNL     1     -43.735  60.111 -50.058  1.00  0.00    -0.267 N 
HETATM   20  C   UNL     1     -43.788  61.381 -50.585  1.00  0.00     0.240 C 
HETATM   21  O   UNL     1     -43.654  61.623 -51.780  1.00  0.00    -0.271 OA
HETATM   22  H   UNL     1     -43.681  59.931 -49.057  1.00  0.00     0.190 HD
BRANCH  20  23
HETATM   23  C   UNL     1     -43.989  62.460 -49.580  1.00  0.00     0.089 A 
HETATM   24  C   UNL     1     -45.231  62.456 -48.705  1.00  0.00     0.036 A 
HETATM   25  C   UNL     1     -45.063  63.493 -49.792  1.00  0.00     0.025 A 
BRANCH  24  26
HETATM   26  C   UNL     1     -45.122  62.854 -47.252  1.00  0.00    -0.015 A 
HETATM   27  C   UNL     1     -44.988  61.896 -46.235  1.00  0.00     0.123 A 
HETATM   28  F   UNL     1     -44.933  60.594 -46.559  1.00  0.00    -0.206 F 
HETATM   29  C   UNL     1     -44.899  62.247 -44.888  1.00  0.00     0.043 A 
HETATM   30  C   UNL     1     -44.949  63.588 -44.522  1.00  0.00     0.003 A 
HETATM   31  C   UNL     1     -45.091  64.566 -45.504  1.00  0.00     0.001 A 
HETATM   32  C   UNL     1     -45.182  64.200 -46.851  1.00  0.00     0.011 A 
ENDBRANCH  24  26
ENDBRANCH  20  23
ENDBRANCH   2  19
TORSDOF 6
ENDMDL
MODEL 3
REMARK VINA RESULT:      -8.3     17.326     19.038
REMARK  6 active torsions:
REMARK  status: ('A' for Active; 'I' for Inactive)
REMARK    1  A    between atoms: O_2  and  C_3 
REMARK    2  A    between atoms: C_6  and  C_7 
REMARK    3  A    between atoms: C_11  and  C_12 
REMARK       I    between atoms: C_12  and  N_13 
REMARK    4  A    between atoms: N_13  and  N_14 
REMARK       I    between atoms: N_14  and  C_15 
REMARK    5  A    between atoms: C_15  and  C_16 
REMARK    6  A    between atoms: C_17  and  C_18 
ROOT
HETATM    1  C   UNL     1     -37.234  41.147 -55.864  1.00  0.00     0.288 C 
HETATM    2  N   UNL     1     -37.409  39.858 -56.327  1.00  0.00    -0.262 N 
HETATM    3  O   UNL     1     -37.747  42.113 -56.429  1.00  0.00    -0.264 OA
HETATM    4  H   UNL     1     -36.847  39.078 -55.996  1.00  0.00     0.190 HD
ENDROOT
BRANCH   1   5
HETATM    5  C   UNL     1     -36.412  41.284 -54.695  1.00  0.00     0.121 A 
HETATM    6  N   UNL     1     -36.511  42.373 -53.875  1.00  0.00    -0.272 N 
HETATM    7  N   UNL     1     -35.665  42.358 -52.836  1.00  0.00    -0.174 NA
HETATM    8  H   UNL     1     -37.139  43.163 -53.984  1.00  0.00     0.189 HD
HETATM    9  C   UNL     1     -34.992  41.202 -52.957  1.00  0.00     0.089 A 
HETATM   10  C   UNL     1     -35.432  40.500 -54.117  1.00  0.00     0.071 A 
BRANCH   9  11
HETATM   11  C   UNL     1     -33.961  40.807 -51.991  1.00  0.00    -0.005 A 
HETATM   12  C   UNL     1     -34.258  40.646 -50.632  1.00  0.00     0.016 A 
HETATM   13  C   UNL     1     -33.262  40.260 -49.726  1.00  0.00     0.037 A 
HETATM   14  C   UNL     1     -31.955  40.025 -50.158  1.00  0.00     0.068 A 
HETATM   15  C   UNL     1     -31.646  40.191 -51.506  1.00  0.00     0.037 A 
HETATM   16  C   UNL     1     -32.642  40.581 -52.412  1.00  0.00     0.016 A 
BRANCH  14  17
HETATM   17  O   UNL     1     -31.086  39.647 -49.173  1.00  0.00    -0.356 OA
HETATM   18  C   UNL     1     -31.655  39.260 -47.929  1.00  0.00     0.210 C 
ENDBRANCH  14  17
ENDBRANCH   9  11
ENDBRANCH   1   5
BRANCH   2  19
HETATM   19  N   UNL     1     -38.043  39.678 -57.565  1.00  0.00    -0.267 N 
HETATM   20  C   UNL     1     -37.249  39.491 -58.675  1.00  0.00     0.240 C 
HETATM   21  O   UNL     1     -36.035  39.323 -58.617  1.00  0.00    -0.271 OA
HETATM   22  H   UNL     1     -39.013  39.981 -57.627  1.00  0.00     0.190 HD
BRANCH  20  23
HETATM   23  C   UNL     1     -37.977  39.543 -59.971  1.00  0.00     0.089 A 
HETATM   24  C   UNL     1     -38.243  38.259 -60.741  1.00  0.00     0.036 A 
HETATM   25  C   UNL     1     -37.242  39.268 -61.256  1.00  0.00     0.025 A 
BRANCH  24  26
HETATM   26  C   UNL     1     -39.567  38.073 -61.446  1.00  0.00    -0.015 A 
HETATM   27  C   UNL     1     -39.637  37.852 -62.830  1.00  0.00     0.123 A 
HETATM   28  F   UNL     1     -38.504  37.783 -63.546  1.00  0.00    -0.206 F 
HETATM   29  C   UNL     1     -40.852  37.691 -63.497  1.00  0.00     0.043 A 
HETATM   30  C   UNL     1     -42.043  37.754 -62.782  1.00  0.00     0.003 A 
HETATM   31  C   UNL     1     -42.011  37.980 -61.408  1.00  0.00     0.001 A 
HETATM   32  C   UNL     1     -40.787  38.143 -60.751  1.00  0.00     0.011 A 
ENDBRANCH  24  26
ENDBRANCH  20  23
ENDBRANCH   2  19
TORSDOF 6
ENDMDL
MODEL 4
REMARK VINA RESULT:      -8.2      4.551      5.541
REMARK  6 active torsions:
REMARK  status: ('A' for Active; 'I' for Inactive)
REMARK    1  A    between atoms: O_2  and  C_3 
REMARK    2  A    between atoms: C_6  and  C_7 
REMARK    3  A    between atoms: C_11  and  C_12 
REMARK       I    between atoms: C_12  and  N_13 
REMARK    4  A    between atoms: N_13  and  N_14 
REMARK       I    between atoms: N_14  and  C_15 
REMARK    5  A    between atoms: C_15  and  C_16 
REMARK    6  A    between atoms: C_17  and  C_18 
ROOT
HETATM    1  C   UNL     1     -43.312  55.823 -57.244  1.00  0.00     0.288 C 
HETATM    2  N   UNL     1     -43.986  56.985 -56.929  1.00  0.00    -0.262 N 
HETATM    3  O   UNL     1     -43.481  55.247 -58.319  1.00  0.00    -0.264 OA
HETATM    4  H   UNL     1     -44.009  57.366 -55.986  1.00  0.00     0.190 HD
ENDROOT
BRANCH   1   5
HETATM    5  C   UNL     1     -42.417  55.328 -56.236  1.00  0.00     0.121 A 
HETATM    6  N   UNL     1     -41.417  56.105 -55.724  1.00  0.00    -0.272 N 
HETATM    7  N   UNL     1     -40.661  55.492 -54.802  1.00  0.00    -0.174 NA
HETATM    8  H   UNL     1     -41.201  57.064 -55.975  1.00  0.00     0.189 HD
HETATM    9  C   UNL     1     -41.194  54.265 -54.681  1.00  0.00     0.089 A 
HETATM   10  C   UNL     1     -42.300  54.124 -55.569  1.00  0.00     0.071 A 
BRANCH   9  11
HETATM   11  C   UNL     1     -40.642  53.276 -53.749  1.00  0.00    -0.005 A 
HETATM   12  C   UNL     1     -40.588  53.523 -52.371  1.00  0.00     0.016 A 
HETATM   13  C   UNL     1     -40.066  52.562 -51.496  1.00  0.00     0.037 A 
HETATM   14  C   UNL     1     -39.593  51.340 -51.976  1.00  0.00     0.068 A 
HETATM   15  C   UNL     1     -39.634  51.087 -53.345  1.00  0.00     0.037 A 
HETATM   16  C   UNL     1     -40.153  52.050 -54.222  1.00  0.00     0.016 A 
BRANCH  14  17
HETATM   17  O   UNL     1     -39.118  50.492 -51.015  1.00  0.00    -0.356 OA
HETATM   18  C   UNL     1     -39.847  49.290 -50.803  1.00  0.00     0.210 C 
ENDBRANCH  14  17
ENDBRANCH   9  11
ENDBRANCH   1   5
BRANCH   2  19
HETATM   19  N   UNL     1     -45.008  57.414 -57.790  1.00  0.00    -0.267 N 
HETATM   20  C   UNL     1     -45.948  58.288 -57.291  1.00  0.00     0.240 C 
HETATM   21  O   UNL     1     -45.855  58.825 -56.192  1.00  0.00    -0.271 OA
HETATM   22  H   UNL     1     -45.169  56.847 -58.620  1.00  0.00     0.190 HD
BRANCH  20  23
HETATM   23  C   UNL     1     -47.119  58.509 -58.180  1.00  0.00     0.089 A 
HETATM   24  C   UNL     1     -46.918  59.119 -59.558  1.00  0.00     0.036 A 
HETATM   25  C   UNL     1     -47.594  59.911 -58.462  1.00  0.00     0.025 A 
BRANCH  24  26
HETATM   26  C   UNL     1     -47.722  58.601 -60.728  1.00  0.00    -0.015 A 
HETATM   27  C   UNL     1     -47.597  57.278 -61.178  1.00  0.00     0.123 A 
HETATM   28  F   UNL     1     -46.760  56.442 -60.544  1.00  0.00    -0.206 F 
HETATM   29  C   UNL     1     -48.323  56.790 -62.265  1.00  0.00     0.043 A 
HETATM   30  C   UNL     1     -49.201  57.631 -62.940  1.00  0.00     0.003 A 
HETATM   31  C   UNL     1     -49.344  58.953 -62.526  1.00  0.00     0.001 A 
HETATM   32  C   UNL     1     -48.608  59.432 -61.437  1.00  0.00     0.011 A 
ENDBRANCH  24  26
ENDBRANCH  20  23
ENDBRANCH   2  19
TORSDOF 6
ENDMDL
MODEL 5
REMARK VINA RESULT:      -8.2      3.117     11.247
REMARK  6 active torsions:
REMARK  status: ('A' for Active; 'I' for Inactive)
REMARK    1  A    between atoms: O_2  and  C_3 
REMARK    2  A    between atoms: C_6  and  C_7 
REMARK    3  A    between atoms: C_11  and  C_12 
REMARK       I    between atoms: C_12  and  N_13 
REMARK    4  A    between atoms: N_13  and  N_14 
REMARK       I    between atoms: N_14  and  C_15 
REMARK    5  A    between atoms: C_15  and  C_16 
REMARK    6  A    between atoms: C_17  and  C_18 
ROOT
HETATM    1  C   UNL     1     -42.934  58.093 -56.394  1.00  0.00     0.288 C 
HETATM    2  N   UNL     1     -42.054  57.590 -55.458  1.00  0.00    -0.262 N 
HETATM    3  O   UNL     1     -43.997  57.527 -56.652  1.00  0.00    -0.264 OA
HETATM    4  H   UNL     1     -41.099  57.928 -55.369  1.00  0.00     0.190 HD
ENDROOT
BRANCH   1   5
HETATM    5  C   UNL     1     -42.525  59.303 -57.049  1.00  0.00     0.121 A 
HETATM    6  N   UNL     1     -42.924  60.530 -56.599  1.00  0.00    -0.272 N 
HETATM    7  N   UNL     1     -42.469  61.559 -57.327  1.00  0.00    -0.174 NA
HETATM    8  H   UNL     1     -43.516  60.722 -55.797  1.00  0.00     0.189 HD
HETATM    9  C   UNL     1     -41.719  60.994 -58.288  1.00  0.00     0.089 A 
HETATM   10  C   UNL     1     -41.733  59.575 -58.147  1.00  0.00     0.071 A 
BRANCH   9  11
HETATM   11  C   UNL     1     -41.030  61.802 -59.300  1.00  0.00    -0.005 A 
HETATM   12  C   UNL     1     -39.997  62.681 -58.954  1.00  0.00     0.016 A 
HETATM   13  C   UNL     1     -39.346  63.437 -59.936  1.00  0.00     0.037 A 
HETATM   14  C   UNL     1     -39.709  63.329 -61.279  1.00  0.00     0.068 A 
HETATM   15  C   UNL     1     -40.741  62.464 -61.635  1.00  0.00     0.037 A 
HETATM   16  C   UNL     1     -41.396  61.709 -60.652  1.00  0.00     0.016 A 
BRANCH  14  17
HETATM   17  O   UNL     1     -38.988  64.116 -62.133  1.00  0.00    -0.356 OA
HETATM   18  C   UNL     1     -38.529  63.508 -63.334  1.00  0.00     0.210 C 
ENDBRANCH  14  17
ENDBRANCH   9  11
ENDBRANCH   1   5
BRANCH   2  19
HETATM   19  N   UNL     1     -42.308  56.318 -54.923  1.00  0.00    -0.267 N 
HETATM   20  C   UNL     1     -41.481  55.862 -53.921  1.00  0.00     0.240 C 
HETATM   21  O   UNL     1     -40.635  56.561 -53.372  1.00  0.00    -0.271 OA
HETATM   22  H   UNL     1     -42.887  55.697 -55.485  1.00  0.00     0.190 HD
BRANCH  20  23
HETATM   23  C   UNL     1     -41.665  54.427 -53.573  1.00  0.00     0.089 A 
HETATM   24  C   UNL     1     -40.644  53.400 -54.033  1.00  0.00     0.036 A 
HETATM   25  C   UNL     1     -42.025  53.435 -54.647  1.00  0.00     0.025 A 
BRANCH  24  26
HETATM   26  C   UNL     1     -40.250  52.272 -53.108  1.00  0.00    -0.015 A 
HETATM   27  C   UNL     1     -39.937  50.995 -53.597  1.00  0.00     0.123 A 
HETATM   28  F   UNL     1     -39.966  50.771 -54.920  1.00  0.00    -0.206 F 
HETATM   29  C   UNL     1     -39.586  49.941 -52.754  1.00  0.00     0.043 A 
HETATM   30  C   UNL     1     -39.544  50.143 -51.379  1.00  0.00     0.003 A 
HETATM   31  C   UNL     1     -39.857  51.396 -50.857  1.00  0.00     0.001 A 
HETATM   32  C   UNL     1     -40.212  52.445 -51.713  1.00  0.00     0.011 A 
ENDBRANCH  24  26
ENDBRANCH  20  23
ENDBRANCH   2  19
TORSDOF 6
ENDMDL
MODEL 6
REMARK VINA RESULT:      -8.2     17.040     19.770
REMARK  6 active torsions:
REMARK  status: ('A' for Active; 'I' for Inactive)
REMARK    1  A    between atoms: O_2  and  C_3 
REMARK    2  A    between atoms: C_6  and  C_7 
REMARK    3  A    between atoms: C_11  and  C_12 
REMARK       I    between atoms: C_12  and  N_13 
REMARK    4  A    between atoms: N_13  and  N_14 
REMARK       I    between atoms: N_14  and  C_15 
REMARK    5  A    between atoms: C_15  and  C_16 
REMARK    6  A    between atoms: C_17  and  C_18 
ROOT
HETATM    1  C   UNL     1     -33.016  40.591 -52.318  1.00  0.00     0.288 C 
HETATM    2  N   UNL     1     -34.142  41.382 -52.220  1.00  0.00    -0.262 N 
HETATM    3  O   UNL     1     -32.397  40.474 -53.377  1.00  0.00    -0.264 OA
HETATM    4  H   UNL     1     -34.770  41.342 -51.421  1.00  0.00     0.190 HD
ENDROOT
BRANCH   1   5
HETATM    5  C   UNL     1     -32.625  39.908 -51.117  1.00  0.00     0.121 A 
HETATM    6  N   UNL     1     -32.298  38.582 -51.123  1.00  0.00    -0.272 N 
HETATM    7  N   UNL     1     -31.969  38.090 -49.920  1.00  0.00    -0.174 NA
HETATM    8  H   UNL     1     -32.289  37.960 -51.925  1.00  0.00     0.189 HD
HETATM    9  C   UNL     1     -32.060  39.138 -49.085  1.00  0.00     0.089 A 
HETATM   10  C   UNL     1     -32.473  40.299 -49.801  1.00  0.00     0.071 A 
BRANCH   9  11
HETATM   11  C   UNL     1     -31.767  39.008 -47.653  1.00  0.00    -0.005 A 
HETATM   12  C   UNL     1     -30.776  39.783 -47.038  1.00  0.00     0.016 A 
HETATM   13  C   UNL     1     -30.517  39.650 -45.668  1.00  0.00     0.037 A 
HETATM   14  C   UNL     1     -31.241  38.746 -44.888  1.00  0.00     0.068 A 
HETATM   15  C   UNL     1     -32.222  37.964 -45.491  1.00  0.00     0.037 A 
HETATM   16  C   UNL     1     -32.480  38.094 -46.863  1.00  0.00     0.016 A 
BRANCH  14  17
HETATM   17  O   UNL     1     -30.892  38.723 -43.566  1.00  0.00    -0.356 OA
HETATM   18  C   UNL     1     -29.504  38.633 -43.270  1.00  0.00     0.210 C 
ENDBRANCH  14  17
ENDBRANCH   9  11
ENDBRANCH   1   5
BRANCH   2  19
HETATM   19  N   UNL     1     -34.679  41.922 -53.398  1.00  0.00    -0.267 N 
HETATM   20  C   UNL     1     -35.683  41.222 -54.029  1.00  0.00     0.240 C 
HETATM   21  O   UNL     1     -36.232  40.240 -53.541  1.00  0.00    -0.271 OA
HETATM   22  H   UNL     1     -34.118  42.627 -53.871  1.00  0.00     0.190 HD
BRANCH  20  23
HETATM   23  C   UNL     1     -36.035  41.731 -55.382  1.00  0.00     0.089 A 
HETATM   24  C   UNL     1     -35.264  41.242 -56.597  1.00  0.00     0.036 A 
HETATM   25  C   UNL     1     -35.094  42.660 -56.102  1.00  0.00     0.025 A 
BRANCH  24  26
HETATM   26  C   UNL     1     -36.000  40.971 -57.889  1.00  0.00    -0.015 A 
HETATM   27  C   UNL     1     -35.973  39.707 -58.499  1.00  0.00     0.123 A 
HETATM   28  F   UNL     1     -35.295  38.707 -57.914  1.00  0.00    -0.206 F 
HETATM   29  C   UNL     1     -36.636  39.446 -59.698  1.00  0.00     0.043 A 
HETATM   30  C   UNL     1     -37.350  40.461 -60.326  1.00  0.00     0.003 A 
HETATM   31  C   UNL     1     -37.392  41.730 -59.753  1.00  0.00     0.001 A 
HETATM   32  C   UNL     1     -36.719  41.981 -58.552  1.00  0.00     0.011 A 
ENDBRANCH  24  26
ENDBRANCH  20  23
ENDBRANCH   2  19
TORSDOF 6
ENDMDL
MODEL 7
REMARK VINA RESULT:      -8.0      4.527     11.156
REMARK  6 active torsions:
REMARK  status: ('A' for Active; 'I' for Inactive)
REMARK    1  A    between atoms: O_2  and  C_3 
REMARK    2  A    between atoms: C_6  and  C_7 
REMARK    3  A    between atoms: C_11  and  C_12 
REMARK       I    between atoms: C_12  and  N_13 
REMARK    4  A    between atoms: N_13  and  N_14 
REMARK       I    between atoms: N_14  and  C_15 
REMARK    5  A    between atoms: C_15  and  C_16 
REMARK    6  A    between atoms: C_17  and  C_18 
ROOT
HETATM    1  C   UNL     1     -43.448  57.035 -57.794  1.00  0.00     0.288 C 
HETATM    2  N   UNL     1     -43.844  55.873 -57.165  1.00  0.00    -0.262 N 
HETATM    3  O   UNL     1     -42.382  57.588 -57.521  1.00  0.00    -0.264 OA
HETATM    4  H   UNL     1     -44.792  55.510 -57.233  1.00  0.00     0.190 HD
ENDROOT
BRANCH   1   5
HETATM    5  C   UNL     1     -44.360  57.559 -58.772  1.00  0.00     0.121 A 
HETATM    6  N   UNL     1     -44.086  58.705 -59.463  1.00  0.00    -0.272 N 
HETATM    7  N   UNL     1     -45.043  59.069 -60.328  1.00  0.00    -0.174 NA
HETATM    8  H   UNL     1     -43.258  59.286 -59.377  1.00  0.00     0.189 HD
HETATM    9  C   UNL     1     -45.981  58.113 -60.223  1.00  0.00     0.089 A 
HETATM   10  C   UNL     1     -45.588  57.147 -59.252  1.00  0.00     0.071 A 
BRANCH   9  11
HETATM   11  C   UNL     1     -47.207  58.149 -61.028  1.00  0.00    -0.005 A 
HETATM   12  C   UNL     1     -47.774  56.978 -61.547  1.00  0.00     0.016 A 
HETATM   13  C   UNL     1     -48.950  57.032 -62.306  1.00  0.00     0.037 A 
HETATM   14  C   UNL     1     -49.583  58.250 -62.557  1.00  0.00     0.068 A 
HETATM   15  C   UNL     1     -49.024  59.422 -62.053  1.00  0.00     0.037 A 
HETATM   16  C   UNL     1     -47.845  59.369 -61.297  1.00  0.00     0.016 A 
BRANCH  14  17
HETATM   17  O   UNL     1     -50.726  58.159 -63.303  1.00  0.00    -0.356 OA
HETATM   18  C   UNL     1     -51.146  59.337 -63.978  1.00  0.00     0.210 C 
ENDBRANCH  14  17
ENDBRANCH   9  11
ENDBRANCH   1   5
BRANCH   2  19
HETATM   19  N   UNL     1     -43.090  55.418 -56.074  1.00  0.00    -0.267 N 
HETATM   20  C   UNL     1     -43.449  55.847 -54.816  1.00  0.00     0.240 C 
HETATM   21  O   UNL     1     -44.476  56.479 -54.586  1.00  0.00    -0.271 OA
HETATM   22  H   UNL     1     -42.166  55.044 -56.285  1.00  0.00     0.190 HD
BRANCH  20  23
HETATM   23  C   UNL     1     -42.470  55.516 -53.746  1.00  0.00     0.089 A 
HETATM   24  C   UNL     1     -42.660  54.261 -52.910  1.00  0.00     0.036 A 
HETATM   25  C   UNL     1     -42.873  55.627 -52.300  1.00  0.00     0.025 A 
BRANCH  24  26
HETATM   26  C   UNL     1     -41.456  53.434 -52.522  1.00  0.00    -0.015 A 
HETATM   27  C   UNL     1     -40.814  52.592 -53.443  1.00  0.00     0.123 A 
HETATM   28  F   UNL     1     -41.263  52.533 -54.707  1.00  0.00    -0.206 F 
HETATM   29  C   UNL     1     -39.711  51.812 -53.095  1.00  0.00     0.043 A 
HETATM   30  C   UNL     1     -39.220  51.855 -51.795  1.00  0.00     0.003 A 
HETATM   31  C   UNL     1     -39.839  52.673 -50.852  1.00  0.00     0.001 A 
HETATM   32  C   UNL     1     -40.946  53.447 -51.212  1.00  0.00     0.011 A 
ENDBRANCH  24  26
ENDBRANCH  20  23
ENDBRANCH   2  19
TORSDOF 6
ENDMDL
MODEL 8
REMARK VINA RESULT:      -8.0      1.786      2.678
REMARK  6 active torsions:
REMARK  status: ('A' for Active; 'I' for Inactive)
REMARK    1  A    between atoms: O_2  and  C_3 
REMARK    2  A    between atoms: C_6  and  C_7 
REMARK    3  A    between atoms: C_11  and  C_12 
REMARK       I    between atoms: C_12  and  N_13 
REMARK    4  A    between atoms: N_13  and  N_14 
REMARK       I    between atoms: N_14  and  C_15 
REMARK    5  A    between atoms: C_15  and  C_16 
REMARK    6  A    between atoms: C_17  and  C_18 
ROOT
HETATM    1  C   UNL     1     -43.091  57.013 -57.109  1.00  0.00     0.288 C 
HETATM    2  N   UNL     1     -41.961  57.589 -57.652  1.00  0.00    -0.262 N 
HETATM    3  O   UNL     1     -44.221  57.312 -57.498  1.00  0.00    -0.264 OA
HETATM    4  H   UNL     1     -41.043  57.504 -57.222  1.00  0.00     0.190 HD
ENDROOT
BRANCH   1   5
HETATM    5  C   UNL     1     -42.863  56.059 -56.060  1.00  0.00     0.121 A 
HETATM    6  N   UNL     1     -43.874  55.646 -55.238  1.00  0.00    -0.272 N 
HETATM    7  N   UNL     1     -43.496  54.764 -54.302  1.00  0.00    -0.174 NA
HETATM    8  H   UNL     1     -44.844  55.942 -55.269  1.00  0.00     0.189 HD
HETATM    9  C   UNL     1     -42.186  54.567 -54.525  1.00  0.00     0.089 A 
HETATM   10  C   UNL     1     -41.752  55.366 -55.622  1.00  0.00     0.071 A 
BRANCH   9  11
HETATM   11  C   UNL     1     -41.396  53.647 -53.699  1.00  0.00    -0.005 A 
HETATM   12  C   UNL     1     -40.689  52.580 -54.267  1.00  0.00     0.016 A 
HETATM   13  C   UNL     1     -39.933  51.719 -53.462  1.00  0.00     0.037 A 
HETATM   14  C   UNL     1     -39.866  51.905 -52.081  1.00  0.00     0.068 A 
HETATM   15  C   UNL     1     -40.573  52.957 -51.503  1.00  0.00     0.037 A 
HETATM   16  C   UNL     1     -41.333  53.818 -52.308  1.00  0.00     0.016 A 
BRANCH  14  17
HETATM   17  O   UNL     1     -39.088  50.998 -51.417  1.00  0.00    -0.356 OA
HETATM   18  C   UNL     1     -39.563  49.659 -51.368  1.00  0.00     0.210 C 
ENDBRANCH  14  17
ENDBRANCH   9  11
ENDBRANCH   1   5
BRANCH   2  19
HETATM   19  N   UNL     1     -42.124  58.660 -58.543  1.00  0.00    -0.267 N 
HETATM   20  C   UNL     1     -41.816  59.925 -58.096  1.00  0.00     0.240 C 
HETATM   21  O   UNL     1     -41.267  60.146 -57.021  1.00  0.00    -0.271 OA
HETATM   22  H   UNL     1     -42.723  58.491 -59.350  1.00  0.00     0.190 HD
BRANCH  20  23
HETATM   23  C   UNL     1     -42.234  61.022 -59.009  1.00  0.00     0.089 A 
HETATM   24  C   UNL     1     -41.653  61.102 -60.411  1.00  0.00     0.036 A 
HETATM   25  C   UNL     1     -41.262  62.117 -59.361  1.00  0.00     0.025 A 
BRANCH  24  26
HETATM   26  C   UNL     1     -42.541  61.506 -61.565  1.00  0.00    -0.015 A 
HETATM   27  C   UNL     1     -43.560  60.665 -62.038  1.00  0.00     0.123 A 
HETATM   28  F   UNL     1     -43.768  59.481 -61.441  1.00  0.00    -0.206 F 
HETATM   29  C   UNL     1     -44.378  61.018 -63.111  1.00  0.00     0.043 A 
HETATM   30  C   UNL     1     -44.189  62.239 -63.749  1.00  0.00     0.003 A 
HETATM   31  C   UNL     1     -43.181  63.096 -63.311  1.00  0.00     0.001 A 
HETATM   32  C   UNL     1     -42.364  62.729 -62.236  1.00  0.00     0.011 A 
ENDBRANCH  24  26
ENDBRANCH  20  23
ENDBRANCH   2  19
TORSDOF 6
ENDMDL
MODEL 9
REMARK VINA RESULT:      -7.9     17.016     18.892
REMARK  6 active torsions:
REMARK  status: ('A' for Active; 'I' for Inactive)
REMARK    1  A    between atoms: O_2  and  C_3 
REMARK    2  A    between atoms: C_6  and  C_7 
REMARK    3  A    between atoms: C_11  and  C_12 
REMARK       I    between atoms: C_12  and  N_13 
REMARK    4  A    between atoms: N_13  and  N_14 
REMARK       I    between atoms: N_14  and  C_15 
REMARK    5  A    between atoms: C_15  and  C_16 
REMARK    6  A    between atoms: C_17  and  C_18 
ROOT
HETATM    1  C   UNL     1     -35.075  41.531 -54.790  1.00  0.00     0.288 C 
HETATM    2  N   UNL     1     -36.340  42.023 -55.038  1.00  0.00    -0.262 N 
HETATM    3  O   UNL     1     -34.295  41.260 -55.703  1.00  0.00    -0.264 OA
HETATM    4  H   UNL     1     -37.060  42.070 -54.321  1.00  0.00     0.190 HD
ENDROOT
BRANCH   1   5
HETATM    5  C   UNL     1     -34.738  41.346 -53.407  1.00  0.00     0.121 A 
HETATM    6  N   UNL     1     -34.956  42.326 -52.480  1.00  0.00    -0.272 N 
HETATM    7  N   UNL     1     -34.574  42.004 -51.237  1.00  0.00    -0.174 NA
HETATM    8  H   UNL     1     -35.360  43.243 -52.646  1.00  0.00     0.189 HD
HETATM    9  C   UNL     1     -34.102  40.750 -51.337  1.00  0.00     0.089 A 
HETATM   10  C   UNL     1     -34.187  40.303 -52.688  1.00  0.00     0.071 A 
BRANCH   9  11
HETATM   11  C   UNL     1     -33.586  40.027 -50.169  1.00  0.00    -0.005 A 
HETATM   12  C   UNL     1     -32.324  40.312 -49.633  1.00  0.00     0.016 A 
HETATM   13  C   UNL     1     -31.853  39.617 -48.513  1.00  0.00     0.037 A 
HETATM   14  C   UNL     1     -32.631  38.630 -47.905  1.00  0.00     0.068 A 
HETATM   15  C   UNL     1     -33.884  38.332 -48.434  1.00  0.00     0.037 A 
HETATM   16  C   UNL     1     -34.354  39.025 -49.558  1.00  0.00     0.016 A 
BRANCH  14  17
HETATM   17  O   UNL     1     -32.054  38.037 -46.816  1.00  0.00    -0.356 OA
HETATM   18  C   UNL     1     -30.815  38.575 -46.373  1.00  0.00     0.210 C 
ENDBRANCH  14  17
ENDBRANCH   9  11
ENDBRANCH   1   5
BRANCH   2  19
HETATM   19  N   UNL     1     -36.794  42.047 -56.366  1.00  0.00    -0.267 N 
HETATM   20  C   UNL     1     -37.729  41.110 -56.746  1.00  0.00     0.240 C 
HETATM   21  O   UNL     1     -38.292  40.359 -55.956  1.00  0.00    -0.271 OA
HETATM   22  H   UNL     1     -36.213  42.548 -57.034  1.00  0.00     0.190 HD
BRANCH  20  23
HETATM   23  C   UNL     1     -37.983  41.049 -58.210  1.00  0.00     0.089 A 
HETATM   24  C   UNL     1     -37.116  40.166 -59.092  1.00  0.00     0.036 A 
HETATM   25  C   UNL     1     -37.002  41.671 -59.168  1.00  0.00     0.025 A 
BRANCH  24  26
HETATM   26  C   UNL     1     -37.748  39.393 -60.225  1.00  0.00    -0.015 A 
HETATM   27  C   UNL     1     -38.733  38.420 -59.993  1.00  0.00     0.123 A 
HETATM   28  F   UNL     1     -39.141  38.182 -58.737  1.00  0.00    -0.206 F 
HETATM   29  C   UNL     1     -39.316  37.689 -61.028  1.00  0.00     0.043 A 
HETATM   30  C   UNL     1     -38.916  37.915 -62.341  1.00  0.00     0.003 A 
HETATM   31  C   UNL     1     -37.935  38.867 -62.608  1.00  0.00     0.001 A 
HETATM   32  C   UNL     1     -37.355  39.591 -61.561  1.00  0.00     0.011 A 
ENDBRANCH  24  26
ENDBRANCH  20  23
ENDBRANCH   2  19
TORSDOF 6
ENDMDL
MODEL 10
REMARK VINA RESULT:      -7.8      7.887     12.019
REMARK  6 active torsions:
REMARK  status: ('A' for Active; 'I' for Inactive)
REMARK    1  A    between atoms: O_2  and  C_3 
REMARK    2  A    between atoms: C_6  and  C_7 
REMARK    3  A    between atoms: C_11  and  C_12 
REMARK       I    between atoms: C_12  and  N_13 
REMARK    4  A    between atoms: N_13  and  N_14 
REMARK       I    between atoms: N_14  and  C_15 
REMARK    5  A    between atoms: C_15  and  C_16 
REMARK    6  A    between atoms: C_17  and  C_18 
ROOT
HETATM    1  C   UNL     1     -42.581  58.872 -51.639  1.00  0.00     0.288 C 
HETATM    2  N   UNL     1     -42.239  57.871 -50.753  1.00  0.00    -0.262 N 
HETATM    3  O   UNL     1     -42.425  58.743 -52.854  1.00  0.00    -0.264 OA
HETATM    4  H   UNL     1     -42.177  58.026 -49.750  1.00  0.00     0.190 HD
ENDROOT
BRANCH   1   5
HETATM    5  C   UNL     1     -43.113  60.070 -51.053  1.00  0.00     0.121 A 
HETATM    6  N   UNL     1     -43.062  61.269 -51.705  1.00  0.00    -0.272 N 
HETATM    7  N   UNL     1     -43.588  62.293 -51.019  1.00  0.00    -0.174 NA
HETATM    8  H   UNL     1     -42.669  61.447 -52.624  1.00  0.00     0.189 HD
HETATM    9  C   UNL     1     -44.028  61.747 -49.873  1.00  0.00     0.089 A 
HETATM   10  C   UNL     1     -43.745  60.350 -49.857  1.00  0.00     0.071 A 
BRANCH   9  11
HETATM   11  C   UNL     1     -44.686  62.555 -48.840  1.00  0.00    -0.005 A 
HETATM   12  C   UNL     1     -45.793  62.073 -48.132  1.00  0.00     0.016 A 
HETATM   13  C   UNL     1     -46.401  62.857 -47.143  1.00  0.00     0.037 A 
HETATM   14  C   UNL     1     -45.916  64.130 -46.840  1.00  0.00     0.068 A 
HETATM   15  C   UNL     1     -44.820  64.623 -47.545  1.00  0.00     0.037 A 
HETATM   16  C   UNL     1     -44.213  63.841 -48.537  1.00  0.00     0.016 A 
BRANCH  14  17
HETATM   17  O   UNL     1     -46.597  64.782 -45.850  1.00  0.00    -0.356 OA
HETATM   18  C   UNL     1     -46.285  64.421 -44.512  1.00  0.00     0.210 C 
ENDBRANCH  14  17
ENDBRANCH   9  11
ENDBRANCH   1   5
BRANCH   2  19
HETATM   19  N   UNL     1     -41.542  56.757 -51.247  1.00  0.00    -0.267 N 
HETATM   20  C   UNL     1     -41.186  55.771 -50.354  1.00  0.00     0.240 C 
HETATM   21  O   UNL     1     -41.573  55.743 -49.190  1.00  0.00    -0.271 OA
HETATM   22  H   UNL     1     -41.092  56.869 -52.152  1.00  0.00     0.190 HD
BRANCH  20  23
HETATM   23  C   UNL     1     -40.256  54.748 -50.901  1.00  0.00     0.089 A 
HETATM   24  C   UNL     1     -40.573  53.271 -50.736  1.00  0.00     0.036 A 
HETATM   25  C   UNL     1     -39.436  53.901 -49.965  1.00  0.00     0.025 A 
BRANCH  24  26
HETATM   26  C   UNL     1     -40.286  52.314 -51.869  1.00  0.00    -0.015 A 
HETATM   27  C   UNL     1     -39.848  51.002 -51.630  1.00  0.00     0.123 A 
HETATM   28  F   UNL     1     -39.700  50.577 -50.366  1.00  0.00    -0.206 F 
HETATM   29  C   UNL     1     -39.566  50.112 -52.666  1.00  0.00     0.043 A 
HETATM   30  C   UNL     1     -39.713  50.523 -53.987  1.00  0.00     0.003 A 
HETATM   31  C   UNL     1     -40.138  51.821 -54.261  1.00  0.00     0.001 A 
HETATM   32  C   UNL     1     -40.414  52.706 -53.213  1.00  0.00     0.011 A 
ENDBRANCH  24  26
ENDBRANCH  20  23
ENDBRANCH   2  19
TORSDOF 6
ENDMDL
