MODEL 1
REMARK VINA RESULT:      -8.3      0.000      0.000
REMARK  6 active torsions:
REMARK  status: ('A' for Active; 'I' for Inactive)
REMARK    1  A    between atoms: C_3  and  C_4 
REMARK    2  A    between atoms: C_4  and  N_5 
REMARK    3  A    between atoms: C_4  and  C_9 
REMARK       I    between atoms: N_5  and  C_6 
REMARK       I    between atoms: C_6  and  N_7 
REMARK    4  A    between atoms: C_9  and  C_10 
REMARK       I    between atoms: C_10  and  N_11 
REMARK    5  A    between atoms: N_11  and  N_12 
REMARK       I    between atoms: N_12  and  C_13 
REMARK    6  A    between atoms: C_13  and  C_14 
ROOT
HETATM    1  C   UNL     1     -42.681  55.232 -55.985  1.00  0.00     0.238 C 
HETATM    2  N   UNL     1     -42.680  55.392 -57.352  1.00  0.00    -0.267 N 
HETATM    3  O   UNL     1     -43.581  55.684 -55.279  1.00  0.00    -0.272 OA
HETATM    4  H   UNL     1     -41.942  55.086 -57.983  1.00  0.00     0.190 HD
ENDROOT
BRANCH   1   5
HETATM    5  C   UNL     1     -41.492  54.488 -55.425  1.00  0.00     0.134 C 
BRANCH   5   6
HETATM    6  C   UNL     1     -41.277  54.751 -53.927  1.00  0.00     0.129 C 
BRANCH   6   7
HETATM    7  C   UNL     1     -40.626  53.568 -53.218  1.00  0.00    -0.013 A 
HETATM    8  C   UNL     1     -40.060  52.509 -53.957  1.00  0.00     0.011 A 
HETATM    9  C   UNL     1     -39.486  51.405 -53.321  1.00  0.00     0.001 A 
HETATM   10  C   UNL     1     -39.466  51.331 -51.933  1.00  0.00     0.002 A 
HETATM   11  C   UNL     1     -40.029  52.358 -51.180  1.00  0.00     0.024 A 
HETATM   12  C   UNL     1     -40.611  53.462 -51.813  1.00  0.00     0.042 A 
HETATM   13 CL   UNL     1     -41.321  54.659 -50.785  1.00  0.00    -0.084 Cl
ENDBRANCH   6   7
BRANCH   6  14
HETATM   14  N   UNL     1     -40.586  56.014 -53.662  1.00  0.00    -0.339 N 
HETATM   15  C   UNL     1     -41.145  57.208 -53.361  1.00  0.00     0.292 C 
HETATM   16  N   UNL     1     -42.420  57.201 -52.925  1.00  0.00    -0.254 NA
HETATM   17  O   UNL     1     -40.527  58.257 -53.483  1.00  0.00    -0.254 OA
HETATM   18  H   UNL     1     -42.656  56.493 -52.247  1.00  0.00     0.128 HD
HETATM   19  H   UNL     1     -42.732  58.127 -52.657  1.00  0.00     0.128 HD
HETATM   20  H   UNL     1     -39.690  56.160 -54.108  1.00  0.00     0.164 HD
ENDBRANCH   6  14
ENDBRANCH   5   6
ENDBRANCH   1   5
BRANCH   2  21
HETATM   21  N   UNL     1     -43.780  56.032 -57.927  1.00  0.00    -0.263 N 
HETATM   22  C   UNL     1     -43.866  56.091 -59.302  1.00  0.00     0.270 C 
HETATM   23  O   UNL     1     -42.971  55.671 -60.033  1.00  0.00    -0.266 OA
HETATM   24  H   UNL     1     -44.461  56.416 -57.276  1.00  0.00     0.190 HD
BRANCH  22  25
HETATM   25  C   UNL     1     -45.102  56.699 -59.878  1.00  0.00     0.036 A 
HETATM   26  C   UNL     1     -45.936  56.004 -60.768  1.00  0.00     0.057 A 
HETATM   27  C   UNL     1     -47.042  56.668 -61.261  1.00  0.00     0.106 A 
HETATM   28  C   UNL     1     -47.333  57.966 -60.912  1.00  0.00     0.105 A 
HETATM   29  O   UNL     1     -47.949  56.150 -62.132  1.00  0.00    -0.323 OA
HETATM   30  O   UNL     1     -48.459  58.425 -61.518  1.00  0.00    -0.323 OA
HETATM   31  C   UNL     1     -46.532  58.680 -60.049  1.00  0.00     0.041 A 
HETATM   32  C   UNL     1     -48.842  57.271 -62.295  1.00  0.00     0.352 A 
HETATM   33  C   UNL     1     -45.403  58.036 -59.530  1.00  0.00     0.020 A 
ENDBRANCH  22  25
ENDBRANCH   2  21
TORSDOF 6
ENDMDL
MODEL 2
REMARK VINA RESULT:      -8.3      2.763      9.523
REMARK  6 active torsions:
REMARK  status: ('A' for Active; 'I' for Inactive)
REMARK    1  A    between atoms: C_3  and  C_4 
REMARK    2  A    between atoms: C_4  and  N_5 
REMARK    3  A    between atoms: C_4  and  C_9 
REMARK       I    between atoms: N_5  and  C_6 
REMARK       I    between atoms: C_6  and  N_7 
REMARK    4  A    between atoms: C_9  and  C_10 
REMARK       I    between atoms: C_10  and  N_11 
REMARK    5  A    between atoms: N_11  and  N_12 
REMARK       I    between atoms: N_12  and  C_13 
REMARK    6  A    between atoms: C_13  and  C_14 
ROOT
HETATM    1  C   UNL     1     -42.992  57.345 -58.448  1.00  0.00     0.238 C 
HETATM    2  N   UNL     1     -43.530  56.226 -57.855  1.00  0.00    -0.267 N 
HETATM    3  O   UNL     1     -41.859  57.740 -58.180  1.00  0.00    -0.272 OA
HETATM    4  H   UNL     1     -44.477  55.878 -57.998  1.00  0.00     0.190 HD
ENDROOT
BRANCH   1   5
HETATM    5  C   UNL     1     -43.901  58.056 -59.422  1.00  0.00     0.134 C 
BRANCH   5   6
HETATM    6  C   UNL     1     -45.263  57.364 -59.578  1.00  0.00     0.129 C 
BRANCH   6   7
HETATM    7  C   UNL     1     -46.428  58.339 -59.446  1.00  0.00    -0.013 A 
HETATM    8  C   UNL     1     -47.039  58.891 -60.591  1.00  0.00     0.011 A 
HETATM    9  C   UNL     1     -48.087  59.809 -60.484  1.00  0.00     0.001 A 
HETATM   10  C   UNL     1     -48.549  60.199 -59.232  1.00  0.00     0.002 A 
HETATM   11  C   UNL     1     -47.955  59.679 -58.085  1.00  0.00     0.024 A 
HETATM   12  C   UNL     1     -46.900  58.764 -58.188  1.00  0.00     0.042 A 
HETATM   13 CL   UNL     1     -46.205  58.215 -56.702  1.00  0.00    -0.084 Cl
ENDBRANCH   6   7
BRANCH   6  14
HETATM   14  N   UNL     1     -45.352  56.545 -60.788  1.00  0.00    -0.339 N 
HETATM   15  C   UNL     1     -45.167  55.209 -60.891  1.00  0.00     0.292 C 
HETATM   16  N   UNL     1     -45.242  54.487 -59.756  1.00  0.00    -0.254 NA
HETATM   17  O   UNL     1     -44.936  54.672 -61.966  1.00  0.00    -0.254 OA
HETATM   18  H   UNL     1     -45.999  54.715 -59.130  1.00  0.00     0.128 HD
HETATM   19  H   UNL     1     -45.163  53.493 -59.937  1.00  0.00     0.128 HD
HETATM   20  H   UNL     1     -45.133  56.988 -61.671  1.00  0.00     0.164 HD
ENDBRANCH   6  14
ENDBRANCH   5   6
ENDBRANCH   1   5
BRANCH   2  21
HETATM   21  N   UNL     1     -42.715  55.503 -56.981  1.00  0.00    -0.263 N 
HETATM   22  C   UNL     1     -42.970  55.574 -55.628  1.00  0.00     0.270 C 
HETATM   23  O   UNL     1     -43.835  56.313 -55.163  1.00  0.00    -0.266 OA
HETATM   24  H   UNL     1     -41.975  54.955 -57.415  1.00  0.00     0.190 HD
BRANCH  22  25
HETATM   25  C   UNL     1     -42.138  54.714 -54.736  1.00  0.00     0.036 A 
HETATM   26  C   UNL     1     -42.418  54.558 -53.369  1.00  0.00     0.057 A 
HETATM   27  C   UNL     1     -41.571  53.758 -52.629  1.00  0.00     0.106 A 
HETATM   28  C   UNL     1     -40.481  53.131 -53.186  1.00  0.00     0.105 A 
HETATM   29  O   UNL     1     -41.690  53.503 -51.298  1.00  0.00    -0.323 OA
HETATM   30  O   UNL     1     -39.781  52.402 -52.277  1.00  0.00    -0.323 OA
HETATM   31  C   UNL     1     -40.172  53.269 -54.521  1.00  0.00     0.041 A 
HETATM   32  C   UNL     1     -40.549  52.647 -51.080  1.00  0.00     0.352 A 
HETATM   33  C   UNL     1     -41.012  54.072 -55.301  1.00  0.00     0.020 A 
ENDBRANCH  22  25
ENDBRANCH   2  21
TORSDOF 6
ENDMDL
MODEL 3
REMARK VINA RESULT:      -8.2      2.801      9.627
REMARK  6 active torsions:
REMARK  status: ('A' for Active; 'I' for Inactive)
REMARK    1  A    between atoms: C_3  and  C_4 
REMARK    2  A    between atoms: C_4  and  N_5 
REMARK    3  A    between atoms: C_4  and  C_9 
REMARK       I    between atoms: N_5  and  C_6 
REMARK       I    between atoms: C_6  and  N_7 
REMARK    4  A    between atoms: C_9  and  C_10 
REMARK       I    between atoms: C_10  and  N_11 
REMARK    5  A    between atoms: N_11  and  N_12 
REMARK       I    between atoms: N_12  and  C_13 
REMARK    6  A    between atoms: C_13  and  C_14 
ROOT
HETATM    1  C   UNL     1     -43.210  56.190 -58.012  1.00  0.00     0.238 C 
HETATM    2  N   UNL     1     -42.278  56.579 -57.078  1.00  0.00    -0.267 N 
HETATM    3  O   UNL     1     -43.503  55.007 -58.182  1.00  0.00    -0.272 OA
HETATM    4  H   UNL     1     -41.957  57.534 -56.925  1.00  0.00     0.190 HD
ENDROOT
BRANCH   1   5
HETATM    5  C   UNL     1     -43.818  57.311 -58.820  1.00  0.00     0.134 C 
BRANCH   5   6
HETATM    6  C   UNL     1     -45.229  56.980 -59.328  1.00  0.00     0.129 C 
BRANCH   6   7
HETATM    7  C   UNL     1     -46.179  58.168 -59.215  1.00  0.00    -0.013 A 
HETATM    8  C   UNL     1     -46.684  58.799 -60.370  1.00  0.00     0.011 A 
HETATM    9  C   UNL     1     -47.531  59.907 -60.282  1.00  0.00     0.001 A 
HETATM   10  C   UNL     1     -47.893  60.413 -59.038  1.00  0.00     0.002 A 
HETATM   11  C   UNL     1     -47.399  59.815 -57.882  1.00  0.00     0.024 A 
HETATM   12  C   UNL     1     -46.544  58.710 -57.966  1.00  0.00     0.042 A 
HETATM   13 CL   UNL     1     -45.951  58.074 -56.470  1.00  0.00    -0.084 Cl
ENDBRANCH   6   7
BRANCH   6  14
HETATM   14  N   UNL     1     -45.230  56.387 -60.666  1.00  0.00    -0.339 N 
HETATM   15  C   UNL     1     -45.166  55.073 -60.982  1.00  0.00     0.292 C 
HETATM   16  N   UNL     1     -45.468  54.190 -60.010  1.00  0.00    -0.254 NA
HETATM   17  O   UNL     1     -44.841  54.695 -62.099  1.00  0.00    -0.254 OA
HETATM   18  H   UNL     1     -46.279  54.403 -59.449  1.00  0.00     0.128 HD
HETATM   19  H   UNL     1     -45.463  53.237 -60.354  1.00  0.00     0.128 HD
HETATM   20  H   UNL     1     -44.848  56.939 -61.424  1.00  0.00     0.164 HD
ENDBRANCH   6  14
ENDBRANCH   5   6
ENDBRANCH   1   5
BRANCH   2  21
HETATM   21  N   UNL     1     -41.718  55.587 -56.271  1.00  0.00    -0.263 N 
HETATM   22  C   UNL     1     -41.595  55.825 -54.919  1.00  0.00     0.270 C 
HETATM   23  O   UNL     1     -41.886  56.908 -54.415  1.00  0.00    -0.266 OA
HETATM   24  H   UNL     1     -41.438  54.732 -56.748  1.00  0.00     0.190 HD
BRANCH  22  25
HETATM   25  C   UNL     1     -41.079  54.705 -54.077  1.00  0.00     0.036 A 
HETATM   26  C   UNL     1     -40.670  53.480 -54.626  1.00  0.00     0.057 A 
HETATM   27  C   UNL     1     -40.231  52.502 -53.756  1.00  0.00     0.106 A 
HETATM   28  C   UNL     1     -40.194  52.695 -52.395  1.00  0.00     0.105 A 
HETATM   29  O   UNL     1     -39.805  51.261 -54.115  1.00  0.00    -0.323 OA
HETATM   30  O   UNL     1     -39.737  51.602 -51.728  1.00  0.00    -0.323 OA
HETATM   31  C   UNL     1     -40.595  53.881 -51.822  1.00  0.00     0.041 A 
HETATM   32  C   UNL     1     -39.499  50.693 -52.824  1.00  0.00     0.352 A 
HETATM   33  C   UNL     1     -41.044  54.894 -52.676  1.00  0.00     0.020 A 
ENDBRANCH  22  25
ENDBRANCH   2  21
TORSDOF 6
ENDMDL
MODEL 4
REMARK VINA RESULT:      -8.2      4.981      7.961
REMARK  6 active torsions:
REMARK  status: ('A' for Active; 'I' for Inactive)
REMARK    1  A    between atoms: C_3  and  C_4 
REMARK    2  A    between atoms: C_4  and  N_5 
REMARK    3  A    between atoms: C_4  and  C_9 
REMARK       I    between atoms: N_5  and  C_6 
REMARK       I    between atoms: C_6  and  N_7 
REMARK    4  A    between atoms: C_9  and  C_10 
REMARK       I    between atoms: C_10  and  N_11 
REMARK    5  A    between atoms: N_11  and  N_12 
REMARK       I    between atoms: N_12  and  C_13 
REMARK    6  A    between atoms: C_13  and  C_14 
ROOT
HETATM    1  C   UNL     1     -43.010  55.593 -51.364  1.00  0.00     0.238 C 
HETATM    2  N   UNL     1     -43.924  56.521 -51.807  1.00  0.00    -0.267 N 
HETATM    3  O   UNL     1     -42.375  55.753 -50.323  1.00  0.00    -0.272 OA
HETATM    4  H   UNL     1     -44.443  56.470 -52.682  1.00  0.00     0.190 HD
ENDROOT
BRANCH   1   5
HETATM    5  C   UNL     1     -42.834  54.389 -52.258  1.00  0.00     0.134 C 
BRANCH   5   6
HETATM    6  C   UNL     1     -41.533  54.439 -53.073  1.00  0.00     0.129 C 
BRANCH   6   7
HETATM    7  C   UNL     1     -40.822  53.090 -53.113  1.00  0.00    -0.013 A 
HETATM    8  C   UNL     1     -40.990  52.220 -54.209  1.00  0.00     0.011 A 
HETATM    9  C   UNL     1     -40.369  50.968 -54.245  1.00  0.00     0.001 A 
HETATM   10  C   UNL     1     -39.565  50.556 -53.188  1.00  0.00     0.002 A 
HETATM   11  C   UNL     1     -39.392  51.392 -52.088  1.00  0.00     0.024 A 
HETATM   12  C   UNL     1     -40.018  52.643 -52.044  1.00  0.00     0.042 A 
HETATM   13 CL   UNL     1     -39.772  53.583 -50.612  1.00  0.00    -0.084 Cl
ENDBRANCH   6   7
BRANCH   6  14
HETATM   14  N   UNL     1     -41.715  55.016 -54.405  1.00  0.00    -0.339 N 
HETATM   15  C   UNL     1     -41.748  56.328 -54.734  1.00  0.00     0.292 C 
HETATM   16  N   UNL     1     -41.234  57.200 -53.845  1.00  0.00    -0.254 NA
HETATM   17  O   UNL     1     -42.228  56.714 -55.791  1.00  0.00    -0.254 OA
HETATM   18  H   UNL     1     -40.357  56.939 -53.420  1.00  0.00     0.128 HD
HETATM   19  H   UNL     1     -41.235  58.148 -54.203  1.00  0.00     0.128 HD
HETATM   20  H   UNL     1     -42.252  54.483 -55.078  1.00  0.00     0.164 HD
ENDBRANCH   6  14
ENDBRANCH   5   6
ENDBRANCH   1   5
BRANCH   2  21
HETATM   21  N   UNL     1     -44.161  57.633 -50.995  1.00  0.00    -0.263 N 
HETATM   22  C   UNL     1     -43.841  58.884 -51.477  1.00  0.00     0.270 C 
HETATM   23  O   UNL     1     -43.282  59.046 -52.560  1.00  0.00    -0.266 OA
HETATM   24  H   UNL     1     -44.569  57.438 -50.083  1.00  0.00     0.190 HD
BRANCH  22  25
HETATM   25  C   UNL     1     -44.197  60.052 -50.618  1.00  0.00     0.036 A 
HETATM   26  C   UNL     1     -45.372  60.092 -49.852  1.00  0.00     0.057 A 
HETATM   27  C   UNL     1     -45.617  61.230 -49.110  1.00  0.00     0.106 A 
HETATM   28  C   UNL     1     -44.757  62.303 -49.110  1.00  0.00     0.105 A 
HETATM   29  O   UNL     1     -46.705  61.438 -48.321  1.00  0.00    -0.323 OA
HETATM   30  O   UNL     1     -45.194  63.318 -48.319  1.00  0.00    -0.323 OA
HETATM   31  C   UNL     1     -43.599  62.302 -49.855  1.00  0.00     0.041 A 
HETATM   32  C   UNL     1     -46.434  62.766 -47.826  1.00  0.00     0.352 A 
HETATM   33  C   UNL     1     -43.320  61.162 -50.618  1.00  0.00     0.020 A 
ENDBRANCH  22  25
ENDBRANCH   2  21
TORSDOF 6
ENDMDL
MODEL 5
REMARK VINA RESULT:      -8.1      2.616      3.243
REMARK  6 active torsions:
REMARK  status: ('A' for Active; 'I' for Inactive)
REMARK    1  A    between atoms: C_3  and  C_4 
REMARK    2  A    between atoms: C_4  and  N_5 
REMARK    3  A    between atoms: C_4  and  C_9 
REMARK       I    between atoms: N_5  and  C_6 
REMARK       I    between atoms: C_6  and  N_7 
REMARK    4  A    between atoms: C_9  and  C_10 
REMARK       I    between atoms: C_10  and  N_11 
REMARK    5  A    between atoms: N_11  and  N_12 
REMARK       I    between atoms: N_12  and  C_13 
REMARK    6  A    between atoms: C_13  and  C_14 
ROOT
HETATM    1  C   UNL     1     -43.431  55.384 -53.219  1.00  0.00     0.238 C 
HETATM    2  N   UNL     1     -43.749  54.840 -54.442  1.00  0.00    -0.267 N 
HETATM    3  O   UNL     1     -43.264  56.593 -53.071  1.00  0.00    -0.272 OA
HETATM    4  H   UNL     1     -43.851  53.845 -54.639  1.00  0.00     0.190 HD
ENDROOT
BRANCH   1   5
HETATM    5  C   UNL     1     -43.280  54.389 -52.093  1.00  0.00     0.134 C 
BRANCH   5   6
HETATM    6  C   UNL     1     -41.860  54.365 -51.508  1.00  0.00     0.129 C 
BRANCH   6   7
HETATM    7  C   UNL     1     -40.970  53.331 -52.190  1.00  0.00    -0.013 A 
HETATM    8  C   UNL     1     -40.862  53.290 -53.596  1.00  0.00     0.011 A 
HETATM    9  C   UNL     1     -40.074  52.330 -54.236  1.00  0.00     0.001 A 
HETATM   10  C   UNL     1     -39.376  51.387 -53.489  1.00  0.00     0.002 A 
HETATM   11  C   UNL     1     -39.475  51.399 -52.100  1.00  0.00     0.024 A 
HETATM   12  C   UNL     1     -40.269  52.354 -51.455  1.00  0.00     0.042 A 
HETATM   13 CL   UNL     1     -40.358  52.250 -49.730  1.00  0.00    -0.084 Cl
ENDBRANCH   6   7
BRANCH   6  14
HETATM   14  N   UNL     1     -41.241  55.690 -51.454  1.00  0.00    -0.339 N 
HETATM   15  C   UNL     1     -41.124  56.498 -50.376  1.00  0.00     0.292 C 
HETATM   16  N   UNL     1     -41.271  55.932 -49.161  1.00  0.00    -0.254 NA
HETATM   17  O   UNL     1     -40.900  57.696 -50.490  1.00  0.00    -0.254 OA
HETATM   18  H   UNL     1     -40.807  55.048 -49.022  1.00  0.00     0.128 HD
HETATM   19  H   UNL     1     -41.097  56.594 -48.414  1.00  0.00     0.128 HD
HETATM   20  H   UNL     1     -41.254  56.248 -52.298  1.00  0.00     0.164 HD
ENDBRANCH   6  14
ENDBRANCH   5   6
ENDBRANCH   1   5
BRANCH   2  21
HETATM   21  N   UNL     1     -43.947  55.719 -55.509  1.00  0.00    -0.263 N 
HETATM   22  C   UNL     1     -43.014  55.749 -56.523  1.00  0.00     0.270 C 
HETATM   23  O   UNL     1     -41.977  55.089 -56.479  1.00  0.00    -0.266 OA
HETATM   24  H   UNL     1     -44.791  56.287 -55.466  1.00  0.00     0.190 HD
BRANCH  22  25
HETATM   25  C   UNL     1     -43.309  56.633 -57.689  1.00  0.00     0.036 A 
HETATM   26  C   UNL     1     -44.005  57.844 -57.557  1.00  0.00     0.057 A 
HETATM   27  C   UNL     1     -44.245  58.574 -58.704  1.00  0.00     0.106 A 
HETATM   28  C   UNL     1     -43.833  58.147 -59.944  1.00  0.00     0.105 A 
HETATM   29  O   UNL     1     -44.907  59.761 -58.758  1.00  0.00    -0.323 OA
HETATM   30  O   UNL     1     -44.181  59.013 -60.933  1.00  0.00    -0.323 OA
HETATM   31  C   UNL     1     -43.155  56.961 -60.112  1.00  0.00     0.041 A 
HETATM   32  C   UNL     1     -44.868  60.032 -60.175  1.00  0.00     0.352 A 
HETATM   33  C   UNL     1     -42.894  56.197 -58.969  1.00  0.00     0.020 A 
ENDBRANCH  22  25
ENDBRANCH   2  21
TORSDOF 6
ENDMDL
MODEL 6
REMARK VINA RESULT:      -8.1      5.351      7.224
REMARK  6 active torsions:
REMARK  status: ('A' for Active; 'I' for Inactive)
REMARK    1  A    between atoms: C_3  and  C_4 
REMARK    2  A    between atoms: C_4  and  N_5 
REMARK    3  A    between atoms: C_4  and  C_9 
REMARK       I    between atoms: N_5  and  C_6 
REMARK       I    between atoms: C_6  and  N_7 
REMARK    4  A    between atoms: C_9  and  C_10 
REMARK       I    between atoms: C_10  and  N_11 
REMARK    5  A    between atoms: N_11  and  N_12 
REMARK       I    between atoms: N_12  and  C_13 
REMARK    6  A    between atoms: C_13  and  C_14 
ROOT
HETATM    1  C   UNL     1     -43.254  56.212 -53.589  1.00  0.00     0.238 C 
HETATM    2  N   UNL     1     -44.364  56.356 -52.789  1.00  0.00    -0.267 N 
HETATM    3  O   UNL     1     -42.758  57.165 -54.187  1.00  0.00    -0.272 OA
HETATM    4  H   UNL     1     -44.849  55.599 -52.309  1.00  0.00     0.190 HD
ENDROOT
BRANCH   1   5
HETATM    5  C   UNL     1     -42.715  54.806 -53.694  1.00  0.00     0.134 C 
BRANCH   5   6
HETATM    6  C   UNL     1     -41.812  54.425 -52.511  1.00  0.00     0.129 C 
BRANCH   6   7
HETATM    7  C   UNL     1     -40.970  53.187 -52.800  1.00  0.00    -0.013 A 
HETATM    8  C   UNL     1     -40.913  52.642 -54.099  1.00  0.00     0.011 A 
HETATM    9  C   UNL     1     -40.169  51.491 -54.372  1.00  0.00     0.001 A 
HETATM   10  C   UNL     1     -39.465  50.856 -53.355  1.00  0.00     0.002 A 
HETATM   11  C   UNL     1     -39.514  51.367 -52.060  1.00  0.00     0.024 A 
HETATM   12  C   UNL     1     -40.264  52.516 -51.781  1.00  0.00     0.042 A 
HETATM   13 CL   UNL     1     -40.293  53.039 -50.132  1.00  0.00    -0.084 Cl
ENDBRANCH   6   7
BRANCH   6  14
HETATM   14  N   UNL     1     -41.010  55.547 -52.019  1.00  0.00    -0.339 N 
HETATM   15  C   UNL     1     -41.326  56.408 -51.025  1.00  0.00     0.292 C 
HETATM   16  N   UNL     1     -42.291  56.029 -50.164  1.00  0.00    -0.254 NA
HETATM   17  O   UNL     1     -40.766  57.489 -50.909  1.00  0.00    -0.254 OA
HETATM   18  H   UNL     1     -42.250  55.075 -49.839  1.00  0.00     0.128 HD
HETATM   19  H   UNL     1     -42.411  56.700 -49.414  1.00  0.00     0.128 HD
HETATM   20  H   UNL     1     -40.384  55.998 -52.674  1.00  0.00     0.164 HD
ENDBRANCH   6  14
ENDBRANCH   5   6
ENDBRANCH   1   5
BRANCH   2  21
HETATM   21  N   UNL     1     -44.876  57.644 -52.619  1.00  0.00    -0.263 N 
HETATM   22  C   UNL     1     -45.168  58.077 -51.343  1.00  0.00     0.270 C 
HETATM   23  O   UNL     1     -45.069  57.341 -50.363  1.00  0.00    -0.266 OA
HETATM   24  H   UNL     1     -44.996  58.189 -53.469  1.00  0.00     0.190 HD
BRANCH  22  25
HETATM   25  C   UNL     1     -45.624  59.490 -51.195  1.00  0.00     0.036 A 
HETATM   26  C   UNL     1     -45.563  60.175 -49.971  1.00  0.00     0.057 A 
HETATM   27  C   UNL     1     -46.032  61.473 -49.938  1.00  0.00     0.106 A 
HETATM   28  C   UNL     1     -46.552  62.092 -51.049  1.00  0.00     0.105 A 
HETATM   29  O   UNL     1     -46.053  62.275 -48.840  1.00  0.00    -0.323 OA
HETATM   30  O   UNL     1     -46.962  63.362 -50.792  1.00  0.00    -0.323 OA
HETATM   31  C   UNL     1     -46.634  61.448 -52.264  1.00  0.00     0.041 A 
HETATM   32  C   UNL     1     -46.648  63.471 -49.386  1.00  0.00     0.352 A 
HETATM   33  C   UNL     1     -46.166  60.132 -52.332  1.00  0.00     0.020 A 
ENDBRANCH  22  25
ENDBRANCH   2  21
TORSDOF 6
ENDMDL
MODEL 7
REMARK VINA RESULT:      -8.1      2.069      2.601
REMARK  6 active torsions:
REMARK  status: ('A' for Active; 'I' for Inactive)
REMARK    1  A    between atoms: C_3  and  C_4 
REMARK    2  A    between atoms: C_4  and  N_5 
REMARK    3  A    between atoms: C_4  and  C_9 
REMARK       I    between atoms: N_5  and  C_6 
REMARK       I    between atoms: C_6  and  N_7 
REMARK    4  A    between atoms: C_9  and  C_10 
REMARK       I    between atoms: C_10  and  N_11 
REMARK    5  A    between atoms: N_11  and  N_12 
REMARK       I    between atoms: N_12  and  C_13 
REMARK    6  A    between atoms: C_13  and  C_14 
ROOT
HETATM    1  C   UNL     1     -42.989  55.576 -55.339  1.00  0.00     0.238 C 
HETATM    2  N   UNL     1     -42.281  55.428 -56.510  1.00  0.00    -0.267 N 
HETATM    3  O   UNL     1     -43.578  56.620 -55.065  1.00  0.00    -0.272 OA
HETATM    4  H   UNL     1     -41.733  54.610 -56.771  1.00  0.00     0.190 HD
ENDROOT
BRANCH   1   5
HETATM    5  C   UNL     1     -42.965  54.379 -54.419  1.00  0.00     0.134 C 
BRANCH   5   6
HETATM    6  C   UNL     1     -41.872  54.477 -53.344  1.00  0.00     0.129 C 
BRANCH   6   7
HETATM    7  C   UNL     1     -41.017  53.217 -53.271  1.00  0.00    -0.013 A 
HETATM    8  C   UNL     1     -40.942  52.332 -54.366  1.00  0.00     0.011 A 
HETATM    9  C   UNL     1     -40.186  51.159 -54.302  1.00  0.00     0.001 A 
HETATM   10  C   UNL     1     -39.488  50.839 -53.143  1.00  0.00     0.002 A 
HETATM   11  C   UNL     1     -39.554  51.690 -52.043  1.00  0.00     0.024 A 
HETATM   12  C   UNL     1     -40.316  52.863 -52.100  1.00  0.00     0.042 A 
HETATM   13 CL   UNL     1     -40.366  53.824 -50.662  1.00  0.00    -0.084 Cl
ENDBRANCH   6   7
BRANCH   6  14
HETATM   14  N   UNL     1     -41.068  55.695 -53.456  1.00  0.00    -0.339 N 
HETATM   15  C   UNL     1     -41.200  56.835 -52.741  1.00  0.00     0.292 C 
HETATM   16  N   UNL     1     -41.894  56.763 -51.588  1.00  0.00    -0.254 NA
HETATM   17  O   UNL     1     -40.718  57.893 -53.121  1.00  0.00    -0.254 OA
HETATM   18  H   UNL     1     -41.699  55.968 -50.998  1.00  0.00     0.128 HD
HETATM   19  H   UNL     1     -41.881  57.643 -51.085  1.00  0.00     0.128 HD
HETATM   20  H   UNL     1     -40.658  55.904 -54.358  1.00  0.00     0.164 HD
ENDBRANCH   6  14
ENDBRANCH   5   6
ENDBRANCH   1   5
BRANCH   2  21
HETATM   21  N   UNL     1     -42.308  56.488 -57.419  1.00  0.00    -0.263 N 
HETATM   22  C   UNL     1     -43.062  56.356 -58.566  1.00  0.00     0.270 C 
HETATM   23  O   UNL     1     -43.643  55.311 -58.851  1.00  0.00    -0.266 OA
HETATM   24  H   UNL     1     -41.760  57.307 -57.164  1.00  0.00     0.190 HD
BRANCH  22  25
HETATM   25  C   UNL     1     -43.140  57.545 -59.466  1.00  0.00     0.036 A 
HETATM   26  C   UNL     1     -44.360  58.151 -59.805  1.00  0.00     0.057 A 
HETATM   27  C   UNL     1     -44.323  59.231 -60.664  1.00  0.00     0.106 A 
HETATM   28  C   UNL     1     -43.145  59.710 -61.187  1.00  0.00     0.105 A 
HETATM   29  O   UNL     1     -45.405  59.930 -61.099  1.00  0.00    -0.323 OA
HETATM   30  O   UNL     1     -43.339  60.772 -62.013  1.00  0.00    -0.323 OA
HETATM   31  C   UNL     1     -41.931  59.136 -60.882  1.00  0.00     0.041 A 
HETATM   32  C   UNL     1     -44.776  60.902 -61.959  1.00  0.00     0.352 A 
HETATM   33  C   UNL     1     -41.934  58.039 -60.013  1.00  0.00     0.020 A 
ENDBRANCH  22  25
ENDBRANCH   2  21
TORSDOF 6
ENDMDL
MODEL 8
REMARK VINA RESULT:      -8.1      5.901      8.928
REMARK  6 active torsions:
REMARK  status: ('A' for Active; 'I' for Inactive)
REMARK    1  A    between atoms: C_3  and  C_4 
REMARK    2  A    between atoms: C_4  and  N_5 
REMARK    3  A    between atoms: C_4  and  C_9 
REMARK       I    between atoms: N_5  and  C_6 
REMARK       I    between atoms: C_6  and  N_7 
REMARK    4  A    between atoms: C_9  and  C_10 
REMARK       I    between atoms: C_10  and  N_11 
REMARK    5  A    between atoms: N_11  and  N_12 
REMARK       I    between atoms: N_12  and  C_13 
REMARK    6  A    between atoms: C_13  and  C_14 
ROOT
HETATM    1  C   UNL     1     -43.873  57.066 -51.588  1.00  0.00     0.238 C 
HETATM    2  N   UNL     1     -43.668  58.425 -51.654  1.00  0.00    -0.267 N 
HETATM    3  O   UNL     1     -44.468  56.545 -50.647  1.00  0.00    -0.272 OA
HETATM    4  H   UNL     1     -43.142  58.910 -52.379  1.00  0.00     0.190 HD
ENDROOT
BRANCH   1   5
HETATM    5  C   UNL     1     -43.295  56.273 -52.736  1.00  0.00     0.134 C 
BRANCH   5   6
HETATM    6  C   UNL     1     -41.761  56.324 -52.781  1.00  0.00     0.129 C 
BRANCH   6   7
HETATM    7  C   UNL     1     -41.147  54.983 -53.167  1.00  0.00    -0.013 A 
HETATM    8  C   UNL     1     -40.809  54.704 -54.507  1.00  0.00     0.011 A 
HETATM    9  C   UNL     1     -40.273  53.468 -54.880  1.00  0.00     0.001 A 
HETATM   10  C   UNL     1     -40.065  52.480 -53.924  1.00  0.00     0.002 A 
HETATM   11  C   UNL     1     -40.401  52.725 -52.596  1.00  0.00     0.024 A 
HETATM   12  C   UNL     1     -40.944  53.959 -52.219  1.00  0.00     0.042 A 
HETATM   13 CL   UNL     1     -41.369  54.142 -50.552  1.00  0.00    -0.084 Cl
ENDBRANCH   6   7
BRANCH   6  14
HETATM   14  N   UNL     1     -41.250  57.429 -53.595  1.00  0.00    -0.339 N 
HETATM   15  C   UNL     1     -40.844  58.646 -53.165  1.00  0.00     0.292 C 
HETATM   16  N   UNL     1     -40.548  58.770 -51.856  1.00  0.00    -0.254 NA
HETATM   17  O   UNL     1     -40.752  59.599 -53.925  1.00  0.00    -0.254 OA
HETATM   18  H   UNL     1     -40.004  58.025 -51.448  1.00  0.00     0.128 HD
HETATM   19  H   UNL     1     -40.186  59.691 -51.638  1.00  0.00     0.128 HD
HETATM   20  H   UNL     1     -41.576  57.497 -54.551  1.00  0.00     0.164 HD
ENDBRANCH   6  14
ENDBRANCH   5   6
ENDBRANCH   1   5
BRANCH   2  21
HETATM   21  N   UNL     1     -44.222  59.212 -50.642  1.00  0.00    -0.263 N 
HETATM   22  C   UNL     1     -43.717  60.478 -50.437  1.00  0.00     0.270 C 
HETATM   23  O   UNL     1     -42.746  60.905 -51.059  1.00  0.00    -0.266 OA
HETATM   24  H   UNL     1     -44.983  58.788 -50.116  1.00  0.00     0.190 HD
BRANCH  22  25
HETATM   25  C   UNL     1     -44.398  61.321 -49.410  1.00  0.00     0.036 A 
HETATM   26  C   UNL     1     -45.447  60.835 -48.615  1.00  0.00     0.057 A 
HETATM   27  C   UNL     1     -46.023  61.706 -47.711  1.00  0.00     0.106 A 
HETATM   28  C   UNL     1     -45.605  63.010 -47.582  1.00  0.00     0.105 A 
HETATM   29  O   UNL     1     -47.048  61.405 -46.871  1.00  0.00    -0.323 OA
HETATM   30  O   UNL     1     -46.313  63.690 -46.642  1.00  0.00    -0.323 OA
HETATM   31  C   UNL     1     -44.585  63.522 -48.351  1.00  0.00     0.041 A 
HETATM   32  C   UNL     1     -47.232  62.669 -46.199  1.00  0.00     0.352 A 
HETATM   33  C   UNL     1     -43.978  62.665 -49.276  1.00  0.00     0.020 A 
ENDBRANCH  22  25
ENDBRANCH   2  21
TORSDOF 6
ENDMDL
MODEL 9
REMARK VINA RESULT:      -8.0      3.291      4.020
REMARK  6 active torsions:
REMARK  status: ('A' for Active; 'I' for Inactive)
REMARK    1  A    between atoms: C_3  and  C_4 
REMARK    2  A    between atoms: C_4  and  N_5 
REMARK    3  A    between atoms: C_4  and  C_9 
REMARK       I    between atoms: N_5  and  C_6 
REMARK       I    between atoms: C_6  and  N_7 
REMARK    4  A    between atoms: C_9  and  C_10 
REMARK       I    between atoms: C_10  and  N_11 
REMARK    5  A    between atoms: N_11  and  N_12 
REMARK       I    between atoms: N_12  and  C_13 
REMARK    6  A    between atoms: C_13  and  C_14 
ROOT
HETATM    1  C   UNL     1     -42.699  56.072 -54.170  1.00  0.00     0.238 C 
HETATM    2  N   UNL     1     -42.225  55.755 -55.423  1.00  0.00    -0.267 N 
HETATM    3  O   UNL     1     -42.835  57.238 -53.804  1.00  0.00    -0.272 OA
HETATM    4  H   UNL     1     -42.044  54.813 -55.766  1.00  0.00     0.190 HD
ENDROOT
BRANCH   1   5
HETATM    5  C   UNL     1     -43.011  54.891 -53.284  1.00  0.00     0.134 C 
BRANCH   5   6
HETATM    6  C   UNL     1     -41.906  54.610 -52.255  1.00  0.00     0.129 C 
BRANCH   6   7
HETATM    7  C   UNL     1     -41.061  53.397 -52.629  1.00  0.00    -0.013 A 
HETATM    8  C   UNL     1     -41.074  52.887 -53.943  1.00  0.00     0.011 A 
HETATM    9  C   UNL     1     -40.328  51.759 -54.292  1.00  0.00     0.001 A 
HETATM   10  C   UNL     1     -39.553  51.110 -53.338  1.00  0.00     0.002 A 
HETATM   11  C   UNL     1     -39.531  51.586 -52.029  1.00  0.00     0.024 A 
HETATM   12  C   UNL     1     -40.282  52.712 -51.673  1.00  0.00     0.042 A 
HETATM   13 CL   UNL     1     -40.220  53.191 -50.012  1.00  0.00    -0.084 Cl
ENDBRANCH   6   7
BRANCH   6  14
HETATM   14  N   UNL     1     -41.092  55.789 -51.954  1.00  0.00    -0.339 N 
HETATM   15  C   UNL     1     -41.192  56.603 -50.879  1.00  0.00     0.292 C 
HETATM   16  N   UNL     1     -41.853  56.128 -49.805  1.00  0.00    -0.254 NA
HETATM   17  O   UNL     1     -40.709  57.728 -50.876  1.00  0.00    -0.254 OA
HETATM   18  H   UNL     1     -41.649  55.177 -49.540  1.00  0.00     0.128 HD
HETATM   19  H   UNL     1     -41.816  56.774 -49.025  1.00  0.00     0.128 HD
HETATM   20  H   UNL     1     -40.706  56.303 -52.736  1.00  0.00     0.164 HD
ENDBRANCH   6  14
ENDBRANCH   5   6
ENDBRANCH   1   5
BRANCH   2  21
HETATM   21  N   UNL     1     -41.964  56.809 -56.301  1.00  0.00    -0.263 N 
HETATM   22  C   UNL     1     -42.504  56.763 -57.568  1.00  0.00     0.270 C 
HETATM   23  O   UNL     1     -43.138  55.791 -57.976  1.00  0.00    -0.266 OA
HETATM   24  H   UNL     1     -41.384  57.560 -55.933  1.00  0.00     0.190 HD
BRANCH  22  25
HETATM   25  C   UNL     1     -42.281  57.952 -58.444  1.00  0.00     0.036 A 
HETATM   26  C   UNL     1     -42.036  59.232 -57.924  1.00  0.00     0.057 A 
HETATM   27  C   UNL     1     -41.866  60.267 -58.822  1.00  0.00     0.106 A 
HETATM   28  C   UNL     1     -41.936  60.076 -60.182  1.00  0.00     0.105 A 
HETATM   29  O   UNL     1     -41.627  61.565 -58.493  1.00  0.00    -0.323 OA
HETATM   30  O   UNL     1     -41.748  61.228 -60.878  1.00  0.00    -0.323 OA
HETATM   31  C   UNL     1     -42.183  58.835 -60.726  1.00  0.00     0.041 A 
HETATM   32  C   UNL     1     -41.559  62.171 -59.800  1.00  0.00     0.352 A 
HETATM   33  C   UNL     1     -42.359  57.764 -59.843  1.00  0.00     0.020 A 
ENDBRANCH  22  25
ENDBRANCH   2  21
TORSDOF 6
ENDMDL
MODEL 10
REMARK VINA RESULT:      -7.9      3.446      9.123
REMARK  6 active torsions:
REMARK  status: ('A' for Active; 'I' for Inactive)
REMARK    1  A    between atoms: C_3  and  C_4 
REMARK    2  A    between atoms: C_4  and  N_5 
REMARK    3  A    between atoms: C_4  and  C_9 
REMARK       I    between atoms: N_5  and  C_6 
REMARK       I    between atoms: C_6  and  N_7 
REMARK    4  A    between atoms: C_9  and  C_10 
REMARK       I    between atoms: C_10  and  N_11 
REMARK    5  A    between atoms: N_11  and  N_12 
REMARK       I    between atoms: N_12  and  C_13 
REMARK    6  A    between atoms: C_13  and  C_14 
ROOT
HETATM    1  C   UNL     1     -43.999  56.524 -54.856  1.00  0.00     0.238 C 
HETATM    2  N   UNL     1     -43.541  55.444 -55.575  1.00  0.00    -0.267 N 
HETATM    3  O   UNL     1     -43.931  56.562 -53.629  1.00  0.00    -0.272 OA
HETATM    4  H   UNL     1     -43.614  55.331 -56.585  1.00  0.00     0.190 HD
ENDROOT
BRANCH   1   5
HETATM    5  C   UNL     1     -44.608  57.633 -55.680  1.00  0.00     0.134 C 
BRANCH   5   6
HETATM    6  C   UNL     1     -43.980  57.750 -57.077  1.00  0.00     0.129 C 
BRANCH   6   7
HETATM    7  C   UNL     1     -45.003  57.553 -58.190  1.00  0.00    -0.013 A 
HETATM    8  C   UNL     1     -46.125  58.400 -58.296  1.00  0.00     0.011 A 
HETATM    9  C   UNL     1     -47.086  58.212 -59.293  1.00  0.00     0.001 A 
HETATM   10  C   UNL     1     -46.951  57.174 -60.208  1.00  0.00     0.002 A 
HETATM   11  C   UNL     1     -45.858  56.316 -60.118  1.00  0.00     0.024 A 
HETATM   12  C   UNL     1     -44.897  56.495 -59.117  1.00  0.00     0.042 A 
HETATM   13 CL   UNL     1     -43.605  55.346 -59.068  1.00  0.00    -0.084 Cl
ENDBRANCH   6   7
BRANCH   6  14
HETATM   14  N   UNL     1     -43.193  58.972 -57.249  1.00  0.00    -0.339 N 
HETATM   15  C   UNL     1     -41.974  59.089 -57.823  1.00  0.00     0.292 C 
HETATM   16  N   UNL     1     -41.568  58.081 -58.620  1.00  0.00    -0.254 NA
HETATM   17  O   UNL     1     -41.262  60.065 -57.628  1.00  0.00    -0.254 OA
HETATM   18  H   UNL     1     -42.255  57.716 -59.263  1.00  0.00     0.128 HD
HETATM   19  H   UNL     1     -40.680  58.286 -59.063  1.00  0.00     0.128 HD
HETATM   20  H   UNL     1     -43.322  59.712 -56.570  1.00  0.00     0.164 HD
ENDBRANCH   6  14
ENDBRANCH   5   6
ENDBRANCH   1   5
BRANCH   2  21
HETATM   21  N   UNL     1     -42.925  54.410 -54.867  1.00  0.00    -0.263 N 
HETATM   22  C   UNL     1     -41.550  54.394 -54.781  1.00  0.00     0.270 C 
HETATM   23  O   UNL     1     -40.847  55.211 -55.373  1.00  0.00    -0.266 OA
HETATM   24  H   UNL     1     -43.551  53.725 -54.447  1.00  0.00     0.190 HD
BRANCH  22  25
HETATM   25  C   UNL     1     -40.935  53.327 -53.937  1.00  0.00     0.036 A 
HETATM   26  C   UNL     1     -40.770  52.010 -54.394  1.00  0.00     0.057 A 
HETATM   27  C   UNL     1     -40.212  51.095 -53.524  1.00  0.00     0.106 A 
HETATM   28  C   UNL     1     -39.829  51.436 -52.249  1.00  0.00     0.105 A 
HETATM   29  O   UNL     1     -39.986  49.782 -53.799  1.00  0.00    -0.323 OA
HETATM   30  O   UNL     1     -39.312  50.383 -51.563  1.00  0.00    -0.323 OA
HETATM   31  C   UNL     1     -39.983  52.716 -51.765  1.00  0.00     0.041 A 
HETATM   32  C   UNL     1     -39.420  49.334 -52.550  1.00  0.00     0.352 A 
HETATM   33  C   UNL     1     -40.545  53.669 -52.622  1.00  0.00     0.020 A 
ENDBRANCH  22  25
ENDBRANCH   2  21
TORSDOF 6
ENDMDL
