MODEL 1
REMARK VINA RESULT:      -8.9      0.000      0.000
REMARK  8 active torsions:
REMARK  status: ('A' for Active; 'I' for Inactive)
REMARK    1  A    between atoms: C_3  and  N_4 
REMARK       I    between atoms: N_4  and  C_5 
REMARK    2  A    between atoms: C_5  and  C_6 
REMARK    3  A    between atoms: C_6  and  N_7 
REMARK    4  A    between atoms: N_10  and  C_11 
REMARK    5  A    between atoms: C_11  and  C_12 
REMARK    6  A    between atoms: C_12  and  C_13 
REMARK       I    between atoms: C_13  and  N_14 
REMARK    7  A    between atoms: N_14  and  C_15 
REMARK    8  A    between atoms: C_15  and  C_16 
ROOT
HETATM    1  N   UNL     1     -42.787  57.475 -54.242  1.00  0.00    -0.289 N 
HETATM    2  C   UNL     1     -42.931  58.279 -55.374  1.00  0.00     0.332 C 
HETATM    3  O   UNL     1     -43.193  57.759 -56.465  1.00  0.00    -0.246 OA
HETATM    4  N   UNL     1     -42.770  59.668 -55.226  1.00  0.00    -0.265 N 
HETATM    5  C   UNL     1     -42.519  60.297 -53.999  1.00  0.00     0.271 C 
HETATM    6  O   UNL     1     -42.556  61.515 -53.835  1.00  0.00    -0.266 OA
HETATM    7  C   UNL     1     -42.227  59.382 -52.931  1.00  0.00     0.100 A 
HETATM    8  C   UNL     1     -42.352  58.025 -53.042  1.00  0.00     0.062 A 
HETATM    9  S   UNL     1     -41.723  59.880 -51.387  1.00  0.00    -0.094 SA
HETATM   10  C   UNL     1     -41.637  58.258 -50.843  1.00  0.00     0.053 A 
HETATM   11  C   UNL     1     -42.004  57.364 -51.828  1.00  0.00     0.038 A 
ENDROOT
BRANCH   4  12
HETATM   12  C   UNL     1     -43.053  60.449 -56.445  1.00  0.00     0.146 C 
BRANCH  12  13
HETATM   13  C   UNL     1     -41.884  61.000 -57.257  1.00  0.00     0.123 C 
BRANCH  13  14
HETATM   14  C   UNL     1     -41.823  60.393 -58.640  1.00  0.00     0.219 C 
HETATM   15  N   UNL     1     -41.677  59.026 -58.608  1.00  0.00    -0.357 N 
HETATM   16  H   UNL     1     -41.553  58.559 -57.718  1.00  0.00     0.162 HD
HETATM   17  O   UNL     1     -41.905  61.048 -59.672  1.00  0.00    -0.274 OA
BRANCH  15  18
HETATM   18  C   UNL     1     -41.643  58.216 -59.803  1.00  0.00     0.161 C 
BRANCH  18  19
HETATM   19  C   UNL     1     -42.904  57.396 -59.895  1.00  0.00    -0.038 A 
HETATM   20  C   UNL     1     -44.139  58.004 -60.169  1.00  0.00     0.048 A 
HETATM   21  C   UNL     1     -45.248  57.191 -60.287  1.00  0.00     0.105 A 
HETATM   22  C   UNL     1     -45.167  55.825 -60.147  1.00  0.00     0.105 A 
HETATM   23  O   UNL     1     -46.514  57.610 -60.554  1.00  0.00    -0.323 OA
HETATM   24  O   UNL     1     -46.371  55.215 -60.309  1.00  0.00    -0.323 OA
HETATM   25  C   UNL     1     -43.975  55.193 -59.879  1.00  0.00     0.040 A 
HETATM   26  C   UNL     1     -47.221  56.352 -60.564  1.00  0.00     0.352 A 
HETATM   27  C   UNL     1     -42.833  55.989 -59.754  1.00  0.00     0.012 A 
ENDBRANCH  18  19
ENDBRANCH  15  18
ENDBRANCH  13  14
ENDBRANCH  12  13
ENDBRANCH   4  12
BRANCH   1  28
HETATM   28  C   UNL     1     -43.152  56.067 -54.367  1.00  0.00     0.237 C 
BRANCH  28  29
HETATM   29  C   UNL     1     -41.946  55.136 -54.323  1.00  0.00     0.240 C 
HETATM   30  N   UNL     1     -42.174  53.997 -53.568  1.00  0.00    -0.325 N 
HETATM   31  H   UNL     1     -43.145  53.679 -53.560  1.00  0.00     0.169 HD
HETATM   32  O   UNL     1     -40.923  55.391 -54.954  1.00  0.00    -0.271 OA
BRANCH  30  33
HETATM   33  C   UNL     1     -41.192  53.070 -53.153  1.00  0.00     0.042 A 
HETATM   34  C   UNL     1     -40.560  53.089 -51.893  1.00  0.00    -0.035 A 
HETATM   35  C   UNL     1     -40.894  54.058 -50.792  1.00  0.00     0.050 C 
HETATM   36  C   UNL     1     -39.584  52.113 -51.606  1.00  0.00     0.011 A 
HETATM   37  C   UNL     1     -39.279  51.109 -52.521  1.00  0.00     0.024 A 
HETATM   38  C   UNL     1     -39.952  51.064 -53.735  1.00  0.00     0.036 A 
HETATM   39  C   UNL     1     -40.911  52.026 -54.049  1.00  0.00     0.053 A 
HETATM   40 CL   UNL     1     -39.593  49.813 -54.862  1.00  0.00    -0.084 Cl
ENDBRANCH  30  33
ENDBRANCH  28  29
ENDBRANCH   1  28
TORSDOF 8
ENDMDL
MODEL 2
REMARK VINA RESULT:      -8.7      2.530      4.445
REMARK  8 active torsions:
REMARK  status: ('A' for Active; 'I' for Inactive)
REMARK    1  A    between atoms: C_3  and  N_4 
REMARK       I    between atoms: N_4  and  C_5 
REMARK    2  A    between atoms: C_5  and  C_6 
REMARK    3  A    between atoms: C_6  and  N_7 
REMARK    4  A    between atoms: N_10  and  C_11 
REMARK    5  A    between atoms: C_11  and  C_12 
REMARK    6  A    between atoms: C_12  and  C_13 
REMARK       I    between atoms: C_13  and  N_14 
REMARK    7  A    between atoms: N_14  and  C_15 
REMARK    8  A    between atoms: C_15  and  C_16 
ROOT
HETATM    1  N   UNL     1     -42.804  56.879 -56.103  1.00  0.00    -0.289 N 
HETATM    2  C   UNL     1     -42.868  55.955 -57.147  1.00  0.00     0.332 C 
HETATM    3  O   UNL     1     -42.876  54.744 -56.894  1.00  0.00    -0.246 OA
HETATM    4  N   UNL     1     -42.925  56.445 -58.464  1.00  0.00    -0.265 N 
HETATM    5  C   UNL     1     -42.967  57.809 -58.787  1.00  0.00     0.271 C 
HETATM    6  O   UNL     1     -43.196  58.237 -59.916  1.00  0.00    -0.266 OA
HETATM    7  C   UNL     1     -42.731  58.675 -57.665  1.00  0.00     0.100 A 
HETATM    8  C   UNL     1     -42.650  58.234 -56.373  1.00  0.00     0.062 A 
HETATM    9  S   UNL     1     -42.559  60.359 -57.806  1.00  0.00    -0.094 SA
HETATM   10  C   UNL     1     -42.342  60.523 -56.114  1.00  0.00     0.053 A 
HETATM   11  C   UNL     1     -42.418  59.307 -55.465  1.00  0.00     0.038 A 
ENDROOT
BRANCH   4  12
HETATM   12  C   UNL     1     -43.109  55.407 -59.495  1.00  0.00     0.146 C 
BRANCH  12  13
HETATM   13  C   UNL     1     -44.426  54.637 -59.541  1.00  0.00     0.123 C 
BRANCH  13  14
HETATM   14  C   UNL     1     -45.326  55.124 -60.654  1.00  0.00     0.219 C 
HETATM   15  N   UNL     1     -46.411  55.825 -60.182  1.00  0.00    -0.357 N 
HETATM   16  H   UNL     1     -46.562  55.897 -59.183  1.00  0.00     0.162 HD
HETATM   17  O   UNL     1     -45.106  54.924 -61.842  1.00  0.00    -0.274 OA
BRANCH  15  18
HETATM   18  C   UNL     1     -47.388  56.432 -61.055  1.00  0.00     0.161 C 
BRANCH  18  19
HETATM   19  C   UNL     1     -47.396  57.924 -60.847  1.00  0.00    -0.038 A 
HETATM   20  C   UNL     1     -46.702  58.505 -59.774  1.00  0.00     0.048 A 
HETATM   21  C   UNL     1     -46.711  59.881 -59.666  1.00  0.00     0.105 A 
HETATM   22  C   UNL     1     -47.370  60.677 -60.572  1.00  0.00     0.105 A 
HETATM   23  O   UNL     1     -46.090  60.604 -58.696  1.00  0.00    -0.323 OA
HETATM   24  O   UNL     1     -47.245  62.001 -60.288  1.00  0.00    -0.323 OA
HETATM   25  C   UNL     1     -48.060  60.146 -61.638  1.00  0.00     0.040 A 
HETATM   26  C   UNL     1     -46.435  61.947 -59.095  1.00  0.00     0.352 A 
HETATM   27  C   UNL     1     -48.070  58.755 -61.775  1.00  0.00     0.012 A 
ENDBRANCH  18  19
ENDBRANCH  15  18
ENDBRANCH  13  14
ENDBRANCH  12  13
ENDBRANCH   4  12
BRANCH   1  28
HETATM   28  C   UNL     1     -42.947  56.367 -54.743  1.00  0.00     0.237 C 
BRANCH  28  29
HETATM   29  C   UNL     1     -41.728  55.581 -54.274  1.00  0.00     0.240 C 
HETATM   30  N   UNL     1     -42.019  54.256 -53.992  1.00  0.00    -0.325 N 
HETATM   31  H   UNL     1     -42.778  53.859 -54.550  1.00  0.00     0.169 HD
HETATM   32  O   UNL     1     -40.618  56.104 -54.220  1.00  0.00    -0.271 OA
BRANCH  30  33
HETATM   33  C   UNL     1     -41.168  53.346 -53.327  1.00  0.00     0.042 A 
HETATM   34  C   UNL     1     -40.810  53.436 -51.967  1.00  0.00    -0.035 A 
HETATM   35  C   UNL     1     -41.343  54.476 -51.018  1.00  0.00     0.050 C 
HETATM   36  C   UNL     1     -39.939  52.469 -51.426  1.00  0.00     0.011 A 
HETATM   37  C   UNL     1     -39.474  51.406 -52.197  1.00  0.00     0.024 A 
HETATM   38  C   UNL     1     -39.882  51.294 -53.520  1.00  0.00     0.036 A 
HETATM   39  C   UNL     1     -40.732  52.246 -54.082  1.00  0.00     0.053 A 
HETATM   40 CL   UNL     1     -39.327  49.972 -54.473  1.00  0.00    -0.084 Cl
ENDBRANCH  30  33
ENDBRANCH  28  29
ENDBRANCH   1  28
TORSDOF 8
ENDMDL
MODEL 3
REMARK VINA RESULT:      -8.4      2.983      4.835
REMARK  8 active torsions:
REMARK  status: ('A' for Active; 'I' for Inactive)
REMARK    1  A    between atoms: C_3  and  N_4 
REMARK       I    between atoms: N_4  and  C_5 
REMARK    2  A    between atoms: C_5  and  C_6 
REMARK    3  A    between atoms: C_6  and  N_7 
REMARK    4  A    between atoms: N_10  and  C_11 
REMARK    5  A    between atoms: C_11  and  C_12 
REMARK    6  A    between atoms: C_12  and  C_13 
REMARK       I    between atoms: C_13  and  N_14 
REMARK    7  A    between atoms: N_14  and  C_15 
REMARK    8  A    between atoms: C_15  and  C_16 
ROOT
HETATM    1  N   UNL     1     -43.355  57.110 -56.133  1.00  0.00    -0.289 N 
HETATM    2  C   UNL     1     -43.158  56.084 -57.060  1.00  0.00     0.332 C 
HETATM    3  O   UNL     1     -43.054  54.915 -56.668  1.00  0.00    -0.246 OA
HETATM    4  N   UNL     1     -43.085  56.426 -58.422  1.00  0.00    -0.265 N 
HETATM    5  C   UNL     1     -43.245  57.731 -58.908  1.00  0.00     0.271 C 
HETATM    6  O   UNL     1     -43.362  58.007 -60.099  1.00  0.00    -0.266 OA
HETATM    7  C   UNL     1     -43.279  58.730 -57.876  1.00  0.00     0.100 A 
HETATM    8  C   UNL     1     -43.329  58.438 -56.541  1.00  0.00     0.062 A 
HETATM    9  S   UNL     1     -43.294  60.399 -58.193  1.00  0.00    -0.094 SA
HETATM   10  C   UNL     1     -43.342  60.762 -56.519  1.00  0.00     0.053 A 
HETATM   11  C   UNL     1     -43.362  59.619 -55.745  1.00  0.00     0.038 A 
ENDROOT
BRANCH   4  12
HETATM   12  C   UNL     1     -42.993  55.273 -59.338  1.00  0.00     0.146 C 
BRANCH  12  13
HETATM   13  C   UNL     1     -44.228  54.403 -59.556  1.00  0.00     0.123 C 
BRANCH  13  14
HETATM   14  C   UNL     1     -45.180  55.017 -60.557  1.00  0.00     0.219 C 
HETATM   15  N   UNL     1     -46.239  55.652 -59.952  1.00  0.00    -0.357 N 
HETATM   16  H   UNL     1     -46.341  55.603 -58.945  1.00  0.00     0.162 HD
HETATM   17  O   UNL     1     -45.019  54.963 -61.769  1.00  0.00    -0.274 OA
BRANCH  15  18
HETATM   18  C   UNL     1     -47.257  56.356 -60.697  1.00  0.00     0.161 C 
BRANCH  18  19
HETATM   19  C   UNL     1     -47.276  57.805 -60.283  1.00  0.00    -0.038 A 
HETATM   20  C   UNL     1     -47.720  58.800 -61.169  1.00  0.00     0.048 A 
HETATM   21  C   UNL     1     -47.756  60.102 -60.713  1.00  0.00     0.105 A 
HETATM   22  C   UNL     1     -47.379  60.436 -59.434  1.00  0.00     0.105 A 
HETATM   23  O   UNL     1     -48.162  61.183 -61.433  1.00  0.00    -0.323 OA
HETATM   24  O   UNL     1     -47.499  61.768 -59.188  1.00  0.00    -0.323 OA
HETATM   25  C   UNL     1     -46.939  59.490 -58.537  1.00  0.00     0.040 A 
HETATM   26  C   UNL     1     -47.994  62.235 -60.460  1.00  0.00     0.352 A 
HETATM   27  C   UNL     1     -46.890  58.161 -58.969  1.00  0.00     0.012 A 
ENDBRANCH  18  19
ENDBRANCH  15  18
ENDBRANCH  13  14
ENDBRANCH  12  13
ENDBRANCH   4  12
BRANCH   1  28
HETATM   28  C   UNL     1     -43.628  56.723 -54.752  1.00  0.00     0.237 C 
BRANCH  28  29
HETATM   29  C   UNL     1     -42.391  56.209 -54.025  1.00  0.00     0.240 C 
HETATM   30  N   UNL     1     -42.553  54.926 -53.529  1.00  0.00    -0.325 N 
HETATM   31  H   UNL     1     -43.185  54.336 -54.074  1.00  0.00     0.169 HD
HETATM   32  O   UNL     1     -41.366  56.883 -53.961  1.00  0.00    -0.271 OA
BRANCH  30  33
HETATM   33  C   UNL     1     -41.688  54.273 -52.624  1.00  0.00     0.042 A 
HETATM   34  C   UNL     1     -40.766  53.269 -52.984  1.00  0.00    -0.035 A 
HETATM   35  C   UNL     1     -40.529  52.804 -54.396  1.00  0.00     0.050 C 
HETATM   36  C   UNL     1     -39.967  52.685 -51.981  1.00  0.00     0.011 A 
HETATM   37  C   UNL     1     -40.038  53.120 -50.660  1.00  0.00     0.024 A 
HETATM   38  C   UNL     1     -40.906  54.152 -50.327  1.00  0.00     0.036 A 
HETATM   39  C   UNL     1     -41.717  54.736 -51.299  1.00  0.00     0.053 A 
HETATM   40 CL   UNL     1     -40.983  54.708 -48.699  1.00  0.00    -0.084 Cl
ENDBRANCH  30  33
ENDBRANCH  28  29
ENDBRANCH   1  28
TORSDOF 8
ENDMDL
MODEL 4
REMARK VINA RESULT:      -8.4      2.642      7.309
REMARK  8 active torsions:
REMARK  status: ('A' for Active; 'I' for Inactive)
REMARK    1  A    between atoms: C_3  and  N_4 
REMARK       I    between atoms: N_4  and  C_5 
REMARK    2  A    between atoms: C_5  and  C_6 
REMARK    3  A    between atoms: C_6  and  N_7 
REMARK    4  A    between atoms: N_10  and  C_11 
REMARK    5  A    between atoms: C_11  and  C_12 
REMARK    6  A    between atoms: C_12  and  C_13 
REMARK       I    between atoms: C_13  and  N_14 
REMARK    7  A    between atoms: N_14  and  C_15 
REMARK    8  A    between atoms: C_15  and  C_16 
ROOT
HETATM    1  N   UNL     1     -42.629  60.786 -54.008  1.00  0.00    -0.289 N 
HETATM    2  C   UNL     1     -41.681  60.067 -53.278  1.00  0.00     0.332 C 
HETATM    3  O   UNL     1     -40.838  59.384 -53.873  1.00  0.00    -0.246 OA
HETATM    4  N   UNL     1     -41.722  60.150 -51.875  1.00  0.00    -0.265 N 
HETATM    5  C   UNL     1     -42.631  60.950 -51.168  1.00  0.00     0.271 C 
HETATM    6  O   UNL     1     -42.557  61.164 -49.960  1.00  0.00    -0.266 OA
HETATM    7  C   UNL     1     -43.662  61.518 -51.991  1.00  0.00     0.100 A 
HETATM    8  C   UNL     1     -43.668  61.440 -53.357  1.00  0.00     0.062 A 
HETATM    9  S   UNL     1     -44.983  62.384 -51.368  1.00  0.00    -0.094 SA
HETATM   10  C   UNL     1     -45.607  62.651 -52.941  1.00  0.00     0.053 A 
HETATM   11  C   UNL     1     -44.803  62.096 -53.915  1.00  0.00     0.038 A 
ENDROOT
BRANCH   4  12
HETATM   12  C   UNL     1     -40.617  59.455 -51.189  1.00  0.00     0.146 C 
BRANCH  12  13
HETATM   13  C   UNL     1     -40.901  58.133 -50.483  1.00  0.00     0.123 C 
BRANCH  13  14
HETATM   14  C   UNL     1     -41.831  57.252 -51.287  1.00  0.00     0.219 C 
HETATM   15  N   UNL     1     -41.178  56.582 -52.295  1.00  0.00    -0.357 N 
HETATM   16  H   UNL     1     -40.198  56.771 -52.466  1.00  0.00     0.162 HD
HETATM   17  O   UNL     1     -43.028  57.141 -51.056  1.00  0.00    -0.274 OA
BRANCH  15  18
HETATM   18  C   UNL     1     -41.844  55.644 -53.168  1.00  0.00     0.161 C 
BRANCH  18  19
HETATM   19  C   UNL     1     -41.143  54.312 -53.109  1.00  0.00    -0.038 A 
HETATM   20  C   UNL     1     -40.941  53.658 -51.883  1.00  0.00     0.048 A 
HETATM   21  C   UNL     1     -40.333  52.419 -51.903  1.00  0.00     0.105 A 
HETATM   22  C   UNL     1     -39.933  51.824 -53.075  1.00  0.00     0.105 A 
HETATM   23  O   UNL     1     -40.068  51.649 -50.813  1.00  0.00    -0.323 OA
HETATM   24  O   UNL     1     -39.367  50.605 -52.871  1.00  0.00    -0.323 OA
HETATM   25  C   UNL     1     -40.114  52.432 -54.296  1.00  0.00     0.040 A 
HETATM   26  C   UNL     1     -39.453  50.502 -51.435  1.00  0.00     0.352 A 
HETATM   27  C   UNL     1     -40.727  53.688 -54.310  1.00  0.00     0.012 A 
ENDBRANCH  18  19
ENDBRANCH  15  18
ENDBRANCH  13  14
ENDBRANCH  12  13
ENDBRANCH   4  12
BRANCH   1  28
HETATM   28  C   UNL     1     -42.452  60.852 -55.456  1.00  0.00     0.237 C 
BRANCH  28  29
HETATM   29  C   UNL     1     -43.155  59.717 -56.192  1.00  0.00     0.240 C 
HETATM   30  N   UNL     1     -42.361  58.589 -56.323  1.00  0.00    -0.325 N 
HETATM   31  H   UNL     1     -41.688  58.453 -55.567  1.00  0.00     0.169 HD
HETATM   32  O   UNL     1     -44.322  59.826 -56.561  1.00  0.00    -0.271 OA
BRANCH  30  33
HETATM   33  C   UNL     1     -42.639  57.474 -57.144  1.00  0.00     0.042 A 
HETATM   34  C   UNL     1     -42.550  57.477 -58.551  1.00  0.00    -0.035 A 
HETATM   35  C   UNL     1     -42.079  58.650 -59.367  1.00  0.00     0.050 C 
HETATM   36  C   UNL     1     -42.868  56.299 -59.256  1.00  0.00     0.011 A 
HETATM   37  C   UNL     1     -43.213  55.128 -58.585  1.00  0.00     0.024 A 
HETATM   38  C   UNL     1     -43.238  55.121 -57.196  1.00  0.00     0.036 A 
HETATM   39  C   UNL     1     -42.942  56.277 -56.476  1.00  0.00     0.053 A 
HETATM   40 CL   UNL     1     -43.645  53.671 -56.360  1.00  0.00    -0.084 Cl
ENDBRANCH  30  33
ENDBRANCH  28  29
ENDBRANCH   1  28
TORSDOF 8
ENDMDL
MODEL 5
REMARK VINA RESULT:      -8.4      1.674      2.048
REMARK  8 active torsions:
REMARK  status: ('A' for Active; 'I' for Inactive)
REMARK    1  A    between atoms: C_3  and  N_4 
REMARK       I    between atoms: N_4  and  C_5 
REMARK    2  A    between atoms: C_5  and  C_6 
REMARK    3  A    between atoms: C_6  and  N_7 
REMARK    4  A    between atoms: N_10  and  C_11 
REMARK    5  A    between atoms: C_11  and  C_12 
REMARK    6  A    between atoms: C_12  and  C_13 
REMARK       I    between atoms: C_13  and  N_14 
REMARK    7  A    between atoms: N_14  and  C_15 
REMARK    8  A    between atoms: C_15  and  C_16 
ROOT
HETATM    1  N   UNL     1     -42.381  57.585 -54.322  1.00  0.00    -0.289 N 
HETATM    2  C   UNL     1     -43.500  58.129 -54.956  1.00  0.00     0.332 C 
HETATM    3  O   UNL     1     -43.809  57.744 -56.090  1.00  0.00    -0.246 OA
HETATM    4  N   UNL     1     -44.243  59.105 -54.268  1.00  0.00    -0.265 N 
HETATM    5  C   UNL     1     -43.951  59.532 -52.965  1.00  0.00     0.271 C 
HETATM    6  O   UNL     1     -44.695  60.247 -52.297  1.00  0.00    -0.266 OA
HETATM    7  C   UNL     1     -42.697  59.041 -52.464  1.00  0.00     0.100 A 
HETATM    8  C   UNL     1     -41.937  58.107 -53.113  1.00  0.00     0.062 A 
HETATM    9  S   UNL     1     -42.024  59.538 -50.986  1.00  0.00    -0.094 SA
HETATM   10  C   UNL     1     -40.668  58.514 -51.209  1.00  0.00     0.053 A 
HETATM   11  C   UNL     1     -40.750  57.800 -52.387  1.00  0.00     0.038 A 
ENDROOT
BRANCH   4  12
HETATM   12  C   UNL     1     -45.471  59.539 -54.960  1.00  0.00     0.146 C 
BRANCH  12  13
HETATM   13  C   UNL     1     -45.510  60.926 -55.595  1.00  0.00     0.123 C 
BRANCH  13  14
HETATM   14  C   UNL     1     -45.492  60.856 -57.105  1.00  0.00     0.219 C 
HETATM   15  N   UNL     1     -44.246  60.551 -57.601  1.00  0.00    -0.357 N 
HETATM   16  H   UNL     1     -43.462  60.474 -56.965  1.00  0.00     0.162 HD
HETATM   17  O   UNL     1     -46.480  61.040 -57.805  1.00  0.00    -0.274 OA
BRANCH  15  18
HETATM   18  C   UNL     1     -43.988  60.381 -59.012  1.00  0.00     0.161 C 
BRANCH  18  19
HETATM   19  C   UNL     1     -43.874  58.913 -59.332  1.00  0.00    -0.038 A 
HETATM   20  C   UNL     1     -45.020  58.111 -59.451  1.00  0.00     0.048 A 
HETATM   21  C   UNL     1     -44.849  56.785 -59.792  1.00  0.00     0.105 A 
HETATM   22  C   UNL     1     -43.605  56.246 -60.016  1.00  0.00     0.105 A 
HETATM   23  O   UNL     1     -45.846  55.873 -59.954  1.00  0.00    -0.323 OA
HETATM   24  O   UNL     1     -43.661  54.928 -60.348  1.00  0.00    -0.323 OA
HETATM   25  C   UNL     1     -42.458  56.999 -59.911  1.00  0.00     0.040 A 
HETATM   26  C   UNL     1     -45.085  54.698 -60.304  1.00  0.00     0.352 A 
HETATM   27  C   UNL     1     -42.597  58.347 -59.566  1.00  0.00     0.012 A 
ENDBRANCH  18  19
ENDBRANCH  15  18
ENDBRANCH  13  14
ENDBRANCH  12  13
ENDBRANCH   4  12
BRANCH   1  28
HETATM   28  C   UNL     1     -41.741  56.437 -54.958  1.00  0.00     0.237 C 
BRANCH  28  29
HETATM   29  C   UNL     1     -41.801  55.176 -54.103  1.00  0.00     0.240 C 
HETATM   30  N   UNL     1     -40.547  54.715 -53.738  1.00  0.00    -0.325 N 
HETATM   31  H   UNL     1     -39.838  55.444 -53.635  1.00  0.00     0.169 HD
HETATM   32  O   UNL     1     -42.877  54.692 -53.760  1.00  0.00    -0.271 OA
BRANCH  30  33
HETATM   33  C   UNL     1     -40.265  53.461 -53.152  1.00  0.00     0.042 A 
HETATM   34  C   UNL     1     -40.195  53.226 -51.764  1.00  0.00    -0.035 A 
HETATM   35  C   UNL     1     -40.481  54.266 -50.714  1.00  0.00     0.050 C 
HETATM   36  C   UNL     1     -39.891  51.928 -51.306  1.00  0.00     0.011 A 
HETATM   37  C   UNL     1     -39.714  50.874 -52.198  1.00  0.00     0.024 A 
HETATM   38  C   UNL     1     -39.845  51.104 -53.561  1.00  0.00     0.036 A 
HETATM   39  C   UNL     1     -40.131  52.382 -54.040  1.00  0.00     0.053 A 
HETATM   40 CL   UNL     1     -39.646  49.800 -54.668  1.00  0.00    -0.084 Cl
ENDBRANCH  30  33
ENDBRANCH  28  29
ENDBRANCH   1  28
TORSDOF 8
ENDMDL
MODEL 6
REMARK VINA RESULT:      -8.3      2.364      3.877
REMARK  8 active torsions:
REMARK  status: ('A' for Active; 'I' for Inactive)
REMARK    1  A    between atoms: C_3  and  N_4 
REMARK       I    between atoms: N_4  and  C_5 
REMARK    2  A    between atoms: C_5  and  C_6 
REMARK    3  A    between atoms: C_6  and  N_7 
REMARK    4  A    between atoms: N_10  and  C_11 
REMARK    5  A    between atoms: C_11  and  C_12 
REMARK    6  A    between atoms: C_12  and  C_13 
REMARK       I    between atoms: C_13  and  N_14 
REMARK    7  A    between atoms: N_14  and  C_15 
REMARK    8  A    between atoms: C_15  and  C_16 
ROOT
HETATM    1  N   UNL     1     -43.098  57.075 -56.144  1.00  0.00    -0.289 N 
HETATM    2  C   UNL     1     -42.979  58.362 -55.614  1.00  0.00     0.332 C 
HETATM    3  O   UNL     1     -43.239  58.559 -54.421  1.00  0.00    -0.246 OA
HETATM    4  N   UNL     1     -42.561  59.396 -56.470  1.00  0.00    -0.265 N 
HETATM    5  C   UNL     1     -42.212  59.202 -57.814  1.00  0.00     0.271 C 
HETATM    6  O   UNL     1     -41.679  60.061 -58.513  1.00  0.00    -0.266 OA
HETATM    7  C   UNL     1     -42.522  57.888 -58.307  1.00  0.00     0.100 A 
HETATM    8  C   UNL     1     -42.950  56.863 -57.509  1.00  0.00     0.062 A 
HETATM    9  S   UNL     1     -42.360  57.441 -59.938  1.00  0.00    -0.094 SA
HETATM   10  C   UNL     1     -42.896  55.849 -59.600  1.00  0.00     0.053 A 
HETATM   11  C   UNL     1     -43.174  55.672 -58.260  1.00  0.00     0.038 A 
ENDROOT
BRANCH   4  12
HETATM   12  C   UNL     1     -42.350  60.694 -55.803  1.00  0.00     0.146 C 
BRANCH  12  13
HETATM   13  C   UNL     1     -43.307  61.844 -56.106  1.00  0.00     0.123 C 
BRANCH  13  14
HETATM   14  C   UNL     1     -44.751  61.444 -55.904  1.00  0.00     0.219 C 
HETATM   15  N   UNL     1     -45.412  61.245 -57.093  1.00  0.00    -0.357 N 
HETATM   16  H   UNL     1     -44.937  61.442 -57.966  1.00  0.00     0.162 HD
HETATM   17  O   UNL     1     -45.268  61.302 -54.803  1.00  0.00    -0.274 OA
BRANCH  15  18
HETATM   18  C   UNL     1     -46.787  60.810 -57.159  1.00  0.00     0.161 C 
BRANCH  18  19
HETATM   19  C   UNL     1     -46.972  59.891 -58.339  1.00  0.00    -0.038 A 
HETATM   20  C   UNL     1     -46.483  58.576 -58.310  1.00  0.00     0.048 A 
HETATM   21  C   UNL     1     -46.725  57.772 -59.404  1.00  0.00     0.105 A 
HETATM   22  C   UNL     1     -47.426  58.222 -60.498  1.00  0.00     0.105 A 
HETATM   23  O   UNL     1     -46.329  56.477 -59.540  1.00  0.00    -0.323 OA
HETATM   24  O   UNL     1     -47.560  57.269 -61.458  1.00  0.00    -0.323 OA
HETATM   25  C   UNL     1     -47.923  59.504 -60.563  1.00  0.00     0.040 A 
HETATM   26  C   UNL     1     -46.860  56.166 -60.846  1.00  0.00     0.352 A 
HETATM   27  C   UNL     1     -47.693  60.345 -59.470  1.00  0.00     0.012 A 
ENDBRANCH  18  19
ENDBRANCH  15  18
ENDBRANCH  13  14
ENDBRANCH  12  13
ENDBRANCH   4  12
BRANCH   1  28
HETATM   28  C   UNL     1     -43.336  55.982 -55.206  1.00  0.00     0.237 C 
BRANCH  28  29
HETATM   29  C   UNL     1     -42.057  55.256 -54.804  1.00  0.00     0.240 C 
HETATM   30  N   UNL     1     -42.299  54.016 -54.235  1.00  0.00    -0.325 N 
HETATM   31  H   UNL     1     -43.141  53.549 -54.577  1.00  0.00     0.169 HD
HETATM   32  O   UNL     1     -40.952  55.743 -55.032  1.00  0.00    -0.271 OA
BRANCH  30  33
HETATM   33  C   UNL     1     -41.350  53.217 -53.560  1.00  0.00     0.042 A 
HETATM   34  C   UNL     1     -40.912  53.442 -52.240  1.00  0.00    -0.035 A 
HETATM   35  C   UNL     1     -41.447  54.525 -51.343  1.00  0.00     0.050 C 
HETATM   36  C   UNL     1     -39.948  52.576 -51.685  1.00  0.00     0.011 A 
HETATM   37  C   UNL     1     -39.468  51.481 -52.399  1.00  0.00     0.024 A 
HETATM   38  C   UNL     1     -39.952  51.234 -53.676  1.00  0.00     0.036 A 
HETATM   39  C   UNL     1     -40.895  52.084 -54.253  1.00  0.00     0.053 A 
HETATM   40 CL   UNL     1     -39.376  49.870 -54.556  1.00  0.00    -0.084 Cl
ENDBRANCH  30  33
ENDBRANCH  28  29
ENDBRANCH   1  28
TORSDOF 8
ENDMDL
MODEL 7
REMARK VINA RESULT:      -8.2      3.052      6.900
REMARK  8 active torsions:
REMARK  status: ('A' for Active; 'I' for Inactive)
REMARK    1  A    between atoms: C_3  and  N_4 
REMARK       I    between atoms: N_4  and  C_5 
REMARK    2  A    between atoms: C_5  and  C_6 
REMARK    3  A    between atoms: C_6  and  N_7 
REMARK    4  A    between atoms: N_10  and  C_11 
REMARK    5  A    between atoms: C_11  and  C_12 
REMARK    6  A    between atoms: C_12  and  C_13 
REMARK       I    between atoms: C_13  and  N_14 
REMARK    7  A    between atoms: N_14  and  C_15 
REMARK    8  A    between atoms: C_15  and  C_16 
ROOT
HETATM    1  N   UNL     1     -43.209  56.239 -57.440  1.00  0.00    -0.289 N 
HETATM    2  C   UNL     1     -43.376  57.437 -56.741  1.00  0.00     0.332 C 
HETATM    3  O   UNL     1     -42.733  57.634 -55.703  1.00  0.00    -0.246 OA
HETATM    4  N   UNL     1     -44.279  58.384 -57.254  1.00  0.00    -0.265 N 
HETATM    5  C   UNL     1     -44.989  58.215 -58.451  1.00  0.00     0.271 C 
HETATM    6  O   UNL     1     -45.638  59.108 -58.992  1.00  0.00    -0.266 OA
HETATM    7  C   UNL     1     -44.878  56.895 -59.007  1.00  0.00     0.100 A 
HETATM    8  C   UNL     1     -44.026  55.941 -58.524  1.00  0.00     0.062 A 
HETATM    9  S   UNL     1     -45.769  56.372 -60.355  1.00  0.00    -0.094 SA
HETATM   10  C   UNL     1     -45.035  54.825 -60.295  1.00  0.00     0.053 A 
HETATM   11  C   UNL     1     -44.117  54.730 -59.269  1.00  0.00     0.038 A 
ENDROOT
BRANCH   4  12
HETATM   12  C   UNL     1     -44.306  59.663 -56.520  1.00  0.00     0.146 C 
BRANCH  12  13
HETATM   13  C   UNL     1     -45.580  60.064 -55.782  1.00  0.00     0.123 C 
BRANCH  13  14
HETATM   14  C   UNL     1     -45.372  60.118 -54.285  1.00  0.00     0.219 C 
HETATM   15  N   UNL     1     -44.696  59.018 -53.810  1.00  0.00    -0.357 N 
HETATM   16  H   UNL     1     -44.467  58.262 -54.443  1.00  0.00     0.162 HD
HETATM   17  O   UNL     1     -45.752  61.043 -53.580  1.00  0.00    -0.274 OA
BRANCH  15  18
HETATM   18  C   UNL     1     -44.335  58.864 -52.420  1.00  0.00     0.161 C 
BRANCH  18  19
HETATM   19  C   UNL     1     -42.848  59.043 -52.260  1.00  0.00    -0.038 A 
HETATM   20  C   UNL     1     -42.293  59.377 -51.014  1.00  0.00     0.048 A 
HETATM   21  C   UNL     1     -40.920  59.481 -50.925  1.00  0.00     0.105 A 
HETATM   22  C   UNL     1     -40.102  59.265 -52.008  1.00  0.00     0.105 A 
HETATM   23  O   UNL     1     -40.220  59.789 -49.799  1.00  0.00    -0.323 OA
HETATM   24  O   UNL     1     -38.785  59.409 -51.701  1.00  0.00    -0.323 OA
HETATM   25  C   UNL     1     -40.607  58.935 -53.244  1.00  0.00     0.040 A 
HETATM   26  C   UNL     1     -38.868  59.744 -50.300  1.00  0.00     0.352 A 
HETATM   27  C   UNL     1     -41.995  58.823 -53.368  1.00  0.00     0.012 A 
ENDBRANCH  18  19
ENDBRANCH  15  18
ENDBRANCH  13  14
ENDBRANCH  12  13
ENDBRANCH   4  12
BRANCH   1  28
HETATM   28  C   UNL     1     -42.128  55.356 -57.011  1.00  0.00     0.237 C 
BRANCH  28  29
HETATM   29  C   UNL     1     -42.327  54.820 -55.598  1.00  0.00     0.240 C 
HETATM   30  N   UNL     1     -41.265  55.115 -54.757  1.00  0.00    -0.325 N 
HETATM   31  H   UNL     1     -40.778  55.985 -54.977  1.00  0.00     0.169 HD
HETATM   32  O   UNL     1     -43.361  54.239 -55.278  1.00  0.00    -0.271 OA
BRANCH  30  33
HETATM   33  C   UNL     1     -41.049  54.565 -53.474  1.00  0.00     0.042 A 
HETATM   34  C   UNL     1     -40.558  53.266 -53.235  1.00  0.00    -0.035 A 
HETATM   35  C   UNL     1     -40.131  52.310 -54.316  1.00  0.00     0.050 C 
HETATM   36  C   UNL     1     -40.400  52.831 -51.904  1.00  0.00     0.011 A 
HETATM   37  C   UNL     1     -40.669  53.680 -50.833  1.00  0.00     0.024 A 
HETATM   38  C   UNL     1     -41.094  54.978 -51.081  1.00  0.00     0.036 A 
HETATM   39  C   UNL     1     -41.272  55.427 -52.389  1.00  0.00     0.053 A 
HETATM   40 CL   UNL     1     -41.410  56.038 -49.761  1.00  0.00    -0.084 Cl
ENDBRANCH  30  33
ENDBRANCH  28  29
ENDBRANCH   1  28
TORSDOF 8
ENDMDL
MODEL 8
REMARK VINA RESULT:      -8.2      3.125      7.612
REMARK  8 active torsions:
REMARK  status: ('A' for Active; 'I' for Inactive)
REMARK    1  A    between atoms: C_3  and  N_4 
REMARK       I    between atoms: N_4  and  C_5 
REMARK    2  A    between atoms: C_5  and  C_6 
REMARK    3  A    between atoms: C_6  and  N_7 
REMARK    4  A    between atoms: N_10  and  C_11 
REMARK    5  A    between atoms: C_11  and  C_12 
REMARK    6  A    between atoms: C_12  and  C_13 
REMARK       I    between atoms: C_13  and  N_14 
REMARK    7  A    between atoms: N_14  and  C_15 
REMARK    8  A    between atoms: C_15  and  C_16 
ROOT
HETATM    1  N   UNL     1     -43.442  60.110 -54.169  1.00  0.00    -0.289 N 
HETATM    2  C   UNL     1     -42.250  59.621 -53.632  1.00  0.00     0.332 C 
HETATM    3  O   UNL     1     -41.426  59.070 -54.372  1.00  0.00    -0.246 OA
HETATM    4  N   UNL     1     -42.030  59.779 -52.252  1.00  0.00    -0.265 N 
HETATM    5  C   UNL     1     -42.918  60.439 -51.392  1.00  0.00     0.271 C 
HETATM    6  O   UNL     1     -42.651  60.736 -50.230  1.00  0.00    -0.266 OA
HETATM    7  C   UNL     1     -44.180  60.758 -52.000  1.00  0.00     0.100 A 
HETATM    8  C   UNL     1     -44.439  60.600 -53.333  1.00  0.00     0.062 A 
HETATM    9  S   UNL     1     -45.494  61.404 -51.139  1.00  0.00    -0.094 SA
HETATM   10  C   UNL     1     -46.454  61.457 -52.557  1.00  0.00     0.053 A 
HETATM   11  C   UNL     1     -45.766  61.002 -53.662  1.00  0.00     0.038 A 
ENDROOT
BRANCH   4  12
HETATM   12  C   UNL     1     -40.699  59.341 -51.791  1.00  0.00     0.146 C 
BRANCH  12  13
HETATM   13  C   UNL     1     -40.587  58.060 -50.969  1.00  0.00     0.123 C 
BRANCH  13  14
HETATM   14  C   UNL     1     -41.563  57.003 -51.435  1.00  0.00     0.219 C 
HETATM   15  N   UNL     1     -41.186  56.430 -52.627  1.00  0.00    -0.357 N 
HETATM   16  H   UNL     1     -40.373  56.786 -53.116  1.00  0.00     0.162 HD
HETATM   17  O   UNL     1     -42.569  56.687 -50.813  1.00  0.00    -0.274 OA
BRANCH  15  18
HETATM   18  C   UNL     1     -41.931  55.361 -53.250  1.00  0.00     0.161 C 
BRANCH  18  19
HETATM   19  C   UNL     1     -41.234  54.048 -53.005  1.00  0.00    -0.038 A 
HETATM   20  C   UNL     1     -41.173  53.068 -54.008  1.00  0.00     0.048 A 
HETATM   21  C   UNL     1     -40.480  51.906 -53.736  1.00  0.00     0.105 A 
HETATM   22  C   UNL     1     -39.859  51.695 -52.528  1.00  0.00     0.105 A 
HETATM   23  O   UNL     1     -40.318  50.861 -54.592  1.00  0.00    -0.323 OA
HETATM   24  O   UNL     1     -39.227  50.493 -52.471  1.00  0.00    -0.323 OA
HETATM   25  C   UNL     1     -39.896  52.632 -51.521  1.00  0.00     0.040 A 
HETATM   26  C   UNL     1     -39.525  49.968 -53.782  1.00  0.00     0.352 A 
HETATM   27  C   UNL     1     -40.590  53.820 -51.765  1.00  0.00     0.012 A 
ENDBRANCH  18  19
ENDBRANCH  15  18
ENDBRANCH  13  14
ENDBRANCH  12  13
ENDBRANCH   4  12
BRANCH   1  28
HETATM   28  C   UNL     1     -43.569  60.120 -55.624  1.00  0.00     0.237 C 
BRANCH  28  29
HETATM   29  C   UNL     1     -44.136  58.818 -56.179  1.00  0.00     0.240 C 
HETATM   30  N   UNL     1     -43.680  58.535 -57.456  1.00  0.00    -0.325 N 
HETATM   31  H   UNL     1     -42.742  58.886 -57.660  1.00  0.00     0.169 HD
HETATM   32  O   UNL     1     -44.875  58.107 -55.501  1.00  0.00    -0.271 OA
BRANCH  30  33
HETATM   33  C   UNL     1     -44.193  57.539 -58.315  1.00  0.00     0.042 A 
HETATM   34  C   UNL     1     -43.720  56.212 -58.371  1.00  0.00    -0.035 A 
HETATM   35  C   UNL     1     -42.648  55.657 -57.472  1.00  0.00     0.050 C 
HETATM   36  C   UNL     1     -44.309  55.316 -59.286  1.00  0.00     0.011 A 
HETATM   37  C   UNL     1     -45.378  55.706 -60.088  1.00  0.00     0.024 A 
HETATM   38  C   UNL     1     -45.876  56.998 -59.981  1.00  0.00     0.036 A 
HETATM   39  C   UNL     1     -45.301  57.908 -59.094  1.00  0.00     0.053 A 
HETATM   40 CL   UNL     1     -47.211  57.480 -60.957  1.00  0.00    -0.084 Cl
ENDBRANCH  30  33
ENDBRANCH  28  29
ENDBRANCH   1  28
TORSDOF 8
ENDMDL
MODEL 9
REMARK VINA RESULT:      -8.1      2.207      4.356
REMARK  8 active torsions:
REMARK  status: ('A' for Active; 'I' for Inactive)
REMARK    1  A    between atoms: C_3  and  N_4 
REMARK       I    between atoms: N_4  and  C_5 
REMARK    2  A    between atoms: C_5  and  C_6 
REMARK    3  A    between atoms: C_6  and  N_7 
REMARK    4  A    between atoms: N_10  and  C_11 
REMARK    5  A    between atoms: C_11  and  C_12 
REMARK    6  A    between atoms: C_12  and  C_13 
REMARK       I    between atoms: C_13  and  N_14 
REMARK    7  A    between atoms: N_14  and  C_15 
REMARK    8  A    between atoms: C_15  and  C_16 
ROOT
HETATM    1  N   UNL     1     -42.292  56.932 -52.663  1.00  0.00    -0.289 N 
HETATM    2  C   UNL     1     -41.846  56.767 -53.976  1.00  0.00     0.332 C 
HETATM    3  O   UNL     1     -40.787  56.165 -54.192  1.00  0.00    -0.246 OA
HETATM    4  N   UNL     1     -42.630  57.300 -55.015  1.00  0.00    -0.265 N 
HETATM    5  C   UNL     1     -43.857  57.947 -54.813  1.00  0.00     0.271 C 
HETATM    6  O   UNL     1     -44.626  58.252 -55.721  1.00  0.00    -0.266 OA
HETATM    7  C   UNL     1     -44.149  58.211 -53.431  1.00  0.00     0.100 A 
HETATM    8  C   UNL     1     -43.399  57.728 -52.394  1.00  0.00     0.062 A 
HETATM    9  S   UNL     1     -45.482  59.129 -52.918  1.00  0.00    -0.094 SA
HETATM   10  C   UNL     1     -45.054  58.913 -51.273  1.00  0.00     0.053 A 
HETATM   11  C   UNL     1     -43.921  58.139 -51.133  1.00  0.00     0.038 A 
ENDROOT
BRANCH   4  12
HETATM   12  C   UNL     1     -42.146  56.980 -56.371  1.00  0.00     0.146 C 
BRANCH  12  13
HETATM   13  C   UNL     1     -42.861  55.896 -57.173  1.00  0.00     0.123 C 
BRANCH  13  14
HETATM   14  C   UNL     1     -43.251  56.378 -58.552  1.00  0.00     0.219 C 
HETATM   15  N   UNL     1     -42.918  57.695 -58.760  1.00  0.00    -0.357 N 
HETATM   16  H   UNL     1     -42.529  58.238 -57.999  1.00  0.00     0.162 HD
HETATM   17  O   UNL     1     -43.792  55.668 -59.390  1.00  0.00    -0.274 OA
BRANCH  15  18
HETATM   18  C   UNL     1     -43.145  58.368 -60.018  1.00  0.00     0.161 C 
BRANCH  18  19
HETATM   19  C   UNL     1     -42.359  59.653 -60.054  1.00  0.00    -0.038 A 
HETATM   20  C   UNL     1     -42.043  60.269 -61.276  1.00  0.00     0.048 A 
HETATM   21  C   UNL     1     -41.360  61.467 -61.238  1.00  0.00     0.105 A 
HETATM   22  C   UNL     1     -40.994  62.060 -60.053  1.00  0.00     0.105 A 
HETATM   23  O   UNL     1     -40.981  62.198 -62.322  1.00  0.00    -0.323 OA
HETATM   24  O   UNL     1     -40.340  63.237 -60.241  1.00  0.00    -0.323 OA
HETATM   25  C   UNL     1     -41.286  61.488 -58.836  1.00  0.00     0.040 A 
HETATM   26  C   UNL     1     -40.333  63.317 -61.681  1.00  0.00     0.352 A 
HETATM   27  C   UNL     1     -41.977  60.272 -58.840  1.00  0.00     0.012 A 
ENDBRANCH  18  19
ENDBRANCH  15  18
ENDBRANCH  13  14
ENDBRANCH  12  13
ENDBRANCH   4  12
BRANCH   1  28
HETATM   28  C   UNL     1     -41.580  56.207 -51.616  1.00  0.00     0.237 C 
BRANCH  28  29
HETATM   29  C   UNL     1     -41.658  54.694 -51.784  1.00  0.00     0.240 C 
HETATM   30  N   UNL     1     -40.429  54.121 -52.069  1.00  0.00    -0.325 N 
HETATM   31  H   UNL     1     -39.627  54.613 -51.669  1.00  0.00     0.169 HD
HETATM   32  O   UNL     1     -42.715  54.090 -51.621  1.00  0.00    -0.271 OA
BRANCH  30  33
HETATM   33  C   UNL     1     -40.215  52.793 -52.501  1.00  0.00     0.042 A 
HETATM   34  C   UNL     1     -40.259  52.376 -53.846  1.00  0.00    -0.035 A 
HETATM   35  C   UNL     1     -40.470  53.301 -55.014  1.00  0.00     0.050 C 
HETATM   36  C   UNL     1     -40.041  51.015 -54.145  1.00  0.00     0.011 A 
HETATM   37  C   UNL     1     -39.734  50.098 -53.143  1.00  0.00     0.024 A 
HETATM   38  C   UNL     1     -39.634  50.533 -51.828  1.00  0.00     0.036 A 
HETATM   39  C   UNL     1     -39.858  51.871 -51.505  1.00  0.00     0.053 A 
HETATM   40 CL   UNL     1     -39.235  49.407 -50.587  1.00  0.00    -0.084 Cl
ENDBRANCH  30  33
ENDBRANCH  28  29
ENDBRANCH   1  28
TORSDOF 8
ENDMDL
MODEL 10
REMARK VINA RESULT:      -7.9      3.366      6.818
REMARK  8 active torsions:
REMARK  status: ('A' for Active; 'I' for Inactive)
REMARK    1  A    between atoms: C_3  and  N_4 
REMARK       I    between atoms: N_4  and  C_5 
REMARK    2  A    between atoms: C_5  and  C_6 
REMARK    3  A    between atoms: C_6  and  N_7 
REMARK    4  A    between atoms: N_10  and  C_11 
REMARK    5  A    between atoms: C_11  and  C_12 
REMARK    6  A    between atoms: C_12  and  C_13 
REMARK       I    between atoms: C_13  and  N_14 
REMARK    7  A    between atoms: N_14  and  C_15 
REMARK    8  A    between atoms: C_15  and  C_16 
ROOT
HETATM    1  N   UNL     1     -42.408  54.384 -53.580  1.00  0.00    -0.289 N 
HETATM    2  C   UNL     1     -42.895  55.524 -52.937  1.00  0.00     0.332 C 
HETATM    3  O   UNL     1     -43.651  56.293 -53.542  1.00  0.00    -0.246 OA
HETATM    4  N   UNL     1     -42.500  55.754 -51.607  1.00  0.00    -0.265 N 
HETATM    5  C   UNL     1     -41.683  54.881 -50.874  1.00  0.00     0.271 C 
HETATM    6  O   UNL     1     -41.484  54.985 -49.666  1.00  0.00    -0.266 OA
HETATM    7  C   UNL     1     -41.105  53.831 -51.665  1.00  0.00     0.100 A 
HETATM    8  C   UNL     1     -41.447  53.589 -52.967  1.00  0.00     0.062 A 
HETATM    9  S   UNL     1     -39.947  52.741 -51.068  1.00  0.00    -0.094 SA
HETATM   10  C   UNL     1     -39.866  51.931 -52.575  1.00  0.00     0.053 A 
HETATM   11  C   UNL     1     -40.724  52.484 -53.504  1.00  0.00     0.038 A 
ENDROOT
BRANCH   4  12
HETATM   12  C   UNL     1     -43.151  56.913 -50.968  1.00  0.00     0.146 C 
BRANCH  12  13
HETATM   13  C   UNL     1     -44.668  56.910 -50.802  1.00  0.00     0.123 C 
BRANCH  13  14
HETATM   14  C   UNL     1     -45.271  58.264 -51.099  1.00  0.00     0.219 C 
HETATM   15  N   UNL     1     -44.599  58.931 -52.095  1.00  0.00    -0.357 N 
HETATM   16  H   UNL     1     -43.755  58.527 -52.484  1.00  0.00     0.162 HD
HETATM   17  O   UNL     1     -46.255  58.709 -50.522  1.00  0.00    -0.274 OA
BRANCH  15  18
HETATM   18  C   UNL     1     -45.015  60.222 -52.590  1.00  0.00     0.161 C 
BRANCH  18  19
HETATM   19  C   UNL     1     -45.322  60.127 -54.062  1.00  0.00    -0.038 A 
HETATM   20  C   UNL     1     -45.664  61.270 -54.801  1.00  0.00     0.048 A 
HETATM   21  C   UNL     1     -45.888  61.122 -56.154  1.00  0.00     0.105 A 
HETATM   22  C   UNL     1     -45.782  59.903 -56.780  1.00  0.00     0.105 A 
HETATM   23  O   UNL     1     -46.222  62.120 -57.017  1.00  0.00    -0.323 OA
HETATM   24  O   UNL     1     -46.035  59.980 -58.114  1.00  0.00    -0.323 OA
HETATM   25  C   UNL     1     -45.449  58.760 -56.090  1.00  0.00     0.040 A 
HETATM   26  C   UNL     1     -46.315  61.388 -58.257  1.00  0.00     0.352 A 
HETATM   27  C   UNL     1     -45.216  58.876 -54.717  1.00  0.00     0.012 A 
ENDBRANCH  18  19
ENDBRANCH  15  18
ENDBRANCH  13  14
ENDBRANCH  12  13
ENDBRANCH   4  12
BRANCH   1  28
HETATM   28  C   UNL     1     -42.980  54.053 -54.882  1.00  0.00     0.237 C 
BRANCH  28  29
HETATM   29  C   UNL     1     -42.409  54.899 -56.014  1.00  0.00     0.240 C 
HETATM   30  N   UNL     1     -43.384  55.598 -56.706  1.00  0.00    -0.325 N 
HETATM   31  H   UNL     1     -44.198  55.862 -56.147  1.00  0.00     0.169 HD
HETATM   32  O   UNL     1     -41.198  54.960 -56.212  1.00  0.00    -0.271 OA
BRANCH  30  33
HETATM   33  C   UNL     1     -43.202  56.277 -57.932  1.00  0.00     0.042 A 
HETATM   34  C   UNL     1     -43.582  55.767 -59.190  1.00  0.00    -0.035 A 
HETATM   35  C   UNL     1     -44.296  54.458 -59.393  1.00  0.00     0.050 C 
HETATM   36  C   UNL     1     -43.331  56.539 -60.342  1.00  0.00     0.011 A 
HETATM   37  C   UNL     1     -42.769  57.810 -60.249  1.00  0.00     0.024 A 
HETATM   38  C   UNL     1     -42.456  58.327 -58.999  1.00  0.00     0.036 A 
HETATM   39  C   UNL     1     -42.680  57.577 -57.845  1.00  0.00     0.053 A 
HETATM   40 CL   UNL     1     -41.778  59.905 -58.876  1.00  0.00    -0.084 Cl
ENDBRANCH  30  33
ENDBRANCH  28  29
ENDBRANCH   1  28
TORSDOF 8
ENDMDL
