MODEL 1
REMARK VINA RESULT:      -7.7      0.000      0.000
REMARK  4 active torsions:
REMARK  status: ('A' for Active; 'I' for Inactive)
REMARK    1  A    between atoms: C_3  and  N_4 
REMARK       I    between atoms: N_4  and  C_5 
REMARK    2  A    between atoms: C_5  and  C_6 
REMARK    3  A    between atoms: C_7  and  C_8 
REMARK    4  A    between atoms: C_16  and  C_17 
ROOT
HETATM    1  C   UNL     1     -40.256  53.793 -49.995  1.00  0.00     0.003 A 
HETATM    2  C   UNL     1     -40.698  54.959 -50.621  1.00  0.00     0.029 A 
HETATM    3  C   UNL     1     -40.947  54.969 -51.993  1.00  0.00     0.035 A 
HETATM    4  C   UNL     1     -40.750  53.792 -52.733  1.00  0.00     0.042 A 
HETATM    5  C   UNL     1     -40.268  52.620 -52.123  1.00  0.00    -0.021 A 
HETATM    6  C   UNL     1     -40.038  52.633 -50.741  1.00  0.00     0.012 A 
ENDROOT
BRANCH   3   7
HETATM    7  N   UNL     1     -41.409  56.107 -52.684  1.00  0.00    -0.327 N 
HETATM    8  C   UNL     1     -42.701  56.599 -52.689  1.00  0.00     0.227 C 
HETATM    9  O   UNL     1     -43.638  56.196 -52.015  1.00  0.00    -0.273 OA
HETATM   10  H   UNL     1     -40.705  56.672 -53.139  1.00  0.00     0.169 HD
BRANCH   8  11
HETATM   11  C   UNL     1     -42.853  57.807 -53.552  1.00  0.00     0.089 A 
HETATM   12  C   UNL     1     -42.181  59.132 -53.224  1.00  0.00     0.057 A 
HETATM   13  C   UNL     1     -41.726  58.302 -54.406  1.00  0.00     0.027 A 
BRANCH  12  14
HETATM   14  C   UNL     1     -41.187  59.282 -52.086  1.00  0.00     0.057 A 
HETATM   15  O   UNL     1     -39.851  59.040 -52.175  1.00  0.00    -0.327 OA
HETATM   16  C   UNL     1     -39.305  59.333 -50.970  1.00  0.00     0.142 A 
HETATM   17  C   UNL     1     -40.275  59.765 -50.097  1.00  0.00     0.027 A 
HETATM   18  C   UNL     1     -41.494  59.731 -50.818  1.00  0.00     0.035 A 
ENDBRANCH  12  14
ENDBRANCH   8  11
ENDBRANCH   3   7
BRANCH   5  19
HETATM   19  C   UNL     1     -39.996  51.434 -52.925  1.00  0.00     0.010 A 
HETATM   20  C   UNL     1     -39.563  50.137 -52.550  1.00  0.00     0.152 A 
HETATM   21  N   UNL     1     -39.465  49.300 -53.587  1.00  0.00    -0.187 NA
HETATM   22  N   UNL     1     -39.837  50.054 -54.633  1.00  0.00    -0.289 N 
HETATM   23  H   UNL     1     -39.852  49.626 -55.554  1.00  0.00     0.188 HD
HETATM   24  C   UNL     1     -40.166  51.333 -54.291  1.00  0.00     0.123 A 
ENDBRANCH   5  19
TORSDOF 4
ENDMDL
MODEL 2
REMARK VINA RESULT:      -7.5      1.734      3.483
REMARK  4 active torsions:
REMARK  status: ('A' for Active; 'I' for Inactive)
REMARK    1  A    between atoms: C_3  and  N_4 
REMARK       I    between atoms: N_4  and  C_5 
REMARK    2  A    between atoms: C_5  and  C_6 
REMARK    3  A    between atoms: C_7  and  C_8 
REMARK    4  A    between atoms: C_16  and  C_17 
ROOT
HETATM    1  C   UNL     1     -39.879  54.135 -49.895  1.00  0.00     0.003 A 
HETATM    2  C   UNL     1     -40.735  55.139 -50.349  1.00  0.00     0.029 A 
HETATM    3  C   UNL     1     -41.398  54.997 -51.568  1.00  0.00     0.035 A 
HETATM    4  C   UNL     1     -41.194  53.834 -52.327  1.00  0.00     0.042 A 
HETATM    5  C   UNL     1     -40.304  52.832 -51.902  1.00  0.00    -0.021 A 
HETATM    6  C   UNL     1     -39.662  52.993 -50.667  1.00  0.00     0.012 A 
ENDROOT
BRANCH   3   7
HETATM    7  N   UNL     1     -42.287  55.965 -52.079  1.00  0.00    -0.327 N 
HETATM    8  C   UNL     1     -41.960  57.237 -52.510  1.00  0.00     0.227 C 
HETATM    9  O   UNL     1     -40.835  57.703 -52.622  1.00  0.00    -0.273 OA
HETATM   10  H   UNL     1     -43.239  55.661 -52.235  1.00  0.00     0.169 HD
BRANCH   8  11
HETATM   11  C   UNL     1     -43.151  58.014 -52.964  1.00  0.00     0.089 A 
HETATM   12  C   UNL     1     -43.826  57.762 -54.303  1.00  0.00     0.057 A 
HETATM   13  C   UNL     1     -44.515  57.397 -53.004  1.00  0.00     0.027 A 
BRANCH  12  14
HETATM   14  C   UNL     1     -43.439  56.604 -55.206  1.00  0.00     0.057 A 
HETATM   15  O   UNL     1     -43.519  55.287 -54.870  1.00  0.00    -0.327 OA
HETATM   16  C   UNL     1     -43.132  54.569 -55.953  1.00  0.00     0.142 A 
HETATM   17  C   UNL     1     -42.800  55.407 -56.990  1.00  0.00     0.027 A 
HETATM   18  C   UNL     1     -42.997  56.725 -56.508  1.00  0.00     0.035 A 
ENDBRANCH  12  14
ENDBRANCH   8  11
ENDBRANCH   3   7
BRANCH   5  19
HETATM   19  C   UNL     1     -40.048  51.671 -52.743  1.00  0.00     0.010 A 
HETATM   20  C   UNL     1     -39.620  50.360 -52.415  1.00  0.00     0.152 A 
HETATM   21  N   UNL     1     -39.538  49.556 -53.479  1.00  0.00    -0.187 NA
HETATM   22  N   UNL     1     -39.916  50.345 -54.497  1.00  0.00    -0.289 N 
HETATM   23  H   UNL     1     -39.943  49.947 -55.430  1.00  0.00     0.188 HD
HETATM   24  C   UNL     1     -40.234  51.615 -54.110  1.00  0.00     0.123 A 
ENDBRANCH   5  19
TORSDOF 4
ENDMDL
MODEL 3
REMARK VINA RESULT:      -7.5      2.778      4.366
REMARK  4 active torsions:
REMARK  status: ('A' for Active; 'I' for Inactive)
REMARK    1  A    between atoms: C_3  and  N_4 
REMARK       I    between atoms: N_4  and  C_5 
REMARK    2  A    between atoms: C_5  and  C_6 
REMARK    3  A    between atoms: C_7  and  C_8 
REMARK    4  A    between atoms: C_16  and  C_17 
ROOT
HETATM    1  C   UNL     1     -39.830  51.983 -53.542  1.00  0.00     0.003 A 
HETATM    2  C   UNL     1     -40.386  52.817 -54.511  1.00  0.00     0.029 A 
HETATM    3  C   UNL     1     -40.987  54.020 -54.142  1.00  0.00     0.035 A 
HETATM    4  C   UNL     1     -41.022  54.379 -52.785  1.00  0.00     0.042 A 
HETATM    5  C   UNL     1     -40.500  53.531 -51.793  1.00  0.00    -0.021 A 
HETATM    6  C   UNL     1     -39.890  52.335 -52.192  1.00  0.00     0.012 A 
ENDROOT
BRANCH   3   7
HETATM    7  N   UNL     1     -41.555  54.916 -55.071  1.00  0.00    -0.327 N 
HETATM    8  C   UNL     1     -42.718  54.724 -55.793  1.00  0.00     0.227 C 
HETATM    9  O   UNL     1     -43.507  53.798 -55.674  1.00  0.00    -0.273 OA
HETATM   10  H   UNL     1     -41.121  55.826 -55.139  1.00  0.00     0.169 HD
BRANCH   8  11
HETATM   11  C   UNL     1     -43.018  55.862 -56.712  1.00  0.00     0.089 A 
HETATM   12  C   UNL     1     -43.593  57.180 -56.216  1.00  0.00     0.057 A 
HETATM   13  C   UNL     1     -42.170  57.096 -56.727  1.00  0.00     0.027 A 
BRANCH  12  14
HETATM   14  C   UNL     1     -43.760  57.492 -54.740  1.00  0.00     0.057 A 
HETATM   15  O   UNL     1     -42.746  57.565 -53.834  1.00  0.00    -0.327 OA
HETATM   16  C   UNL     1     -43.293  57.911 -52.643  1.00  0.00     0.142 A 
HETATM   17  C   UNL     1     -44.653  58.065 -52.765  1.00  0.00     0.027 A 
HETATM   18  C   UNL     1     -44.958  57.792 -54.122  1.00  0.00     0.035 A 
ENDBRANCH  12  14
ENDBRANCH   8  11
ENDBRANCH   3   7
BRANCH   5  19
HETATM   19  C   UNL     1     -40.618  53.887 -50.385  1.00  0.00     0.010 A 
HETATM   20  C   UNL     1     -41.052  55.083 -49.760  1.00  0.00     0.152 A 
HETATM   21  N   UNL     1     -41.054  55.005 -48.426  1.00  0.00    -0.187 NA
HETATM   22  N   UNL     1     -40.623  53.756 -48.186  1.00  0.00    -0.289 N 
HETATM   23  H   UNL     1     -40.546  53.451 -47.221  1.00  0.00     0.188 HD
HETATM   24  C   UNL     1     -40.353  53.048 -49.321  1.00  0.00     0.123 A 
ENDBRANCH   5  19
TORSDOF 4
ENDMDL
MODEL 4
REMARK VINA RESULT:      -7.4      2.133      3.633
REMARK  4 active torsions:
REMARK  status: ('A' for Active; 'I' for Inactive)
REMARK    1  A    between atoms: C_3  and  N_4 
REMARK       I    between atoms: N_4  and  C_5 
REMARK    2  A    between atoms: C_5  and  C_6 
REMARK    3  A    between atoms: C_7  and  C_8 
REMARK    4  A    between atoms: C_16  and  C_17 
ROOT
HETATM    1  C   UNL     1     -40.366  54.012 -55.183  1.00  0.00     0.003 A 
HETATM    2  C   UNL     1     -41.142  54.929 -54.474  1.00  0.00     0.029 A 
HETATM    3  C   UNL     1     -41.479  54.683 -53.143  1.00  0.00     0.035 A 
HETATM    4  C   UNL     1     -41.026  53.504 -52.529  1.00  0.00     0.042 A 
HETATM    5  C   UNL     1     -40.277  52.552 -53.243  1.00  0.00    -0.021 A 
HETATM    6  C   UNL     1     -39.940  52.831 -54.574  1.00  0.00     0.012 A 
ENDROOT
BRANCH   3   7
HETATM    7  N   UNL     1     -42.246  55.573 -52.365  1.00  0.00    -0.327 N 
HETATM    8  C   UNL     1     -41.947  56.895 -52.093  1.00  0.00     0.227 C 
HETATM    9  O   UNL     1     -41.026  57.547 -52.563  1.00  0.00    -0.273 OA
HETATM   10  H   UNL     1     -43.150  55.239 -52.060  1.00  0.00     0.169 HD
BRANCH   8  11
HETATM   11  C   UNL     1     -42.961  57.544 -51.209  1.00  0.00     0.089 A 
HETATM   12  C   UNL     1     -44.157  58.303 -51.763  1.00  0.00     0.057 A 
HETATM   13  C   UNL     1     -44.338  56.976 -51.055  1.00  0.00     0.027 A 
BRANCH  12  14
HETATM   14  C   UNL     1     -44.494  58.326 -53.243  1.00  0.00     0.057 A 
HETATM   15  O   UNL     1     -44.936  57.259 -53.964  1.00  0.00    -0.327 OA
HETATM   16  C   UNL     1     -45.168  57.692 -55.227  1.00  0.00     0.142 A 
HETATM   17  C   UNL     1     -44.881  59.032 -55.335  1.00  0.00     0.027 A 
HETATM   18  C   UNL     1     -44.442  59.443 -54.052  1.00  0.00     0.035 A 
ENDBRANCH  12  14
ENDBRANCH   8  11
ENDBRANCH   3   7
BRANCH   5  19
HETATM   19  C   UNL     1     -39.885  51.300 -52.609  1.00  0.00     0.010 A 
HETATM   20  C   UNL     1     -39.632  50.983 -51.251  1.00  0.00     0.152 A 
HETATM   21  N   UNL     1     -39.331  49.695 -51.062  1.00  0.00    -0.187 NA
HETATM   22  N   UNL     1     -39.391  49.177 -52.298  1.00  0.00    -0.289 N 
HETATM   23  H   UNL     1     -39.204  48.186 -52.414  1.00  0.00     0.188 HD
HETATM   24  C   UNL     1     -39.721  50.092 -53.256  1.00  0.00     0.123 A 
ENDBRANCH   5  19
TORSDOF 4
ENDMDL
MODEL 5
REMARK VINA RESULT:      -7.4      4.746      7.296
REMARK  4 active torsions:
REMARK  status: ('A' for Active; 'I' for Inactive)
REMARK    1  A    between atoms: C_3  and  N_4 
REMARK       I    between atoms: N_4  and  C_5 
REMARK    2  A    between atoms: C_5  and  C_6 
REMARK    3  A    between atoms: C_7  and  C_8 
REMARK    4  A    between atoms: C_16  and  C_17 
ROOT
HETATM    1  C   UNL     1     -43.795  58.535 -56.920  1.00  0.00     0.003 A 
HETATM    2  C   UNL     1     -42.896  57.743 -56.205  1.00  0.00     0.029 A 
HETATM    3  C   UNL     1     -42.546  56.478 -56.676  1.00  0.00     0.035 A 
HETATM    4  C   UNL     1     -43.108  56.016 -57.877  1.00  0.00     0.042 A 
HETATM    5  C   UNL     1     -44.044  56.786 -58.588  1.00  0.00    -0.021 A 
HETATM    6  C   UNL     1     -44.368  58.059 -58.100  1.00  0.00     0.012 A 
ENDROOT
BRANCH   3   7
HETATM    7  N   UNL     1     -41.634  55.634 -56.012  1.00  0.00    -0.327 N 
HETATM    8  C   UNL     1     -41.935  54.463 -55.342  1.00  0.00     0.227 C 
HETATM    9  O   UNL     1     -43.022  53.905 -55.299  1.00  0.00    -0.273 OA
HETATM   10  H   UNL     1     -40.654  55.856 -56.123  1.00  0.00     0.169 HD
BRANCH   8  11
HETATM   11  C   UNL     1     -40.733  53.829 -54.724  1.00  0.00     0.089 A 
HETATM   12  C   UNL     1     -40.438  53.919 -53.235  1.00  0.00     0.057 A 
HETATM   13  C   UNL     1     -40.849  52.605 -53.868  1.00  0.00     0.027 A 
BRANCH  12  14
HETATM   14  C   UNL     1     -41.419  54.523 -52.246  1.00  0.00     0.057 A 
HETATM   15  O   UNL     1     -41.572  55.854 -52.007  1.00  0.00    -0.327 OA
HETATM   16  C   UNL     1     -42.571  55.990 -51.101  1.00  0.00     0.142 A 
HETATM   17  C   UNL     1     -43.070  54.759 -50.748  1.00  0.00     0.027 A 
HETATM   18  C   UNL     1     -42.324  53.808 -51.487  1.00  0.00     0.035 A 
ENDBRANCH  12  14
ENDBRANCH   8  11
ENDBRANCH   3   7
BRANCH   5  19
HETATM   19  C   UNL     1     -44.673  56.253 -59.790  1.00  0.00     0.010 A 
HETATM   20  C   UNL     1     -44.325  55.153 -60.613  1.00  0.00     0.152 A 
HETATM   21  N   UNL     1     -45.187  54.958 -61.616  1.00  0.00    -0.187 NA
HETATM   22  N   UNL     1     -46.096  55.930 -61.440  1.00  0.00    -0.289 N 
HETATM   23  H   UNL     1     -46.874  55.984 -62.089  1.00  0.00     0.188 HD
HETATM   24  C   UNL     1     -45.837  56.727 -60.362  1.00  0.00     0.123 A 
ENDBRANCH   5  19
TORSDOF 4
ENDMDL
MODEL 6
REMARK VINA RESULT:      -7.3      4.035      7.011
REMARK  4 active torsions:
REMARK  status: ('A' for Active; 'I' for Inactive)
REMARK    1  A    between atoms: C_3  and  N_4 
REMARK       I    between atoms: N_4  and  C_5 
REMARK    2  A    between atoms: C_5  and  C_6 
REMARK    3  A    between atoms: C_7  and  C_8 
REMARK    4  A    between atoms: C_16  and  C_17 
ROOT
HETATM    1  C   UNL     1     -43.857  57.138 -54.950  1.00  0.00     0.003 A 
HETATM    2  C   UNL     1     -43.131  56.045 -54.478  1.00  0.00     0.029 A 
HETATM    3  C   UNL     1     -42.586  55.124 -55.372  1.00  0.00     0.035 A 
HETATM    4  C   UNL     1     -42.776  55.314 -56.750  1.00  0.00     0.042 A 
HETATM    5  C   UNL     1     -43.538  56.389 -57.240  1.00  0.00    -0.021 A 
HETATM    6  C   UNL     1     -44.063  57.307 -56.320  1.00  0.00     0.012 A 
ENDROOT
BRANCH   3   7
HETATM    7  N   UNL     1     -41.830  54.006 -54.963  1.00  0.00    -0.327 N 
HETATM    8  C   UNL     1     -40.452  53.928 -54.892  1.00  0.00     0.227 C 
HETATM    9  O   UNL     1     -39.658  54.840 -55.069  1.00  0.00    -0.273 OA
HETATM   10  H   UNL     1     -42.351  53.223 -54.593  1.00  0.00     0.169 HD
BRANCH   8  11
HETATM   11  C   UNL     1     -39.976  52.585 -54.446  1.00  0.00     0.089 A 
HETATM   12  C   UNL     1     -39.931  52.181 -52.980  1.00  0.00     0.057 A 
HETATM   13  C   UNL     1     -40.929  51.551 -53.930  1.00  0.00     0.027 A 
BRANCH  12  14
HETATM   14  C   UNL     1     -40.509  53.051 -51.878  1.00  0.00     0.057 A 
HETATM   15  O   UNL     1     -41.802  53.473 -51.808  1.00  0.00    -0.327 OA
HETATM   16  C   UNL     1     -41.934  54.181 -50.661  1.00  0.00     0.142 A 
HETATM   17  C   UNL     1     -40.740  54.223 -49.982  1.00  0.00     0.027 A 
HETATM   18  C   UNL     1     -39.816  53.493 -50.770  1.00  0.00     0.035 A 
ENDBRANCH  12  14
ENDBRANCH   8  11
ENDBRANCH   3   7
BRANCH   5  19
HETATM   19  C   UNL     1     -43.789  56.522 -58.669  1.00  0.00     0.010 A 
HETATM   20  C   UNL     1     -43.558  55.625 -59.742  1.00  0.00     0.152 A 
HETATM   21  N   UNL     1     -43.965  56.105 -60.921  1.00  0.00    -0.187 NA
HETATM   22  N   UNL     1     -44.463  57.312 -60.611  1.00  0.00    -0.289 N 
HETATM   23  H   UNL     1     -44.850  57.880 -61.358  1.00  0.00     0.188 HD
HETATM   24  C   UNL     1     -44.385  57.607 -59.280  1.00  0.00     0.123 A 
ENDBRANCH   5  19
TORSDOF 4
ENDMDL
MODEL 7
REMARK VINA RESULT:      -7.1      3.893      6.216
REMARK  4 active torsions:
REMARK  status: ('A' for Active; 'I' for Inactive)
REMARK    1  A    between atoms: C_3  and  N_4 
REMARK       I    between atoms: N_4  and  C_5 
REMARK    2  A    between atoms: C_5  and  C_6 
REMARK    3  A    between atoms: C_7  and  C_8 
REMARK    4  A    between atoms: C_16  and  C_17 
ROOT
HETATM    1  C   UNL     1     -40.818  52.965 -54.397  1.00  0.00     0.003 A 
HETATM    2  C   UNL     1     -40.998  54.015 -55.298  1.00  0.00     0.029 A 
HETATM    3  C   UNL     1     -41.216  55.311 -54.832  1.00  0.00     0.035 A 
HETATM    4  C   UNL     1     -41.251  55.544 -53.448  1.00  0.00     0.042 A 
HETATM    5  C   UNL     1     -41.110  54.490 -52.528  1.00  0.00    -0.021 A 
HETATM    6  C   UNL     1     -40.878  53.200 -53.022  1.00  0.00     0.012 A 
ENDROOT
BRANCH   3   7
HETATM    7  N   UNL     1     -41.391  56.419 -55.687  1.00  0.00    -0.327 N 
HETATM    8  C   UNL     1     -42.595  56.960 -56.095  1.00  0.00     0.227 C 
HETATM    9  O   UNL     1     -43.709  56.641 -55.706  1.00  0.00    -0.273 OA
HETATM   10  H   UNL     1     -40.553  56.923 -55.944  1.00  0.00     0.169 HD
BRANCH   8  11
HETATM   11  C   UNL     1     -42.419  58.114 -57.027  1.00  0.00     0.089 A 
HETATM   12  C   UNL     1     -42.847  58.056 -58.485  1.00  0.00     0.057 A 
HETATM   13  C   UNL     1     -43.588  58.927 -57.491  1.00  0.00     0.027 A 
BRANCH  12  14
HETATM   14  C   UNL     1     -43.623  56.884 -59.061  1.00  0.00     0.057 A 
HETATM   15  O   UNL     1     -44.980  56.801 -59.132  1.00  0.00    -0.327 OA
HETATM   16  C   UNL     1     -45.281  55.633 -59.749  1.00  0.00     0.142 A 
HETATM   17  C   UNL     1     -44.133  54.955 -60.081  1.00  0.00     0.027 A 
HETATM   18  C   UNL     1     -43.058  55.763 -59.634  1.00  0.00     0.035 A 
ENDBRANCH  12  14
ENDBRANCH   8  11
ENDBRANCH   3   7
BRANCH   5  19
HETATM   19  C   UNL     1     -41.228  54.743 -51.097  1.00  0.00     0.010 A 
HETATM   20  C   UNL     1     -41.118  53.871 -49.986  1.00  0.00     0.152 A 
HETATM   21  N   UNL     1     -41.253  54.499 -48.814  1.00  0.00    -0.187 NA
HETATM   22  N   UNL     1     -41.447  55.779 -49.166  1.00  0.00    -0.289 N 
HETATM   23  H   UNL     1     -41.569  56.467 -48.430  1.00  0.00     0.188 HD
HETATM   24  C   UNL     1     -41.438  55.978 -50.517  1.00  0.00     0.123 A 
ENDBRANCH   5  19
TORSDOF 4
ENDMDL
MODEL 8
REMARK VINA RESULT:      -7.0      2.367      3.314
REMARK  4 active torsions:
REMARK  status: ('A' for Active; 'I' for Inactive)
REMARK    1  A    between atoms: C_3  and  N_4 
REMARK       I    between atoms: N_4  and  C_5 
REMARK    2  A    between atoms: C_5  and  C_6 
REMARK    3  A    between atoms: C_7  and  C_8 
REMARK    4  A    between atoms: C_16  and  C_17 
ROOT
HETATM    1  C   UNL     1     -40.408  53.121 -54.562  1.00  0.00     0.003 A 
HETATM    2  C   UNL     1     -40.866  54.330 -55.086  1.00  0.00     0.029 A 
HETATM    3  C   UNL     1     -41.253  55.363 -54.233  1.00  0.00     0.035 A 
HETATM    4  C   UNL     1     -41.172  55.171 -52.845  1.00  0.00     0.042 A 
HETATM    5  C   UNL     1     -40.749  53.946 -52.302  1.00  0.00    -0.021 A 
HETATM    6  C   UNL     1     -40.353  52.928 -53.181  1.00  0.00     0.012 A 
ENDROOT
BRANCH   3   7
HETATM    7  N   UNL     1     -41.711  56.614 -54.696  1.00  0.00    -0.327 N 
HETATM    8  C   UNL     1     -43.029  57.003 -54.845  1.00  0.00     0.227 C 
HETATM    9  O   UNL     1     -44.020  56.373 -54.504  1.00  0.00    -0.273 OA
HETATM   10  H   UNL     1     -41.007  57.325 -54.837  1.00  0.00     0.169 HD
BRANCH   8  11
HETATM   11  C   UNL     1     -43.161  58.387 -55.388  1.00  0.00     0.089 A 
HETATM   12  C   UNL     1     -42.592  59.602 -54.670  1.00  0.00     0.057 A 
HETATM   13  C   UNL     1     -41.987  59.112 -55.970  1.00  0.00     0.027 A 
BRANCH  12  14
HETATM   14  C   UNL     1     -41.717  59.482 -53.435  1.00  0.00     0.057 A 
HETATM   15  O   UNL     1     -40.400  59.139 -53.437  1.00  0.00    -0.327 OA
HETATM   16  C   UNL     1     -39.967  59.189 -52.153  1.00  0.00     0.142 A 
HETATM   17  C   UNL     1     -40.990  59.563 -51.316  1.00  0.00     0.027 A 
HETATM   18  C   UNL     1     -42.125  59.751 -52.144  1.00  0.00     0.035 A 
ENDBRANCH  12  14
ENDBRANCH   8  11
ENDBRANCH   3   7
BRANCH   5  19
HETATM   19  C   UNL     1     -40.748  53.742 -50.859  1.00  0.00     0.010 A 
HETATM   20  C   UNL     1     -41.098  54.612 -49.796  1.00  0.00     0.152 A 
HETATM   21  N   UNL     1     -41.000  54.034 -48.595  1.00  0.00    -0.187 NA
HETATM   22  N   UNL     1     -40.589  52.789 -48.880  1.00  0.00    -0.289 N 
HETATM   23  H   UNL     1     -40.447  52.141 -48.112  1.00  0.00     0.188 HD
HETATM   24  C   UNL     1     -40.426  52.564 -50.217  1.00  0.00     0.123 A 
ENDBRANCH   5  19
TORSDOF 4
ENDMDL
MODEL 9
REMARK VINA RESULT:      -7.0      1.988      2.427
REMARK  4 active torsions:
REMARK  status: ('A' for Active; 'I' for Inactive)
REMARK    1  A    between atoms: C_3  and  N_4 
REMARK       I    between atoms: N_4  and  C_5 
REMARK    2  A    between atoms: C_5  and  C_6 
REMARK    3  A    between atoms: C_7  and  C_8 
REMARK    4  A    between atoms: C_16  and  C_17 
ROOT
HETATM    1  C   UNL     1     -40.465  54.120 -49.900  1.00  0.00     0.003 A 
HETATM    2  C   UNL     1     -40.884  55.059 -50.842  1.00  0.00     0.029 A 
HETATM    3  C   UNL     1     -41.015  54.698 -52.183  1.00  0.00     0.035 A 
HETATM    4  C   UNL     1     -40.723  53.381 -52.569  1.00  0.00     0.042 A 
HETATM    5  C   UNL     1     -40.262  52.434 -51.638  1.00  0.00    -0.021 A 
HETATM    6  C   UNL     1     -40.153  52.818 -50.294  1.00  0.00     0.012 A 
ENDROOT
BRANCH   3   7
HETATM    7  N   UNL     1     -41.448  55.593 -53.184  1.00  0.00    -0.327 N 
HETATM    8  C   UNL     1     -42.668  55.572 -53.834  1.00  0.00     0.227 C 
HETATM    9  O   UNL     1     -43.617  54.844 -53.582  1.00  0.00    -0.273 OA
HETATM   10  H   UNL     1     -40.846  56.383 -53.370  1.00  0.00     0.169 HD
BRANCH   8  11
HETATM   11  C   UNL     1     -42.789  56.648 -54.862  1.00  0.00     0.089 A 
HETATM   12  C   UNL     1     -43.456  57.983 -54.568  1.00  0.00     0.057 A 
HETATM   13  C   UNL     1     -41.960  57.893 -54.789  1.00  0.00     0.027 A 
BRANCH  12  14
HETATM   14  C   UNL     1     -43.907  58.379 -53.174  1.00  0.00     0.057 A 
HETATM   15  O   UNL     1     -45.024  57.915 -52.549  1.00  0.00    -0.327 OA
HETATM   16  C   UNL     1     -45.052  58.464 -51.310  1.00  0.00     0.142 A 
HETATM   17  C   UNL     1     -43.963  59.281 -51.123  1.00  0.00     0.027 A 
HETATM   18  C   UNL     1     -43.221  59.229 -52.329  1.00  0.00     0.035 A 
ENDBRANCH  12  14
ENDBRANCH   8  11
ENDBRANCH   3   7
BRANCH   5  19
HETATM   19  C   UNL     1     -39.889  51.094 -52.074  1.00  0.00     0.010 A 
HETATM   20  C   UNL     1     -39.718  50.552 -53.372  1.00  0.00     0.152 A 
HETATM   21  N   UNL     1     -39.327  49.274 -53.358  1.00  0.00    -0.187 NA
HETATM   22  N   UNL     1     -39.243  48.989 -52.049  1.00  0.00    -0.289 N 
HETATM   23  H   UNL     1     -38.950  48.056 -51.778  1.00  0.00     0.188 HD
HETATM   24  C   UNL     1     -39.565  50.042 -51.242  1.00  0.00     0.123 A 
ENDBRANCH   5  19
TORSDOF 4
ENDMDL
MODEL 10
REMARK VINA RESULT:      -7.0      3.312      6.349
REMARK  4 active torsions:
REMARK  status: ('A' for Active; 'I' for Inactive)
REMARK    1  A    between atoms: C_3  and  N_4 
REMARK       I    between atoms: N_4  and  C_5 
REMARK    2  A    between atoms: C_5  and  C_6 
REMARK    3  A    between atoms: C_7  and  C_8 
REMARK    4  A    between atoms: C_16  and  C_17 
ROOT
HETATM    1  C   UNL     1     -44.782  58.185 -52.278  1.00  0.00     0.003 A 
HETATM    2  C   UNL     1     -43.969  57.481 -51.390  1.00  0.00     0.029 A 
HETATM    3  C   UNL     1     -43.019  56.581 -51.870  1.00  0.00     0.035 A 
HETATM    4  C   UNL     1     -42.891  56.396 -53.256  1.00  0.00     0.042 A 
HETATM    5  C   UNL     1     -43.730  57.068 -54.162  1.00  0.00    -0.021 A 
HETATM    6  C   UNL     1     -44.667  57.978 -53.653  1.00  0.00     0.012 A 
ENDROOT
BRANCH   3   7
HETATM    7  N   UNL     1     -42.155  55.849 -51.030  1.00  0.00    -0.327 N 
HETATM    8  C   UNL     1     -42.471  54.703 -50.325  1.00  0.00     0.227 C 
HETATM    9  O   UNL     1     -43.515  54.069 -50.390  1.00  0.00    -0.273 OA
HETATM   10  H   UNL     1     -41.186  56.136 -51.022  1.00  0.00     0.169 HD
BRANCH   8  11
HETATM   11  C   UNL     1     -41.329  54.199 -49.506  1.00  0.00     0.089 A 
HETATM   12  C   UNL     1     -40.261  53.278 -50.078  1.00  0.00     0.057 A 
HETATM   13  C   UNL     1     -39.937  54.712 -49.712  1.00  0.00     0.027 A 
BRANCH  12  14
HETATM   14  C   UNL     1     -40.191  52.929 -51.554  1.00  0.00     0.057 A 
HETATM   15  O   UNL     1     -40.457  53.787 -52.576  1.00  0.00    -0.327 OA
HETATM   16  C   UNL     1     -40.238  53.118 -53.734  1.00  0.00     0.142 A 
HETATM   17  C   UNL     1     -39.830  51.832 -53.474  1.00  0.00     0.027 A 
HETATM   18  C   UNL     1     -39.800  51.707 -52.063  1.00  0.00     0.035 A 
ENDBRANCH  12  14
ENDBRANCH   8  11
ENDBRANCH   3   7
BRANCH   5  19
HETATM   19  C   UNL     1     -43.633  56.802 -55.591  1.00  0.00     0.010 A 
HETATM   20  C   UNL     1     -42.914  55.812 -56.307  1.00  0.00     0.152 A 
HETATM   21  N   UNL     1     -43.116  55.871 -57.626  1.00  0.00    -0.187 NA
HETATM   22  N   UNL     1     -43.969  56.898 -57.766  1.00  0.00    -0.289 N 
HETATM   23  H   UNL     1     -44.284  57.138 -58.700  1.00  0.00     0.188 HD
HETATM   24  C   UNL     1     -44.310  57.484 -56.581  1.00  0.00     0.123 A 
ENDBRANCH   5  19
TORSDOF 4
ENDMDL
