MODEL 1
REMARK VINA RESULT:      -7.5      0.000      0.000
REMARK  6 active torsions:
REMARK  status: ('A' for Active; 'I' for Inactive)
REMARK    1  A    between atoms: C_2  and  C_3 
REMARK    2  A    between atoms: C_3  and  N_4 
REMARK       I    between atoms: N_4  and  C_5 
REMARK    3  A    between atoms: C_5  and  C_6 
REMARK    4  A    between atoms: C_11  and  C_12 
REMARK    5  A    between atoms: C_15  and  O_16 
REMARK    6  A    between atoms: C_21  and  C_22 
ROOT
HETATM    1  C   UNL     1     -42.798  58.428 -56.499  1.00  0.00     0.170 A 
HETATM    2  N   UNL     1     -42.589  58.808 -55.213  1.00  0.00    -0.163 NA
HETATM    3  N   UNL     1     -42.183  57.681 -54.606  1.00  0.00    -0.238 N 
HETATM    4  C   UNL     1     -42.229  56.573 -55.410  1.00  0.00     0.145 A 
HETATM    5  N   UNL     1     -41.924  55.343 -54.924  1.00  0.00    -0.365 N 
HETATM    6  C   UNL     1     -41.864  55.124 -53.482  1.00  0.00     0.118 C 
HETATM    7  C   UNL     1     -41.177  56.323 -52.817  1.00  0.00     0.066 C 
HETATM    8  C   UNL     1     -41.897  57.634 -53.180  1.00  0.00     0.221 C 
HETATM    9  C   UNL     1     -42.600  57.028 -56.654  1.00  0.00     0.115 A 
HETATM   10 CL   UNL     1     -42.783  56.096 -58.060  1.00  0.00    -0.077 Cl
HETATM   11  H   UNL     1     -42.151  54.517 -55.480  1.00  0.00     0.162 HD
ENDROOT
BRANCH   6  12
HETATM   12  C   UNL     1     -41.120  53.840 -53.170  1.00  0.00    -0.035 A 
HETATM   13  C   UNL     1     -40.721  53.521 -51.863  1.00  0.00     0.012 A 
HETATM   14  C   UNL     1     -40.074  52.313 -51.592  1.00  0.00     0.037 A 
HETATM   15  C   UNL     1     -39.823  51.393 -52.611  1.00  0.00     0.068 A 
HETATM   16  C   UNL     1     -40.215  51.700 -53.914  1.00  0.00     0.037 A 
HETATM   17  C   UNL     1     -40.859  52.913 -54.190  1.00  0.00     0.012 A 
BRANCH  15  18
HETATM   18  O   UNL     1     -39.195  50.248 -52.207  1.00  0.00    -0.356 OA
HETATM   19  C   UNL     1     -39.530  49.753 -50.916  1.00  0.00     0.210 C 
ENDBRANCH  15  18
ENDBRANCH   6  12
BRANCH   8  20
HETATM   20  C   UNL     1     -41.066  58.815 -52.726  1.00  0.00     0.409 C 
HETATM   21  F   UNL     1     -39.938  58.965 -53.454  1.00  0.00    -0.169 F 
HETATM   22  F   UNL     1     -41.743  59.984 -52.747  1.00  0.00    -0.169 F 
HETATM   23  F   UNL     1     -40.678  58.630 -51.436  1.00  0.00    -0.169 F 
ENDBRANCH   8  20
BRANCH   1  24
HETATM   24  C   UNL     1     -43.185  59.416 -57.519  1.00  0.00     0.273 C 
HETATM   25  N   UNL     1     -42.122  59.831 -58.295  1.00  0.00    -0.356 N 
HETATM   26  H   UNL     1     -41.216  59.439 -58.050  1.00  0.00     0.162 HD
HETATM   27  O   UNL     1     -44.330  59.825 -57.676  1.00  0.00    -0.266 OA
BRANCH  25  28
HETATM   28  C   UNL     1     -42.251  60.783 -59.372  1.00  0.00     0.122 C 
BRANCH  28  29
HETATM   29  C   UNL     1     -42.112  60.118 -60.737  1.00  0.00     0.015 C 
HETATM   30  C   UNL     1     -41.863  58.625 -60.604  1.00  0.00     0.006 C 
ENDBRANCH  28  29
ENDBRANCH  25  28
ENDBRANCH   1  24
TORSDOF 6
ENDMDL
MODEL 2
REMARK VINA RESULT:      -7.4      3.576      4.546
REMARK  6 active torsions:
REMARK  status: ('A' for Active; 'I' for Inactive)
REMARK    1  A    between atoms: C_2  and  C_3 
REMARK    2  A    between atoms: C_3  and  N_4 
REMARK       I    between atoms: N_4  and  C_5 
REMARK    3  A    between atoms: C_5  and  C_6 
REMARK    4  A    between atoms: C_11  and  C_12 
REMARK    5  A    between atoms: C_15  and  O_16 
REMARK    6  A    between atoms: C_21  and  C_22 
ROOT
HETATM    1  C   UNL     1     -44.438  59.092 -52.858  1.00  0.00     0.170 A 
HETATM    2  N   UNL     1     -43.525  59.200 -51.859  1.00  0.00    -0.163 NA
HETATM    3  N   UNL     1     -42.888  58.018 -51.876  1.00  0.00    -0.238 N 
HETATM    4  C   UNL     1     -43.421  57.115 -52.758  1.00  0.00     0.145 A 
HETATM    5  N   UNL     1     -42.939  55.849 -52.839  1.00  0.00    -0.365 N 
HETATM    6  C   UNL     1     -42.084  55.325 -51.779  1.00  0.00     0.118 C 
HETATM    7  C   UNL     1     -41.098  56.416 -51.341  1.00  0.00     0.066 C 
HETATM    8  C   UNL     1     -41.850  57.689 -50.911  1.00  0.00     0.221 C 
HETATM    9  C   UNL     1     -44.412  57.791 -53.432  1.00  0.00     0.115 A 
HETATM   10 CL   UNL     1     -45.391  57.177 -54.674  1.00  0.00    -0.077 Cl
HETATM   11  H   UNL     1     -43.470  55.146 -53.356  1.00  0.00     0.162 HD
ENDROOT
BRANCH   6  12
HETATM   12  C   UNL     1     -41.340  54.093 -52.256  1.00  0.00    -0.035 A 
HETATM   13  C   UNL     1     -41.425  53.652 -53.584  1.00  0.00     0.012 A 
HETATM   14  C   UNL     1     -40.698  52.538 -54.012  1.00  0.00     0.037 A 
HETATM   15  C   UNL     1     -39.861  51.851 -53.132  1.00  0.00     0.068 A 
HETATM   16  C   UNL     1     -39.769  52.281 -51.809  1.00  0.00     0.037 A 
HETATM   17  C   UNL     1     -40.501  53.394 -51.375  1.00  0.00     0.012 A 
BRANCH  15  18
HETATM   18  O   UNL     1     -39.199  50.790 -53.683  1.00  0.00    -0.356 OA
HETATM   19  C   UNL     1     -39.958  49.917 -54.510  1.00  0.00     0.210 C 
ENDBRANCH  15  18
ENDBRANCH   6  12
BRANCH   8  20
HETATM   20  C   UNL     1     -40.865  58.824 -50.725  1.00  0.00     0.409 C 
HETATM   21  F   UNL     1     -40.744  59.591 -51.830  1.00  0.00    -0.169 F 
HETATM   22  F   UNL     1     -41.168  59.628 -49.682  1.00  0.00    -0.169 F 
HETATM   23  F   UNL     1     -39.630  58.318 -50.462  1.00  0.00    -0.169 F 
ENDBRANCH   8  20
BRANCH   1  24
HETATM   24  C   UNL     1     -45.297  60.233 -53.215  1.00  0.00     0.273 C 
HETATM   25  N   UNL     1     -46.290  60.468 -52.288  1.00  0.00    -0.356 N 
HETATM   26  H   UNL     1     -46.329  59.819 -51.506  1.00  0.00     0.162 HD
HETATM   27  O   UNL     1     -45.147  60.913 -54.225  1.00  0.00    -0.266 OA
BRANCH  25  28
HETATM   28  C   UNL     1     -47.248  61.541 -52.407  1.00  0.00     0.122 C 
BRANCH  28  29
HETATM   29  C   UNL     1     -47.007  62.635 -51.372  1.00  0.00     0.015 C 
HETATM   30  C   UNL     1     -46.251  62.102 -50.167  1.00  0.00     0.006 C 
ENDBRANCH  28  29
ENDBRANCH  25  28
ENDBRANCH   1  24
TORSDOF 6
ENDMDL
MODEL 3
REMARK VINA RESULT:      -7.4      4.428      8.668
REMARK  6 active torsions:
REMARK  status: ('A' for Active; 'I' for Inactive)
REMARK    1  A    between atoms: C_2  and  C_3 
REMARK    2  A    between atoms: C_3  and  N_4 
REMARK       I    between atoms: N_4  and  C_5 
REMARK    3  A    between atoms: C_5  and  C_6 
REMARK    4  A    between atoms: C_11  and  C_12 
REMARK    5  A    between atoms: C_15  and  O_16 
REMARK    6  A    between atoms: C_21  and  C_22 
ROOT
HETATM    1  C   UNL     1     -41.465  53.839 -51.350  1.00  0.00     0.170 A 
HETATM    2  N   UNL     1     -42.136  54.029 -52.514  1.00  0.00    -0.163 NA
HETATM    3  N   UNL     1     -42.741  55.216 -52.347  1.00  0.00    -0.238 N 
HETATM    4  C   UNL     1     -42.585  55.744 -51.092  1.00  0.00     0.145 A 
HETATM    5  N   UNL     1     -43.200  56.901 -50.739  1.00  0.00    -0.365 N 
HETATM    6  C   UNL     1     -44.287  57.428 -51.558  1.00  0.00     0.118 C 
HETATM    7  C   UNL     1     -43.933  57.255 -53.040  1.00  0.00     0.066 C 
HETATM    8  C   UNL     1     -43.622  55.781 -53.358  1.00  0.00     0.221 C 
HETATM    9  C   UNL     1     -41.739  54.886 -50.428  1.00  0.00     0.115 A 
HETATM   10 CL   UNL     1     -41.164  55.059 -48.841  1.00  0.00    -0.077 Cl
HETATM   11  H   UNL     1     -43.227  57.171 -49.755  1.00  0.00     0.162 HD
ENDROOT
BRANCH   6  12
HETATM   12  C   UNL     1     -44.536  58.889 -51.235  1.00  0.00    -0.035 A 
HETATM   13  C   UNL     1     -45.834  59.393 -51.063  1.00  0.00     0.012 A 
HETATM   14  C   UNL     1     -46.037  60.733 -50.724  1.00  0.00     0.037 A 
HETATM   15  C   UNL     1     -44.956  61.593 -50.536  1.00  0.00     0.068 A 
HETATM   16  C   UNL     1     -43.661  61.103 -50.705  1.00  0.00     0.037 A 
HETATM   17  C   UNL     1     -43.453  59.762 -51.050  1.00  0.00     0.012 A 
BRANCH  15  18
HETATM   18  O   UNL     1     -45.296  62.873 -50.194  1.00  0.00    -0.356 OA
HETATM   19  C   UNL     1     -46.616  63.080 -49.710  1.00  0.00     0.210 C 
ENDBRANCH  15  18
ENDBRANCH   6  12
BRANCH   8  20
HETATM   20  C   UNL     1     -43.038  55.671 -54.749  1.00  0.00     0.409 C 
HETATM   21  F   UNL     1     -41.718  55.959 -54.781  1.00  0.00    -0.169 F 
HETATM   22  F   UNL     1     -43.219  54.455 -55.310  1.00  0.00    -0.169 F 
HETATM   23  F   UNL     1     -43.653  56.561 -55.574  1.00  0.00    -0.169 F 
ENDBRANCH   8  20
BRANCH   1  24
HETATM   24  C   UNL     1     -40.599  52.663 -51.168  1.00  0.00     0.273 C 
HETATM   25  N   UNL     1     -40.020  52.234 -52.344  1.00  0.00    -0.356 N 
HETATM   26  H   UNL     1     -40.283  52.750 -53.180  1.00  0.00     0.162 HD
HETATM   27  O   UNL     1     -40.400  52.120 -50.086  1.00  0.00    -0.266 OA
BRANCH  25  28
HETATM   28  C   UNL     1     -39.118  51.110 -52.421  1.00  0.00     0.122 C 
BRANCH  28  29
HETATM   29  C   UNL     1     -39.783  49.889 -53.049  1.00  0.00     0.015 C 
HETATM   30  C   UNL     1     -39.766  49.968 -54.566  1.00  0.00     0.006 C 
ENDBRANCH  28  29
ENDBRANCH  25  28
ENDBRANCH   1  24
TORSDOF 6
ENDMDL
MODEL 4
REMARK VINA RESULT:      -7.4      1.806      1.904
REMARK  6 active torsions:
REMARK  status: ('A' for Active; 'I' for Inactive)
REMARK    1  A    between atoms: C_2  and  C_3 
REMARK    2  A    between atoms: C_3  and  N_4 
REMARK       I    between atoms: N_4  and  C_5 
REMARK    3  A    between atoms: C_5  and  C_6 
REMARK    4  A    between atoms: C_11  and  C_12 
REMARK    5  A    between atoms: C_15  and  O_16 
REMARK    6  A    between atoms: C_21  and  C_22 
ROOT
HETATM    1  C   UNL     1     -43.572  57.820 -56.992  1.00  0.00     0.170 A 
HETATM    2  N   UNL     1     -43.400  58.334 -55.748  1.00  0.00    -0.163 NA
HETATM    3  N   UNL     1     -42.863  57.319 -55.052  1.00  0.00    -0.238 N 
HETATM    4  C   UNL     1     -42.788  56.145 -55.755  1.00  0.00     0.145 A 
HETATM    5  N   UNL     1     -42.341  55.006 -55.168  1.00  0.00    -0.365 N 
HETATM    6  C   UNL     1     -42.248  54.923 -53.713  1.00  0.00     0.118 C 
HETATM    7  C   UNL     1     -41.698  56.247 -53.168  1.00  0.00     0.066 C 
HETATM    8  C   UNL     1     -42.565  57.431 -53.632  1.00  0.00     0.221 C 
HETATM    9  C   UNL     1     -43.216  56.443 -57.028  1.00  0.00     0.115 A 
HETATM   10 CL   UNL     1     -43.301  55.375 -58.344  1.00  0.00    -0.077 Cl
HETATM   11  H   UNL     1     -42.476  54.113 -55.646  1.00  0.00     0.162 HD
ENDROOT
BRANCH   6  12
HETATM   12  C   UNL     1     -41.359  53.765 -53.303  1.00  0.00    -0.035 A 
HETATM   13  C   UNL     1     -40.943  53.593 -51.975  1.00  0.00     0.012 A 
HETATM   14  C   UNL     1     -40.159  52.495 -51.611  1.00  0.00     0.037 A 
HETATM   15  C   UNL     1     -39.787  51.540 -52.557  1.00  0.00     0.068 A 
HETATM   16  C   UNL     1     -40.196  51.700 -53.881  1.00  0.00     0.037 A 
HETATM   17  C   UNL     1     -40.976  52.803 -54.250  1.00  0.00     0.012 A 
BRANCH  15  18
HETATM   18  O   UNL     1     -39.033  50.511 -52.065  1.00  0.00    -0.356 OA
HETATM   19  C   UNL     1     -39.529  49.845 -50.911  1.00  0.00     0.210 C 
ENDBRANCH  15  18
ENDBRANCH   6  12
BRANCH   8  20
HETATM   20  C   UNL     1     -41.871  58.734 -53.296  1.00  0.00     0.409 C 
HETATM   21  F   UNL     1     -41.026  59.137 -54.271  1.00  0.00    -0.169 F 
HETATM   22  F   UNL     1     -42.730  59.744 -53.036  1.00  0.00    -0.169 F 
HETATM   23  F   UNL     1     -41.124  58.576 -52.171  1.00  0.00    -0.169 F 
ENDBRANCH   8  20
BRANCH   1  24
HETATM   24  C   UNL     1     -44.076  58.664 -58.089  1.00  0.00     0.273 C 
HETATM   25  N   UNL     1     -45.328  58.287 -58.525  1.00  0.00    -0.356 N 
HETATM   26  H   UNL     1     -45.728  57.469 -58.070  1.00  0.00     0.162 HD
HETATM   27  O   UNL     1     -43.456  59.609 -58.564  1.00  0.00    -0.266 OA
BRANCH  25  28
HETATM   28  C   UNL     1     -46.040  58.969 -59.578  1.00  0.00     0.122 C 
BRANCH  28  29
HETATM   29  C   UNL     1     -46.863  58.005 -60.426  1.00  0.00     0.015 C 
HETATM   30  C   UNL     1     -46.730  56.576 -59.927  1.00  0.00     0.006 C 
ENDBRANCH  28  29
ENDBRANCH  25  28
ENDBRANCH   1  24
TORSDOF 6
ENDMDL
MODEL 5
REMARK VINA RESULT:      -7.3      2.839      7.962
REMARK  6 active torsions:
REMARK  status: ('A' for Active; 'I' for Inactive)
REMARK    1  A    between atoms: C_2  and  C_3 
REMARK    2  A    between atoms: C_3  and  N_4 
REMARK       I    between atoms: N_4  and  C_5 
REMARK    3  A    between atoms: C_5  and  C_6 
REMARK    4  A    between atoms: C_11  and  C_12 
REMARK    5  A    between atoms: C_15  and  O_16 
REMARK    6  A    between atoms: C_21  and  C_22 
ROOT
HETATM    1  C   UNL     1     -40.789  54.096 -52.220  1.00  0.00     0.170 A 
HETATM    2  N   UNL     1     -41.305  55.317 -51.930  1.00  0.00    -0.163 NA
HETATM    3  N   UNL     1     -41.839  55.726 -53.092  1.00  0.00    -0.238 N 
HETATM    4  C   UNL     1     -41.594  54.879 -54.140  1.00  0.00     0.145 A 
HETATM    5  N   UNL     1     -42.001  55.187 -55.398  1.00  0.00    -0.365 N 
HETATM    6  C   UNL     1     -42.405  56.553 -55.719  1.00  0.00     0.118 C 
HETATM    7  C   UNL     1     -43.239  57.117 -54.561  1.00  0.00     0.066 C 
HETATM    8  C   UNL     1     -42.460  57.033 -53.236  1.00  0.00     0.221 C 
HETATM    9  C   UNL     1     -40.937  53.797 -53.602  1.00  0.00     0.115 A 
HETATM   10 CL   UNL     1     -40.415  52.413 -54.434  1.00  0.00    -0.077 Cl
HETATM   11  H   UNL     1     -41.642  54.644 -56.185  1.00  0.00     0.162 HD
ENDROOT
BRANCH   6  12
HETATM   12  C   UNL     1     -43.196  56.583 -57.012  1.00  0.00    -0.035 A 
HETATM   13  C   UNL     1     -43.069  55.571 -57.975  1.00  0.00     0.012 A 
HETATM   14  C   UNL     1     -43.839  55.597 -59.141  1.00  0.00     0.037 A 
HETATM   15  C   UNL     1     -44.760  56.620 -59.364  1.00  0.00     0.068 A 
HETATM   16  C   UNL     1     -44.895  57.632 -58.414  1.00  0.00     0.037 A 
HETATM   17  C   UNL     1     -44.121  57.612 -57.247  1.00  0.00     0.012 A 
BRANCH  15  18
HETATM   18  O   UNL     1     -45.456  56.517 -60.537  1.00  0.00    -0.356 OA
HETATM   19  C   UNL     1     -46.849  56.254 -60.436  1.00  0.00     0.210 C 
ENDBRANCH  15  18
ENDBRANCH   6  12
BRANCH   8  20
HETATM   20  C   UNL     1     -43.383  57.358 -52.081  1.00  0.00     0.409 C 
HETATM   21  F   UNL     1     -44.092  56.285 -51.667  1.00  0.00    -0.169 F 
HETATM   22  F   UNL     1     -42.738  57.877 -51.013  1.00  0.00    -0.169 F 
HETATM   23  F   UNL     1     -44.286  58.298 -52.468  1.00  0.00    -0.169 F 
ENDBRANCH   8  20
BRANCH   1  24
HETATM   24  C   UNL     1     -40.173  53.272 -51.166  1.00  0.00     0.273 C 
HETATM   25  N   UNL     1     -40.605  51.962 -51.186  1.00  0.00    -0.356 N 
HETATM   26  H   UNL     1     -41.306  51.738 -51.889  1.00  0.00     0.162 HD
HETATM   27  O   UNL     1     -39.355  53.696 -50.357  1.00  0.00    -0.266 OA
BRANCH  25  28
HETATM   28  C   UNL     1     -40.134  50.958 -50.264  1.00  0.00     0.122 C 
BRANCH  28  29
HETATM   29  C   UNL     1     -39.300  49.890 -50.965  1.00  0.00     0.015 C 
HETATM   30  C   UNL     1     -39.797  49.636 -52.378  1.00  0.00     0.006 C 
ENDBRANCH  28  29
ENDBRANCH  25  28
ENDBRANCH   1  24
TORSDOF 6
ENDMDL
MODEL 6
REMARK VINA RESULT:      -7.3      3.281      4.861
REMARK  6 active torsions:
REMARK  status: ('A' for Active; 'I' for Inactive)
REMARK    1  A    between atoms: C_2  and  C_3 
REMARK    2  A    between atoms: C_3  and  N_4 
REMARK       I    between atoms: N_4  and  C_5 
REMARK    3  A    between atoms: C_5  and  C_6 
REMARK    4  A    between atoms: C_11  and  C_12 
REMARK    5  A    between atoms: C_15  and  O_16 
REMARK    6  A    between atoms: C_21  and  C_22 
ROOT
HETATM    1  C   UNL     1     -42.551  58.988 -53.363  1.00  0.00     0.170 A 
HETATM    2  N   UNL     1     -42.591  58.508 -54.632  1.00  0.00    -0.163 NA
HETATM    3  N   UNL     1     -42.081  57.271 -54.525  1.00  0.00    -0.238 N 
HETATM    4  C   UNL     1     -41.610  56.974 -53.274  1.00  0.00     0.145 A 
HETATM    5  N   UNL     1     -40.993  55.792 -53.021  1.00  0.00    -0.365 N 
HETATM    6  C   UNL     1     -40.527  54.962 -54.128  1.00  0.00     0.118 C 
HETATM    7  C   UNL     1     -41.579  54.972 -55.244  1.00  0.00     0.066 C 
HETATM    8  C   UNL     1     -41.892  56.413 -55.684  1.00  0.00     0.221 C 
HETATM    9  C   UNL     1     -41.924  58.059 -52.488  1.00  0.00     0.115 A 
HETATM   10 CL   UNL     1     -41.612  58.232 -50.829  1.00  0.00    -0.077 Cl
HETATM   11  H   UNL     1     -40.484  55.672 -52.144  1.00  0.00     0.162 HD
ENDROOT
BRANCH   6  12
HETATM   12  C   UNL     1     -40.262  53.546 -53.655  1.00  0.00    -0.035 A 
HETATM   13  C   UNL     1     -40.058  53.249 -52.299  1.00  0.00     0.012 A 
HETATM   14  C   UNL     1     -39.857  51.931 -51.881  1.00  0.00     0.037 A 
HETATM   15  C   UNL     1     -39.870  50.882 -52.800  1.00  0.00     0.068 A 
HETATM   16  C   UNL     1     -40.072  51.164 -54.151  1.00  0.00     0.037 A 
HETATM   17  C   UNL     1     -40.267  52.485 -54.574  1.00  0.00     0.012 A 
BRANCH  15  18
HETATM   18  O   UNL     1     -39.675  49.643 -52.256  1.00  0.00    -0.356 OA
HETATM   19  C   UNL     1     -39.594  49.568 -50.839  1.00  0.00     0.210 C 
ENDBRANCH  15  18
ENDBRANCH   6  12
BRANCH   8  20
HETATM   20  C   UNL     1     -43.099  56.415 -56.598  1.00  0.00     0.409 C 
HETATM   21  F   UNL     1     -44.254  56.625 -55.930  1.00  0.00    -0.169 F 
HETATM   22  F   UNL     1     -43.014  57.326 -57.592  1.00  0.00    -0.169 F 
HETATM   23  F   UNL     1     -43.213  55.205 -57.207  1.00  0.00    -0.169 F 
ENDBRANCH   8  20
BRANCH   1  24
HETATM   24  C   UNL     1     -43.106  60.314 -53.045  1.00  0.00     0.273 C 
HETATM   25  N   UNL     1     -44.259  60.247 -52.291  1.00  0.00    -0.356 N 
HETATM   26  H   UNL     1     -44.596  59.311 -52.081  1.00  0.00     0.162 HD
HETATM   27  O   UNL     1     -42.597  61.372 -53.401  1.00  0.00    -0.266 OA
BRANCH  25  28
HETATM   28  C   UNL     1     -44.979  61.413 -51.839  1.00  0.00     0.122 C 
BRANCH  28  29
HETATM   29  C   UNL     1     -45.191  61.401 -50.329  1.00  0.00     0.015 C 
HETATM   30  C   UNL     1     -43.872  61.519 -49.583  1.00  0.00     0.006 C 
ENDBRANCH  28  29
ENDBRANCH  25  28
ENDBRANCH   1  24
TORSDOF 6
ENDMDL
MODEL 7
REMARK VINA RESULT:      -7.1      3.810      8.983
REMARK  6 active torsions:
REMARK  status: ('A' for Active; 'I' for Inactive)
REMARK    1  A    between atoms: C_2  and  C_3 
REMARK    2  A    between atoms: C_3  and  N_4 
REMARK       I    between atoms: N_4  and  C_5 
REMARK    3  A    between atoms: C_5  and  C_6 
REMARK    4  A    between atoms: C_11  and  C_12 
REMARK    5  A    between atoms: C_15  and  O_16 
REMARK    6  A    between atoms: C_21  and  C_22 
ROOT
HETATM    1  C   UNL     1     -42.745  55.973 -55.633  1.00  0.00     0.170 A 
HETATM    2  N   UNL     1     -43.333  55.829 -56.848  1.00  0.00    -0.163 NA
HETATM    3  N   UNL     1     -43.006  56.956 -57.500  1.00  0.00    -0.238 N 
HETATM    4  C   UNL     1     -42.333  57.866 -56.728  1.00  0.00     0.145 A 
HETATM    5  N   UNL     1     -41.999  59.087 -57.217  1.00  0.00    -0.365 N 
HETATM    6  C   UNL     1     -42.626  59.579 -58.440  1.00  0.00     0.118 C 
HETATM    7  C   UNL     1     -42.729  58.430 -59.451  1.00  0.00     0.066 C 
HETATM    8  C   UNL     1     -43.487  57.236 -58.844  1.00  0.00     0.221 C 
HETATM    9  C   UNL     1     -42.125  57.247 -55.517  1.00  0.00     0.115 A 
HETATM   10 CL   UNL     1     -41.304  57.892 -54.178  1.00  0.00    -0.077 Cl
HETATM   11  H   UNL     1     -41.676  59.811 -56.573  1.00  0.00     0.162 HD
ENDROOT
BRANCH   6  12
HETATM   12  C   UNL     1     -41.829  60.732 -59.019  1.00  0.00    -0.035 A 
HETATM   13  C   UNL     1     -40.975  61.508 -58.223  1.00  0.00     0.012 A 
HETATM   14  C   UNL     1     -40.218  62.538 -58.786  1.00  0.00     0.037 A 
HETATM   15  C   UNL     1     -40.285  62.807 -60.153  1.00  0.00     0.068 A 
HETATM   16  C   UNL     1     -41.131  62.042 -60.955  1.00  0.00     0.037 A 
HETATM   17  C   UNL     1     -41.896  61.012 -60.392  1.00  0.00     0.012 A 
BRANCH  15  18
HETATM   18  O   UNL     1     -39.484  63.832 -60.575  1.00  0.00    -0.356 OA
HETATM   19  C   UNL     1     -38.513  64.310 -59.652  1.00  0.00     0.210 C 
ENDBRANCH  15  18
ENDBRANCH   6  12
BRANCH   8  20
HETATM   20  C   UNL     1     -43.360  56.035 -59.757  1.00  0.00     0.409 C 
HETATM   21  F   UNL     1     -43.934  54.927 -59.238  1.00  0.00    -0.169 F 
HETATM   22  F   UNL     1     -43.878  56.243 -60.987  1.00  0.00    -0.169 F 
HETATM   23  F   UNL     1     -42.046  55.742 -59.947  1.00  0.00    -0.169 F 
ENDBRANCH   8  20
BRANCH   1  24
HETATM   24  C   UNL     1     -42.808  54.891 -54.637  1.00  0.00     0.273 C 
HETATM   25  N   UNL     1     -41.634  54.173 -54.548  1.00  0.00    -0.356 N 
HETATM   26  H   UNL     1     -40.896  54.450 -55.192  1.00  0.00     0.162 HD
HETATM   27  O   UNL     1     -43.794  54.653 -53.947  1.00  0.00    -0.266 OA
BRANCH  25  28
HETATM   28  C   UNL     1     -41.443  53.075 -53.632  1.00  0.00     0.122 C 
BRANCH  28  29
HETATM   29  C   UNL     1     -40.098  52.387 -53.841  1.00  0.00     0.015 C 
HETATM   30  C   UNL     1     -40.274  50.954 -54.313  1.00  0.00     0.006 C 
ENDBRANCH  28  29
ENDBRANCH  25  28
ENDBRANCH   1  24
TORSDOF 6
ENDMDL
MODEL 8
REMARK VINA RESULT:      -7.1      3.866      6.293
REMARK  6 active torsions:
REMARK  status: ('A' for Active; 'I' for Inactive)
REMARK    1  A    between atoms: C_2  and  C_3 
REMARK    2  A    between atoms: C_3  and  N_4 
REMARK       I    between atoms: N_4  and  C_5 
REMARK    3  A    between atoms: C_5  and  C_6 
REMARK    4  A    between atoms: C_11  and  C_12 
REMARK    5  A    between atoms: C_15  and  O_16 
REMARK    6  A    between atoms: C_21  and  C_22 
ROOT
HETATM    1  C   UNL     1     -43.016  56.329 -57.657  1.00  0.00     0.170 A 
HETATM    2  N   UNL     1     -42.646  55.468 -56.675  1.00  0.00    -0.163 NA
HETATM    3  N   UNL     1     -42.594  56.236 -55.575  1.00  0.00    -0.238 N 
HETATM    4  C   UNL     1     -42.800  57.568 -55.821  1.00  0.00     0.145 A 
HETATM    5  N   UNL     1     -42.703  58.486 -54.826  1.00  0.00    -0.365 N 
HETATM    6  C   UNL     1     -42.062  58.128 -53.565  1.00  0.00     0.118 C 
HETATM    7  C   UNL     1     -42.494  56.712 -53.163  1.00  0.00     0.066 C 
HETATM    8  C   UNL     1     -42.179  55.707 -54.286  1.00  0.00     0.221 C 
HETATM    9  C   UNL     1     -43.103  57.659 -57.160  1.00  0.00     0.115 A 
HETATM   10 CL   UNL     1     -43.488  59.072 -58.017  1.00  0.00    -0.077 Cl
HETATM   11  H   UNL     1     -42.668  59.478 -55.065  1.00  0.00     0.162 HD
ENDROOT
BRANCH   6  12
HETATM   12  C   UNL     1     -42.425  59.125 -52.482  1.00  0.00    -0.035 A 
HETATM   13  C   UNL     1     -43.684  59.743 -52.445  1.00  0.00     0.012 A 
HETATM   14  C   UNL     1     -44.013  60.627 -51.414  1.00  0.00     0.037 A 
HETATM   15  C   UNL     1     -43.103  60.902 -50.393  1.00  0.00     0.068 A 
HETATM   16  C   UNL     1     -41.849  60.294 -50.420  1.00  0.00     0.037 A 
HETATM   17  C   UNL     1     -41.514  59.412 -51.455  1.00  0.00     0.012 A 
BRANCH  15  18
HETATM   18  O   UNL     1     -43.557  61.773 -49.442  1.00  0.00    -0.356 OA
HETATM   19  C   UNL     1     -44.723  61.391 -48.725  1.00  0.00     0.210 C 
ENDBRANCH  15  18
ENDBRANCH   6  12
BRANCH   8  20
HETATM   20  C   UNL     1     -42.832  54.377 -53.977  1.00  0.00     0.409 C 
HETATM   21  F   UNL     1     -44.145  54.358 -54.296  1.00  0.00    -0.169 F 
HETATM   22  F   UNL     1     -42.233  53.333 -54.590  1.00  0.00    -0.169 F 
HETATM   23  F   UNL     1     -42.750  54.126 -52.643  1.00  0.00    -0.169 F 
ENDBRANCH   8  20
BRANCH   1  24
HETATM   24  C   UNL     1     -43.262  55.845 -59.025  1.00  0.00     0.273 C 
HETATM   25  N   UNL     1     -44.516  55.294 -59.183  1.00  0.00    -0.356 N 
HETATM   26  H   UNL     1     -45.093  55.258 -58.346  1.00  0.00     0.162 HD
HETATM   27  O   UNL     1     -42.446  55.928 -59.937  1.00  0.00    -0.266 OA
BRANCH  25  28
HETATM   28  C   UNL     1     -44.998  54.766 -60.436  1.00  0.00     0.122 C 
BRANCH  28  29
HETATM   29  C   UNL     1     -45.975  55.720 -61.117  1.00  0.00     0.015 C 
HETATM   30  C   UNL     1     -46.917  56.360 -60.112  1.00  0.00     0.006 C 
ENDBRANCH  28  29
ENDBRANCH  25  28
ENDBRANCH   1  24
TORSDOF 6
ENDMDL
MODEL 9
REMARK VINA RESULT:      -7.0     16.744     18.924
REMARK  6 active torsions:
REMARK  status: ('A' for Active; 'I' for Inactive)
REMARK    1  A    between atoms: C_2  and  C_3 
REMARK    2  A    between atoms: C_3  and  N_4 
REMARK       I    between atoms: N_4  and  C_5 
REMARK    3  A    between atoms: C_5  and  C_6 
REMARK    4  A    between atoms: C_11  and  C_12 
REMARK    5  A    between atoms: C_15  and  O_16 
REMARK    6  A    between atoms: C_21  and  C_22 
ROOT
HETATM    1  C   UNL     1     -33.611  40.249 -55.452  1.00  0.00     0.170 A 
HETATM    2  N   UNL     1     -34.741  40.951 -55.187  1.00  0.00    -0.163 NA
HETATM    3  N   UNL     1     -35.545  40.671 -56.225  1.00  0.00    -0.238 N 
HETATM    4  C   UNL     1     -34.947  39.917 -57.200  1.00  0.00     0.145 A 
HETATM    5  N   UNL     1     -35.600  39.614 -58.350  1.00  0.00    -0.365 N 
HETATM    6  C   UNL     1     -36.808  40.348 -58.717  1.00  0.00     0.118 C 
HETATM    7  C   UNL     1     -37.668  40.561 -57.465  1.00  0.00     0.066 C 
HETATM    8  C   UNL     1     -36.862  41.274 -56.364  1.00  0.00     0.221 C 
HETATM    9  C   UNL     1     -33.698  39.603 -56.716  1.00  0.00     0.115 A 
HETATM   10 CL   UNL     1     -32.523  38.652 -57.487  1.00  0.00    -0.077 Cl
HETATM   11  H   UNL     1     -35.075  39.223 -59.134  1.00  0.00     0.162 HD
ENDROOT
BRANCH   6  12
HETATM   12  C   UNL     1     -37.586  39.594 -59.778  1.00  0.00    -0.035 A 
HETATM   13  C   UNL     1     -37.119  39.491 -61.097  1.00  0.00     0.012 A 
HETATM   14  C   UNL     1     -37.831  38.756 -62.048  1.00  0.00     0.037 A 
HETATM   15  C   UNL     1     -39.012  38.098 -61.703  1.00  0.00     0.068 A 
HETATM   16  C   UNL     1     -39.486  38.193 -60.395  1.00  0.00     0.037 A 
HETATM   17  C   UNL     1     -38.778  38.934 -59.440  1.00  0.00     0.012 A 
BRANCH  15  18
HETATM   18  O   UNL     1     -39.600  37.405 -62.725  1.00  0.00    -0.356 OA
HETATM   19  C   UNL     1     -40.904  37.817 -63.115  1.00  0.00     0.210 C 
ENDBRANCH  15  18
ENDBRANCH   6  12
BRANCH   8  20
HETATM   20  C   UNL     1     -37.640  41.250 -55.066  1.00  0.00     0.409 C 
HETATM   21  F   UNL     1     -37.531  40.069 -54.419  1.00  0.00    -0.169 F 
HETATM   22  F   UNL     1     -37.284  42.234 -54.212  1.00  0.00    -0.169 F 
HETATM   23  F   UNL     1     -38.962  41.435 -55.322  1.00  0.00    -0.169 F 
ENDBRANCH   8  20
BRANCH   1  24
HETATM   24  C   UNL     1     -32.496  40.231 -54.490  1.00  0.00     0.273 C 
HETATM   25  N   UNL     1     -32.903  40.450 -53.191  1.00  0.00    -0.356 N 
HETATM   26  H   UNL     1     -33.897  40.627 -53.063  1.00  0.00     0.162 HD
HETATM   27  O   UNL     1     -31.326  40.035 -54.802  1.00  0.00    -0.266 OA
BRANCH  25  28
HETATM   28  C   UNL     1     -31.998  40.464 -52.068  1.00  0.00     0.122 C 
BRANCH  28  29
HETATM   29  C   UNL     1     -32.734  40.669 -50.747  1.00  0.00     0.015 C 
HETATM   30  C   UNL     1     -34.104  41.288 -50.966  1.00  0.00     0.006 C 
ENDBRANCH  28  29
ENDBRANCH  25  28
ENDBRANCH   1  24
TORSDOF 6
ENDMDL
MODEL 10
REMARK VINA RESULT:      -6.9      4.407      7.914
REMARK  6 active torsions:
REMARK  status: ('A' for Active; 'I' for Inactive)
REMARK    1  A    between atoms: C_2  and  C_3 
REMARK    2  A    between atoms: C_3  and  N_4 
REMARK       I    between atoms: N_4  and  C_5 
REMARK    3  A    between atoms: C_5  and  C_6 
REMARK    4  A    between atoms: C_11  and  C_12 
REMARK    5  A    between atoms: C_15  and  O_16 
REMARK    6  A    between atoms: C_21  and  C_22 
ROOT
HETATM    1  C   UNL     1     -42.004  57.139 -54.041  1.00  0.00     0.170 A 
HETATM    2  N   UNL     1     -41.045  57.846 -53.393  1.00  0.00    -0.163 NA
HETATM    3  N   UNL     1     -41.739  58.692 -52.614  1.00  0.00    -0.238 N 
HETATM    4  C   UNL     1     -43.093  58.641 -52.814  1.00  0.00     0.145 A 
HETATM    5  N   UNL     1     -43.929  59.488 -52.160  1.00  0.00    -0.365 N 
HETATM    6  C   UNL     1     -43.393  60.672 -51.495  1.00  0.00     0.118 C 
HETATM    7  C   UNL     1     -42.084  60.302 -50.786  1.00  0.00     0.066 C 
HETATM    8  C   UNL     1     -41.082  59.684 -51.777  1.00  0.00     0.221 C 
HETATM    9  C   UNL     1     -43.301  57.623 -53.716  1.00  0.00     0.115 A 
HETATM   10 CL   UNL     1     -44.798  57.084 -54.306  1.00  0.00    -0.077 Cl
HETATM   11  H   UNL     1     -44.901  59.564 -52.465  1.00  0.00     0.162 HD
ENDROOT
BRANCH   6  12
HETATM   12  C   UNL     1     -44.399  61.227 -50.506  1.00  0.00    -0.035 A 
HETATM   13  C   UNL     1     -45.596  61.822 -50.931  1.00  0.00     0.012 A 
HETATM   14  C   UNL     1     -46.528  62.289 -50.000  1.00  0.00     0.037 A 
HETATM   15  C   UNL     1     -46.295  62.160 -48.631  1.00  0.00     0.068 A 
HETATM   16  C   UNL     1     -45.108  61.570 -48.197  1.00  0.00     0.037 A 
HETATM   17  C   UNL     1     -44.169  61.106 -49.127  1.00  0.00     0.012 A 
BRANCH  15  18
HETATM   18  O   UNL     1     -47.293  62.646 -47.833  1.00  0.00    -0.356 OA
HETATM   19  C   UNL     1     -46.957  62.921 -46.479  1.00  0.00     0.210 C 
ENDBRANCH  15  18
ENDBRANCH   6  12
BRANCH   8  20
HETATM   20  C   UNL     1     -39.907  59.103 -51.020  1.00  0.00     0.409 C 
HETATM   21  F   UNL     1     -40.114  57.821 -50.646  1.00  0.00    -0.169 F 
HETATM   22  F   UNL     1     -38.747  59.161 -51.709  1.00  0.00    -0.169 F 
HETATM   23  F   UNL     1     -39.702  59.815 -49.879  1.00  0.00    -0.169 F 
ENDBRANCH   8  20
BRANCH   1  24
HETATM   24  C   UNL     1     -41.640  56.037 -54.947  1.00  0.00     0.273 C 
HETATM   25  N   UNL     1     -40.686  55.195 -54.414  1.00  0.00    -0.356 N 
HETATM   26  H   UNL     1     -40.334  55.452 -53.494  1.00  0.00     0.162 HD
HETATM   27  O   UNL     1     -42.134  55.872 -56.057  1.00  0.00    -0.266 OA
BRANCH  25  28
HETATM   28  C   UNL     1     -40.179  54.034 -55.103  1.00  0.00     0.122 C 
BRANCH  28  29
HETATM   29  C   UNL     1     -40.352  52.762 -54.278  1.00  0.00     0.015 C 
HETATM   30  C   UNL     1     -40.458  53.074 -52.794  1.00  0.00     0.006 C 
ENDBRANCH  28  29
ENDBRANCH  25  28
ENDBRANCH   1  24
TORSDOF 6
ENDMDL
