MODEL 1
REMARK VINA RESULT:      -8.8      0.000      0.000
REMARK  6 active torsions:
REMARK  status: ('A' for Active; 'I' for Inactive)
REMARK    1  A    between atoms: C_4  and  C_5 
REMARK    2  A    between atoms: C_6  and  O_7 
REMARK    3  A    between atoms: O_7  and  C_8 
REMARK    4  A    between atoms: C_8  and  C_9 
REMARK       I    between atoms: C_9  and  N_10 
REMARK    5  A    between atoms: N_10  and  N_11 
REMARK       I    between atoms: N_11  and  C_12 
REMARK    6  A    between atoms: C_12  and  C_13 
ROOT
HETATM    1  C   UNL     1     -40.538  53.934 -49.123  1.00  0.00     0.260 C 
HETATM    2  N   UNL     1     -41.297  55.032 -48.793  1.00  0.00    -0.265 N 
HETATM    3  O   UNL     1     -40.556  52.934 -48.403  1.00  0.00    -0.269 OA
HETATM    4  H   UNL     1     -41.958  54.881 -48.030  1.00  0.00     0.190 HD
ENDROOT
BRANCH   1   5
HETATM    5  C   UNL     1     -39.664  54.012 -50.373  1.00  0.00     0.280 C 
BRANCH   5   6
HETATM    6  O   UNL     1     -40.428  54.026 -51.579  1.00  0.00    -0.341 OA
BRANCH   6   7
HETATM    7  C   UNL     1     -40.291  52.884 -52.333  1.00  0.00     0.080 A 
HETATM    8  C   UNL     1     -40.865  52.854 -53.622  1.00  0.00     0.007 A 
HETATM    9  C   UNL     1     -40.688  51.686 -54.394  1.00  0.00     0.015 A 
HETATM   10  C   UNL     1     -39.951  50.601 -53.919  1.00  0.00     0.001 A 
HETATM   11  C   UNL     1     -39.364  50.663 -52.662  1.00  0.00     0.003 A 
HETATM   12  C   UNL     1     -39.525  51.802 -51.874  1.00  0.00     0.037 A 
BRANCH   8  13
HETATM   13  C   UNL     1     -41.643  53.975 -54.185  1.00  0.00    -0.023 A 
HETATM   14  C   UNL     1     -41.049  54.877 -55.085  1.00  0.00     0.012 A 
HETATM   15  C   UNL     1     -41.786  55.919 -55.654  1.00  0.00     0.001 A 
HETATM   16  C   UNL     1     -43.130  56.079 -55.331  1.00  0.00     0.000 A 
HETATM   17  C   UNL     1     -43.737  55.197 -54.440  1.00  0.00     0.001 A 
HETATM   18  C   UNL     1     -43.000  54.153 -53.874  1.00  0.00     0.012 A 
ENDBRANCH   8  13
ENDBRANCH   6   7
ENDBRANCH   5   6
ENDBRANCH   1   5
BRANCH   2  19
HETATM   19  N   UNL     1     -41.693  55.970 -49.752  1.00  0.00    -0.262 N 
HETATM   20  C   UNL     1     -42.887  55.757 -50.426  1.00  0.00     0.291 C 
HETATM   21  O   UNL     1     -43.535  54.718 -50.310  1.00  0.00    -0.264 OA
HETATM   22  H   UNL     1     -41.305  56.915 -49.736  1.00  0.00     0.190 HD
BRANCH  20  23
HETATM   23  C   UNL     1     -43.301  56.889 -51.264  1.00  0.00     0.158 A 
HETATM   24  N   UNL     1     -44.584  57.310 -51.298  1.00  0.00    -0.168 NA
HETATM   25  N   UNL     1     -44.559  58.344 -52.160  1.00  0.00    -0.277 N 
HETATM   26  H   UNL     1     -45.427  58.834 -52.348  1.00  0.00     0.189 HD
HETATM   27  C   UNL     1     -43.327  58.610 -52.692  1.00  0.00     0.063 A 
HETATM   28  C   UNL     1     -42.474  57.670 -52.125  1.00  0.00     0.028 A 
HETATM   29  C   UNL     1     -42.900  59.578 -53.606  1.00  0.00     0.032 A 
HETATM   30  C   UNL     1     -41.111  57.686 -52.485  1.00  0.00     0.016 A 
HETATM   31  C   UNL     1     -40.662  58.645 -53.401  1.00  0.00     0.001 A 
HETATM   32  C   UNL     1     -41.543  59.575 -53.951  1.00  0.00     0.002 A 
ENDBRANCH  20  23
ENDBRANCH   2  19
TORSDOF 6
ENDMDL
MODEL 2
REMARK VINA RESULT:      -8.4      1.786      2.341
REMARK  6 active torsions:
REMARK  status: ('A' for Active; 'I' for Inactive)
REMARK    1  A    between atoms: C_4  and  C_5 
REMARK    2  A    between atoms: C_6  and  O_7 
REMARK    3  A    between atoms: O_7  and  C_8 
REMARK    4  A    between atoms: C_8  and  C_9 
REMARK       I    between atoms: C_9  and  N_10 
REMARK    5  A    between atoms: N_10  and  N_11 
REMARK       I    between atoms: N_11  and  C_12 
REMARK    6  A    between atoms: C_12  and  C_13 
ROOT
HETATM    1  C   UNL     1     -41.112  54.480 -49.493  1.00  0.00     0.260 C 
HETATM    2  N   UNL     1     -40.845  55.805 -49.744  1.00  0.00    -0.265 N 
HETATM    3  O   UNL     1     -41.118  54.062 -48.334  1.00  0.00    -0.269 OA
HETATM    4  H   UNL     1     -40.815  56.400 -48.915  1.00  0.00     0.190 HD
ENDROOT
BRANCH   1   5
HETATM    5  C   UNL     1     -41.365  53.557 -50.684  1.00  0.00     0.280 C 
BRANCH   5   6
HETATM    6  O   UNL     1     -40.269  53.524 -51.597  1.00  0.00    -0.341 OA
BRANCH   6   7
HETATM    7  C   UNL     1     -40.131  52.322 -52.252  1.00  0.00     0.080 A 
HETATM    8  C   UNL     1     -40.500  52.247 -53.612  1.00  0.00     0.007 A 
HETATM    9  C   UNL     1     -40.322  51.015 -54.275  1.00  0.00     0.015 A 
HETATM   10  C   UNL     1     -39.778  49.907 -53.625  1.00  0.00     0.001 A 
HETATM   11  C   UNL     1     -39.387  50.010 -52.295  1.00  0.00     0.003 A 
HETATM   12  C   UNL     1     -39.555  51.214 -51.612  1.00  0.00     0.037 A 
BRANCH   8  13
HETATM   13  C   UNL     1     -41.068  53.388 -54.357  1.00  0.00    -0.023 A 
HETATM   14  C   UNL     1     -42.410  53.372 -54.775  1.00  0.00     0.012 A 
HETATM   15  C   UNL     1     -42.970  54.461 -55.446  1.00  0.00     0.001 A 
HETATM   16  C   UNL     1     -42.197  55.587 -55.714  1.00  0.00     0.000 A 
HETATM   17  C   UNL     1     -40.864  55.623 -55.310  1.00  0.00     0.001 A 
HETATM   18  C   UNL     1     -40.306  54.533 -54.635  1.00  0.00     0.012 A 
ENDBRANCH   8  13
ENDBRANCH   6   7
ENDBRANCH   5   6
ENDBRANCH   1   5
BRANCH   2  19
HETATM   19  N   UNL     1     -41.272  56.434 -50.919  1.00  0.00    -0.262 N 
HETATM   20  C   UNL     1     -41.263  57.821 -50.962  1.00  0.00     0.291 C 
HETATM   21  O   UNL     1     -41.024  58.511 -49.973  1.00  0.00    -0.264 OA
HETATM   22  H   UNL     1     -41.283  55.920 -51.801  1.00  0.00     0.190 HD
BRANCH  20  23
HETATM   23  C   UNL     1     -41.544  58.371 -52.294  1.00  0.00     0.158 A 
HETATM   24  N   UNL     1     -40.659  59.169 -52.929  1.00  0.00    -0.168 NA
HETATM   25  N   UNL     1     -41.267  59.458 -54.095  1.00  0.00    -0.277 N 
HETATM   26  H   UNL     1     -40.781  60.054 -54.756  1.00  0.00     0.189 HD
HETATM   27  C   UNL     1     -42.504  58.893 -54.245  1.00  0.00     0.063 A 
HETATM   28  C   UNL     1     -42.719  58.171 -53.077  1.00  0.00     0.028 A 
HETATM   29  C   UNL     1     -43.433  58.957 -55.288  1.00  0.00     0.032 A 
HETATM   30  C   UNL     1     -43.932  57.468 -52.929  1.00  0.00     0.016 A 
HETATM   31  C   UNL     1     -44.878  57.519 -53.959  1.00  0.00     0.001 A 
HETATM   32  C   UNL     1     -44.630  58.251 -55.120  1.00  0.00     0.002 A 
ENDBRANCH  20  23
ENDBRANCH   2  19
TORSDOF 6
ENDMDL
MODEL 3
REMARK VINA RESULT:      -8.0      2.188      4.023
REMARK  6 active torsions:
REMARK  status: ('A' for Active; 'I' for Inactive)
REMARK    1  A    between atoms: C_4  and  C_5 
REMARK    2  A    between atoms: C_6  and  O_7 
REMARK    3  A    between atoms: O_7  and  C_8 
REMARK    4  A    between atoms: C_8  and  C_9 
REMARK       I    between atoms: C_9  and  N_10 
REMARK    5  A    between atoms: N_10  and  N_11 
REMARK       I    between atoms: N_11  and  C_12 
REMARK    6  A    between atoms: C_12  and  C_13 
ROOT
HETATM    1  C   UNL     1     -43.097  54.254 -55.072  1.00  0.00     0.260 C 
HETATM    2  N   UNL     1     -43.863  54.761 -54.049  1.00  0.00    -0.265 N 
HETATM    3  O   UNL     1     -43.613  53.537 -55.931  1.00  0.00    -0.269 OA
HETATM    4  H   UNL     1     -44.869  54.625 -54.160  1.00  0.00     0.190 HD
ENDROOT
BRANCH   1   5
HETATM    5  C   UNL     1     -41.605  54.581 -55.085  1.00  0.00     0.280 C 
BRANCH   5   6
HETATM    6  O   UNL     1     -40.985  54.376 -53.817  1.00  0.00    -0.341 OA
BRANCH   6   7
HETATM    7  C   UNL     1     -40.509  53.098 -53.633  1.00  0.00     0.080 A 
HETATM    8  C   UNL     1     -40.363  52.615 -52.316  1.00  0.00     0.007 A 
HETATM    9  C   UNL     1     -39.902  51.292 -52.148  1.00  0.00     0.015 A 
HETATM   10  C   UNL     1     -39.622  50.471 -53.241  1.00  0.00     0.001 A 
HETATM   11  C   UNL     1     -39.807  50.953 -54.531  1.00  0.00     0.003 A 
HETATM   12  C   UNL     1     -40.256  52.258 -54.728  1.00  0.00     0.037 A 
BRANCH   8  13
HETATM   13  C   UNL     1     -40.655  53.430 -51.121  1.00  0.00    -0.023 A 
HETATM   14  C   UNL     1     -39.629  53.785 -50.227  1.00  0.00     0.012 A 
HETATM   15  C   UNL     1     -39.886  54.588 -49.114  1.00  0.00     0.001 A 
HETATM   16  C   UNL     1     -41.177  55.050 -48.872  1.00  0.00     0.000 A 
HETATM   17  C   UNL     1     -42.209  54.709 -49.743  1.00  0.00     0.001 A 
HETATM   18  C   UNL     1     -41.949  53.908 -50.859  1.00  0.00     0.012 A 
ENDBRANCH   8  13
ENDBRANCH   6   7
ENDBRANCH   5   6
ENDBRANCH   1   5
BRANCH   2  19
HETATM   19  N   UNL     1     -43.488  55.912 -53.347  1.00  0.00    -0.262 N 
HETATM   20  C   UNL     1     -44.182  57.088 -53.594  1.00  0.00     0.291 C 
HETATM   21  O   UNL     1     -45.015  57.186 -54.493  1.00  0.00    -0.264 OA
HETATM   22  H   UNL     1     -42.960  55.832 -52.477  1.00  0.00     0.190 HD
BRANCH  20  23
HETATM   23  C   UNL     1     -43.840  58.178 -52.674  1.00  0.00     0.158 A 
HETATM   24  N   UNL     1     -44.696  59.196 -52.436  1.00  0.00    -0.168 NA
HETATM   25  N   UNL     1     -44.034  59.972 -51.557  1.00  0.00    -0.277 N 
HETATM   26  H   UNL     1     -44.490  60.814 -51.221  1.00  0.00     0.189 HD
HETATM   27  C   UNL     1     -42.791  59.514 -51.219  1.00  0.00     0.063 A 
HETATM   28  C   UNL     1     -42.629  58.334 -51.936  1.00  0.00     0.028 A 
HETATM   29  C   UNL     1     -41.814  60.027 -50.360  1.00  0.00     0.032 A 
HETATM   30  C   UNL     1     -41.424  57.617 -51.798  1.00  0.00     0.016 A 
HETATM   31  C   UNL     1     -40.430  58.113 -50.946  1.00  0.00     0.001 A 
HETATM   32  C   UNL     1     -40.625  59.299 -50.238  1.00  0.00     0.002 A 
ENDBRANCH  20  23
ENDBRANCH   2  19
TORSDOF 6
ENDMDL
MODEL 4
REMARK VINA RESULT:      -8.0      1.632      2.087
REMARK  6 active torsions:
REMARK  status: ('A' for Active; 'I' for Inactive)
REMARK    1  A    between atoms: C_4  and  C_5 
REMARK    2  A    between atoms: C_6  and  O_7 
REMARK    3  A    between atoms: O_7  and  C_8 
REMARK    4  A    between atoms: C_8  and  C_9 
REMARK       I    between atoms: C_9  and  N_10 
REMARK    5  A    between atoms: N_10  and  N_11 
REMARK       I    between atoms: N_11  and  C_12 
REMARK    6  A    between atoms: C_12  and  C_13 
ROOT
HETATM    1  C   UNL     1     -40.849  54.831 -49.139  1.00  0.00     0.260 C 
HETATM    2  N   UNL     1     -41.474  56.049 -49.261  1.00  0.00    -0.265 N 
HETATM    3  O   UNL     1     -40.974  54.175 -48.103  1.00  0.00    -0.269 OA
HETATM    4  H   UNL     1     -42.140  56.265 -48.518  1.00  0.00     0.190 HD
ENDROOT
BRANCH   1   5
HETATM    5  C   UNL     1     -39.984  54.344 -50.301  1.00  0.00     0.280 C 
BRANCH   5   6
HETATM    6  O   UNL     1     -40.708  54.261 -51.528  1.00  0.00    -0.341 OA
BRANCH   6   7
HETATM    7  C   UNL     1     -40.453  53.114 -52.243  1.00  0.00     0.080 A 
HETATM    8  C   UNL     1     -40.962  53.010 -53.555  1.00  0.00     0.007 A 
HETATM    9  C   UNL     1     -40.666  51.840 -54.286  1.00  0.00     0.015 A 
HETATM   10  C   UNL     1     -39.875  50.824 -53.748  1.00  0.00     0.001 A 
HETATM   11  C   UNL     1     -39.353  50.961 -52.467  1.00  0.00     0.003 A 
HETATM   12  C   UNL     1     -39.633  52.104 -51.720  1.00  0.00     0.037 A 
BRANCH   8  13
HETATM   13  C   UNL     1     -41.792  54.057 -54.183  1.00  0.00    -0.023 A 
HETATM   14  C   UNL     1     -41.391  54.663 -55.387  1.00  0.00     0.012 A 
HETATM   15  C   UNL     1     -42.186  55.626 -56.011  1.00  0.00     0.001 A 
HETATM   16  C   UNL     1     -43.399  56.003 -55.441  1.00  0.00     0.000 A 
HETATM   17  C   UNL     1     -43.815  55.417 -54.248  1.00  0.00     0.001 A 
HETATM   18  C   UNL     1     -43.019  54.450 -53.627  1.00  0.00     0.012 A 
ENDBRANCH   8  13
ENDBRANCH   6   7
ENDBRANCH   5   6
ENDBRANCH   1   5
BRANCH   2  19
HETATM   19  N   UNL     1     -41.768  56.605 -50.511  1.00  0.00    -0.262 N 
HETATM   20  C   UNL     1     -41.409  57.925 -50.744  1.00  0.00     0.291 C 
HETATM   21  O   UNL     1     -40.968  58.656 -49.858  1.00  0.00    -0.264 OA
HETATM   22  H   UNL     1     -41.940  55.999 -51.314  1.00  0.00     0.190 HD
BRANCH  20  23
HETATM   23  C   UNL     1     -41.588  58.347 -52.138  1.00  0.00     0.158 A 
HETATM   24  N   UNL     1     -40.551  58.379 -53.004  1.00  0.00    -0.168 NA
HETATM   25  N   UNL     1     -41.107  58.806 -54.153  1.00  0.00    -0.277 N 
HETATM   26  H   UNL     1     -40.511  58.907 -54.968  1.00  0.00     0.189 HD
HETATM   27  C   UNL     1     -42.449  59.060 -54.075  1.00  0.00     0.063 A 
HETATM   28  C   UNL     1     -42.799  58.769 -52.761  1.00  0.00     0.028 A 
HETATM   29  C   UNL     1     -43.366  59.512 -55.029  1.00  0.00     0.032 A 
HETATM   30  C   UNL     1     -44.141  58.938 -52.364  1.00  0.00     0.016 A 
HETATM   31  C   UNL     1     -45.076  59.393 -53.301  1.00  0.00     0.001 A 
HETATM   32  C   UNL     1     -44.692  59.674 -54.612  1.00  0.00     0.002 A 
ENDBRANCH  20  23
ENDBRANCH   2  19
TORSDOF 6
ENDMDL
MODEL 5
REMARK VINA RESULT:      -7.9      2.259      4.695
REMARK  6 active torsions:
REMARK  status: ('A' for Active; 'I' for Inactive)
REMARK    1  A    between atoms: C_4  and  C_5 
REMARK    2  A    between atoms: C_6  and  O_7 
REMARK    3  A    between atoms: O_7  and  C_8 
REMARK    4  A    between atoms: C_8  and  C_9 
REMARK       I    between atoms: C_9  and  N_10 
REMARK    5  A    between atoms: N_10  and  N_11 
REMARK       I    between atoms: N_11  and  C_12 
REMARK    6  A    between atoms: C_12  and  C_13 
ROOT
HETATM    1  C   UNL     1     -43.392  54.424 -54.854  1.00  0.00     0.260 C 
HETATM    2  N   UNL     1     -44.431  55.185 -54.375  1.00  0.00    -0.265 N 
HETATM    3  O   UNL     1     -43.508  53.830 -55.928  1.00  0.00    -0.269 OA
HETATM    4  H   UNL     1     -45.196  55.330 -55.036  1.00  0.00     0.190 HD
ENDROOT
BRANCH   1   5
HETATM    5  C   UNL     1     -42.126  54.317 -54.007  1.00  0.00     0.280 C 
BRANCH   5   6
HETATM    6  O   UNL     1     -42.320  53.549 -52.821  1.00  0.00    -0.341 OA
BRANCH   6   7
HETATM    7  C   UNL     1     -41.588  53.997 -51.746  1.00  0.00     0.080 A 
HETATM    8  C   UNL     1     -40.478  53.236 -51.321  1.00  0.00     0.007 A 
HETATM    9  C   UNL     1     -39.720  53.726 -50.236  1.00  0.00     0.015 A 
HETATM   10  C   UNL     1     -40.034  54.935 -49.613  1.00  0.00     0.001 A 
HETATM   11  C   UNL     1     -41.109  55.687 -50.069  1.00  0.00     0.003 A 
HETATM   12  C   UNL     1     -41.879  55.226 -51.136  1.00  0.00     0.037 A 
BRANCH   8  13
HETATM   13  C   UNL     1     -40.088  51.958 -51.948  1.00  0.00    -0.023 A 
HETATM   14  C   UNL     1     -39.950  50.793 -51.173  1.00  0.00     0.012 A 
HETATM   15  C   UNL     1     -39.620  49.570 -51.761  1.00  0.00     0.001 A 
HETATM   16  C   UNL     1     -39.420  49.489 -53.136  1.00  0.00     0.000 A 
HETATM   17  C   UNL     1     -39.550  50.632 -53.923  1.00  0.00     0.001 A 
HETATM   18  C   UNL     1     -39.884  51.854 -53.333  1.00  0.00     0.012 A 
ENDBRANCH   8  13
ENDBRANCH   6   7
ENDBRANCH   5   6
ENDBRANCH   1   5
BRANCH   2  19
HETATM   19  N   UNL     1     -44.224  56.224 -53.461  1.00  0.00    -0.262 N 
HETATM   20  C   UNL     1     -44.293  57.530 -53.924  1.00  0.00     0.291 C 
HETATM   21  O   UNL     1     -44.396  57.803 -55.119  1.00  0.00    -0.264 OA
HETATM   22  H   UNL     1     -44.336  56.056 -52.460  1.00  0.00     0.190 HD
BRANCH  20  23
HETATM   23  C   UNL     1     -44.253  58.537 -52.857  1.00  0.00     0.158 A 
HETATM   24  N   UNL     1     -45.369  59.178 -52.448  1.00  0.00    -0.168 NA
HETATM   25  N   UNL     1     -44.930  60.000 -51.477  1.00  0.00    -0.277 N 
HETATM   26  H   UNL     1     -45.605  60.593 -51.007  1.00  0.00     0.189 HD
HETATM   27  C   UNL     1     -43.584  59.930 -51.240  1.00  0.00     0.063 A 
HETATM   28  C   UNL     1     -43.106  58.977 -52.132  1.00  0.00     0.028 A 
HETATM   29  C   UNL     1     -42.764  60.612 -50.336  1.00  0.00     0.032 A 
HETATM   30  C   UNL     1     -41.728  58.680 -52.132  1.00  0.00     0.016 A 
HETATM   31  C   UNL     1     -40.887  59.352 -51.237  1.00  0.00     0.001 A 
HETATM   32  C   UNL     1     -41.399  60.301 -50.354  1.00  0.00     0.002 A 
ENDBRANCH  20  23
ENDBRANCH   2  19
TORSDOF 6
ENDMDL
MODEL 6
REMARK VINA RESULT:      -7.7      1.940      4.058
REMARK  6 active torsions:
REMARK  status: ('A' for Active; 'I' for Inactive)
REMARK    1  A    between atoms: C_4  and  C_5 
REMARK    2  A    between atoms: C_6  and  O_7 
REMARK    3  A    between atoms: O_7  and  C_8 
REMARK    4  A    between atoms: C_8  and  C_9 
REMARK       I    between atoms: C_9  and  N_10 
REMARK    5  A    between atoms: N_10  and  N_11 
REMARK       I    between atoms: N_11  and  C_12 
REMARK    6  A    between atoms: C_12  and  C_13 
ROOT
HETATM    1  C   UNL     1     -41.905  54.987 -49.693  1.00  0.00     0.260 C 
HETATM    2  N   UNL     1     -41.427  56.276 -49.706  1.00  0.00    -0.265 N 
HETATM    3  O   UNL     1     -41.582  54.220 -48.784  1.00  0.00    -0.269 OA
HETATM    4  H   UNL     1     -40.941  56.561 -48.855  1.00  0.00     0.190 HD
ENDROOT
BRANCH   1   5
HETATM    5  C   UNL     1     -42.809  54.541 -50.840  1.00  0.00     0.280 C 
BRANCH   5   6
HETATM    6  O   UNL     1     -42.159  53.638 -51.733  1.00  0.00    -0.341 OA
BRANCH   6   7
HETATM    7  C   UNL     1     -41.632  54.245 -52.849  1.00  0.00     0.080 A 
HETATM    8  C   UNL     1     -40.727  53.518 -53.650  1.00  0.00     0.007 A 
HETATM    9  C   UNL     1     -40.220  54.146 -54.807  1.00  0.00     0.015 A 
HETATM   10  C   UNL     1     -40.614  55.434 -55.171  1.00  0.00     0.001 A 
HETATM   11  C   UNL     1     -41.534  56.121 -54.389  1.00  0.00     0.003 A 
HETATM   12  C   UNL     1     -42.049  55.528 -53.237  1.00  0.00     0.037 A 
BRANCH   8  13
HETATM   13  C   UNL     1     -40.284  52.148 -53.325  1.00  0.00    -0.023 A 
HETATM   14  C   UNL     1     -39.785  51.842 -52.046  1.00  0.00     0.012 A 
HETATM   15  C   UNL     1     -39.399  50.542 -51.714  1.00  0.00     0.001 A 
HETATM   16  C   UNL     1     -39.502  49.522 -52.656  1.00  0.00     0.000 A 
HETATM   17  C   UNL     1     -39.992  49.804 -53.929  1.00  0.00     0.001 A 
HETATM   18  C   UNL     1     -40.381  51.105 -54.259  1.00  0.00     0.012 A 
ENDBRANCH   8  13
ENDBRANCH   6   7
ENDBRANCH   5   6
ENDBRANCH   1   5
BRANCH   2  19
HETATM   19  N   UNL     1     -42.090  57.302 -50.390  1.00  0.00    -0.262 N 
HETATM   20  C   UNL     1     -41.327  58.302 -50.974  1.00  0.00     0.291 C 
HETATM   21  O   UNL     1     -40.112  58.393 -50.800  1.00  0.00    -0.264 OA
HETATM   22  H   UNL     1     -43.045  57.162 -50.722  1.00  0.00     0.190 HD
BRANCH  20  23
HETATM   23  C   UNL     1     -42.101  59.215 -51.823  1.00  0.00     0.158 A 
HETATM   24  N   UNL     1     -41.510  59.955 -52.786  1.00  0.00    -0.168 NA
HETATM   25  N   UNL     1     -42.531  60.644 -53.332  1.00  0.00    -0.277 N 
HETATM   26  H   UNL     1     -42.328  61.278 -54.097  1.00  0.00     0.189 HD
HETATM   27  C   UNL     1     -43.751  60.394 -52.766  1.00  0.00     0.063 A 
HETATM   28  C   UNL     1     -43.505  59.458 -51.768  1.00  0.00     0.028 A 
HETATM   29  C   UNL     1     -45.024  60.903 -53.042  1.00  0.00     0.032 A 
HETATM   30  C   UNL     1     -44.587  58.997 -50.990  1.00  0.00     0.016 A 
HETATM   31  C   UNL     1     -45.870  59.495 -51.247  1.00  0.00     0.001 A 
HETATM   32  C   UNL     1     -46.083  60.432 -52.257  1.00  0.00     0.002 A 
ENDBRANCH  20  23
ENDBRANCH   2  19
TORSDOF 6
ENDMDL
MODEL 7
REMARK VINA RESULT:      -7.5      2.726      4.833
REMARK  6 active torsions:
REMARK  status: ('A' for Active; 'I' for Inactive)
REMARK    1  A    between atoms: C_4  and  C_5 
REMARK    2  A    between atoms: C_6  and  O_7 
REMARK    3  A    between atoms: O_7  and  C_8 
REMARK    4  A    between atoms: C_8  and  C_9 
REMARK       I    between atoms: C_9  and  N_10 
REMARK    5  A    between atoms: N_10  and  N_11 
REMARK       I    between atoms: N_11  and  C_12 
REMARK    6  A    between atoms: C_12  and  C_13 
ROOT
HETATM    1  C   UNL     1     -44.125  57.160 -51.405  1.00  0.00     0.260 C 
HETATM    2  N   UNL     1     -44.633  57.376 -52.664  1.00  0.00    -0.265 N 
HETATM    3  O   UNL     1     -44.781  56.528 -50.576  1.00  0.00    -0.269 OA
HETATM    4  H   UNL     1     -45.484  56.854 -52.877  1.00  0.00     0.190 HD
ENDROOT
BRANCH   1   5
HETATM    5  C   UNL     1     -42.755  57.748 -51.070  1.00  0.00     0.280 C 
BRANCH   5   6
HETATM    6  O   UNL     1     -41.679  56.971 -51.594  1.00  0.00    -0.341 OA
BRANCH   6   7
HETATM    7  C   UNL     1     -41.430  55.820 -50.884  1.00  0.00     0.080 A 
HETATM    8  C   UNL     1     -41.341  54.599 -51.586  1.00  0.00     0.007 A 
HETATM    9  C   UNL     1     -41.054  53.434 -50.845  1.00  0.00     0.015 A 
HETATM   10  C   UNL     1     -40.839  53.479 -49.467  1.00  0.00     0.001 A 
HETATM   11  C   UNL     1     -40.896  54.695 -48.799  1.00  0.00     0.003 A 
HETATM   12  C   UNL     1     -41.182  55.864 -49.504  1.00  0.00     0.037 A 
BRANCH   8  13
HETATM   13  C   UNL     1     -41.545  54.491 -53.043  1.00  0.00    -0.023 A 
HETATM   14  C   UNL     1     -42.834  54.308 -53.574  1.00  0.00     0.012 A 
HETATM   15  C   UNL     1     -43.045  54.243 -54.953  1.00  0.00     0.001 A 
HETATM   16  C   UNL     1     -41.969  54.358 -55.828  1.00  0.00     0.000 A 
HETATM   17  C   UNL     1     -40.683  54.537 -55.324  1.00  0.00     0.001 A 
HETATM   18  C   UNL     1     -40.474  54.606 -53.943  1.00  0.00     0.012 A 
ENDBRANCH   8  13
ENDBRANCH   6   7
ENDBRANCH   5   6
ENDBRANCH   1   5
BRANCH   2  19
HETATM   19  N   UNL     1     -43.804  57.645 -53.759  1.00  0.00    -0.262 N 
HETATM   20  C   UNL     1     -44.378  57.697 -55.020  1.00  0.00     0.291 C 
HETATM   21  O   UNL     1     -45.550  57.387 -55.226  1.00  0.00    -0.264 OA
HETATM   22  H   UNL     1     -42.898  58.094 -53.617  1.00  0.00     0.190 HD
BRANCH  20  23
HETATM   23  C   UNL     1     -43.463  58.171 -56.065  1.00  0.00     0.158 A 
HETATM   24  N   UNL     1     -42.725  59.292 -55.902  1.00  0.00    -0.168 NA
HETATM   25  N   UNL     1     -42.030  59.387 -57.051  1.00  0.00    -0.277 N 
HETATM   26  H   UNL     1     -41.390  60.166 -57.162  1.00  0.00     0.189 HD
HETATM   27  C   UNL     1     -42.285  58.391 -57.953  1.00  0.00     0.063 A 
HETATM   28  C   UNL     1     -43.224  57.573 -57.337  1.00  0.00     0.028 A 
HETATM   29  C   UNL     1     -41.778  58.146 -59.233  1.00  0.00     0.032 A 
HETATM   30  C   UNL     1     -43.696  56.440 -58.032  1.00  0.00     0.016 A 
HETATM   31  C   UNL     1     -43.205  56.177 -59.316  1.00  0.00     0.001 A 
HETATM   32  C   UNL     1     -42.261  57.017 -59.905  1.00  0.00     0.002 A 
ENDBRANCH  20  23
ENDBRANCH   2  19
TORSDOF 6
ENDMDL
MODEL 8
REMARK VINA RESULT:      -7.5      3.836      7.243
REMARK  6 active torsions:
REMARK  status: ('A' for Active; 'I' for Inactive)
REMARK    1  A    between atoms: C_4  and  C_5 
REMARK    2  A    between atoms: C_6  and  O_7 
REMARK    3  A    between atoms: O_7  and  C_8 
REMARK    4  A    between atoms: C_8  and  C_9 
REMARK       I    between atoms: C_9  and  N_10 
REMARK    5  A    between atoms: N_10  and  N_11 
REMARK       I    between atoms: N_11  and  C_12 
REMARK    6  A    between atoms: C_12  and  C_13 
ROOT
HETATM    1  C   UNL     1     -44.752  57.663 -55.361  1.00  0.00     0.260 C 
HETATM    2  N   UNL     1     -45.104  56.508 -54.703  1.00  0.00    -0.265 N 
HETATM    3  O   UNL     1     -45.625  58.389 -55.840  1.00  0.00    -0.269 OA
HETATM    4  H   UNL     1     -46.104  56.407 -54.523  1.00  0.00     0.190 HD
ENDROOT
BRANCH   1   5
HETATM    5  C   UNL     1     -43.266  57.988 -55.501  1.00  0.00     0.280 C 
BRANCH   5   6
HETATM    6  O   UNL     1     -42.712  57.516 -56.728  1.00  0.00    -0.341 OA
BRANCH   6   7
HETATM    7  C   UNL     1     -42.495  58.509 -57.655  1.00  0.00     0.080 A 
HETATM    8  C   UNL     1     -43.082  58.381 -58.932  1.00  0.00     0.007 A 
HETATM    9  C   UNL     1     -42.873  59.423 -59.860  1.00  0.00     0.015 A 
HETATM   10  C   UNL     1     -42.134  60.559 -59.528  1.00  0.00     0.001 A 
HETATM   11  C   UNL     1     -41.595  60.684 -58.254  1.00  0.00     0.003 A 
HETATM   12  C   UNL     1     -41.780  59.668 -57.317  1.00  0.00     0.037 A 
BRANCH   8  13
HETATM   13  C   UNL     1     -43.884  57.210 -59.337  1.00  0.00    -0.023 A 
HETATM   14  C   UNL     1     -45.275  57.322 -59.512  1.00  0.00     0.012 A 
HETATM   15  C   UNL     1     -46.039  56.231 -59.932  1.00  0.00     0.001 A 
HETATM   16  C   UNL     1     -45.427  55.006 -60.183  1.00  0.00     0.000 A 
HETATM   17  C   UNL     1     -44.051  54.873 -60.014  1.00  0.00     0.001 A 
HETATM   18  C   UNL     1     -43.286  55.967 -59.597  1.00  0.00     0.012 A 
ENDBRANCH   8  13
ENDBRANCH   6   7
ENDBRANCH   5   6
ENDBRANCH   1   5
BRANCH   2  19
HETATM   19  N   UNL     1     -44.261  55.910 -53.760  1.00  0.00    -0.262 N 
HETATM   20  C   UNL     1     -43.430  54.882 -54.181  1.00  0.00     0.291 C 
HETATM   21  O   UNL     1     -43.503  54.392 -55.308  1.00  0.00    -0.264 OA
HETATM   22  H   UNL     1     -44.027  56.401 -52.897  1.00  0.00     0.190 HD
BRANCH  20  23
HETATM   23  C   UNL     1     -42.457  54.458 -53.168  1.00  0.00     0.158 A 
HETATM   24  N   UNL     1     -42.370  55.076 -51.970  1.00  0.00    -0.168 NA
HETATM   25  N   UNL     1     -41.385  54.411 -51.337  1.00  0.00    -0.277 N 
HETATM   26  H   UNL     1     -41.137  54.700 -50.397  1.00  0.00     0.189 HD
HETATM   27  C   UNL     1     -40.825  53.399 -52.066  1.00  0.00     0.063 A 
HETATM   28  C   UNL     1     -41.505  53.401 -53.278  1.00  0.00     0.028 A 
HETATM   29  C   UNL     1     -39.796  52.499 -51.768  1.00  0.00     0.032 A 
HETATM   30  C   UNL     1     -41.145  52.455 -54.259  1.00  0.00     0.016 A 
HETATM   31  C   UNL     1     -40.116  51.547 -53.984  1.00  0.00     0.001 A 
HETATM   32  C   UNL     1     -39.455  51.570 -52.757  1.00  0.00     0.002 A 
ENDBRANCH  20  23
ENDBRANCH   2  19
TORSDOF 6
ENDMDL
MODEL 9
REMARK VINA RESULT:      -7.4      4.367      6.560
REMARK  6 active torsions:
REMARK  status: ('A' for Active; 'I' for Inactive)
REMARK    1  A    between atoms: C_4  and  C_5 
REMARK    2  A    between atoms: C_6  and  O_7 
REMARK    3  A    between atoms: O_7  and  C_8 
REMARK    4  A    between atoms: C_8  and  C_9 
REMARK       I    between atoms: C_9  and  N_10 
REMARK    5  A    between atoms: N_10  and  N_11 
REMARK       I    between atoms: N_11  and  C_12 
REMARK    6  A    between atoms: C_12  and  C_13 
ROOT
HETATM    1  C   UNL     1     -41.507  55.787 -55.083  1.00  0.00     0.260 C 
HETATM    2  N   UNL     1     -41.789  56.442 -56.259  1.00  0.00    -0.265 N 
HETATM    3  O   UNL     1     -40.761  56.307 -54.252  1.00  0.00    -0.269 OA
HETATM    4  H   UNL     1     -41.468  57.411 -56.296  1.00  0.00     0.190 HD
ENDROOT
BRANCH   1   5
HETATM    5  C   UNL     1     -42.117  54.403 -54.865  1.00  0.00     0.280 C 
BRANCH   5   6
HETATM    6  O   UNL     1     -41.940  53.928 -53.531  1.00  0.00    -0.341 OA
BRANCH   6   7
HETATM    7  C   UNL     1     -41.066  52.871 -53.431  1.00  0.00     0.080 A 
HETATM    8  C   UNL     1     -40.422  52.642 -52.197  1.00  0.00     0.007 A 
HETATM    9  C   UNL     1     -39.552  51.534 -52.104  1.00  0.00     0.015 A 
HETATM   10  C   UNL     1     -39.349  50.673 -53.183  1.00  0.00     0.001 A 
HETATM   11  C   UNL     1     -40.020  50.895 -54.379  1.00  0.00     0.003 A 
HETATM   12  C   UNL     1     -40.882  51.983 -54.502  1.00  0.00     0.037 A 
BRANCH   8  13
HETATM   13  C   UNL     1     -40.608  53.509 -51.018  1.00  0.00    -0.023 A 
HETATM   14  C   UNL     1     -41.021  54.845 -51.169  1.00  0.00     0.012 A 
HETATM   15  C   UNL     1     -41.238  55.664 -50.059  1.00  0.00     0.001 A 
HETATM   16  C   UNL     1     -41.043  55.163 -48.775  1.00  0.00     0.000 A 
HETATM   17  C   UNL     1     -40.632  53.843 -48.602  1.00  0.00     0.001 A 
HETATM   18  C   UNL     1     -40.419  53.024 -49.714  1.00  0.00     0.012 A 
ENDBRANCH   8  13
ENDBRANCH   6   7
ENDBRANCH   5   6
ENDBRANCH   1   5
BRANCH   2  19
HETATM   19  N   UNL     1     -42.943  56.164 -57.000  1.00  0.00    -0.262 N 
HETATM   20  C   UNL     1     -43.023  56.648 -58.297  1.00  0.00     0.291 C 
HETATM   21  O   UNL     1     -42.186  57.417 -58.768  1.00  0.00    -0.264 OA
HETATM   22  H   UNL     1     -43.549  55.387 -56.732  1.00  0.00     0.190 HD
BRANCH  20  23
HETATM   23  C   UNL     1     -44.179  56.141 -59.046  1.00  0.00     0.158 A 
HETATM   24  N   UNL     1     -44.366  54.818 -59.245  1.00  0.00    -0.168 NA
HETATM   25  N   UNL     1     -45.509  54.759 -59.954  1.00  0.00    -0.277 N 
HETATM   26  H   UNL     1     -45.861  53.847 -60.224  1.00  0.00     0.189 HD
HETATM   27  C   UNL     1     -46.068  55.976 -60.231  1.00  0.00     0.063 A 
HETATM   28  C   UNL     1     -45.218  56.910 -59.649  1.00  0.00     0.028 A 
HETATM   29  C   UNL     1     -47.226  56.328 -60.931  1.00  0.00     0.032 A 
HETATM   30  C   UNL     1     -45.531  58.279 -59.768  1.00  0.00     0.016 A 
HETATM   31  C   UNL     1     -46.684  58.655 -60.467  1.00  0.00     0.001 A 
HETATM   32  C   UNL     1     -47.517  57.693 -61.038  1.00  0.00     0.002 A 
ENDBRANCH  20  23
ENDBRANCH   2  19
TORSDOF 6
ENDMDL
MODEL 10
REMARK VINA RESULT:      -7.4      2.108      6.288
REMARK  6 active torsions:
REMARK  status: ('A' for Active; 'I' for Inactive)
REMARK    1  A    between atoms: C_4  and  C_5 
REMARK    2  A    between atoms: C_6  and  O_7 
REMARK    3  A    between atoms: O_7  and  C_8 
REMARK    4  A    between atoms: C_8  and  C_9 
REMARK       I    between atoms: C_9  and  N_10 
REMARK    5  A    between atoms: N_10  and  N_11 
REMARK       I    between atoms: N_11  and  C_12 
REMARK    6  A    between atoms: C_12  and  C_13 
ROOT
HETATM    1  C   UNL     1     -44.638  57.283 -51.481  1.00  0.00     0.260 C 
HETATM    2  N   UNL     1     -44.279  56.260 -50.636  1.00  0.00    -0.265 N 
HETATM    3  O   UNL     1     -45.058  58.345 -51.019  1.00  0.00    -0.269 OA
HETATM    4  H   UNL     1     -44.245  56.514 -49.647  1.00  0.00     0.190 HD
ENDROOT
BRANCH   1   5
HETATM    5  C   UNL     1     -44.528  57.046 -52.986  1.00  0.00     0.280 C 
BRANCH   5   6
HETATM    6  O   UNL     1     -43.175  57.000 -53.439  1.00  0.00    -0.341 OA
BRANCH   6   7
HETATM    7  C   UNL     1     -42.902  57.884 -54.456  1.00  0.00     0.080 A 
HETATM    8  C   UNL     1     -42.076  58.996 -54.181  1.00  0.00     0.007 A 
HETATM    9  C   UNL     1     -41.781  59.875 -55.244  1.00  0.00     0.015 A 
HETATM   10  C   UNL     1     -42.263  59.649 -56.534  1.00  0.00     0.001 A 
HETATM   11  C   UNL     1     -43.044  58.530 -56.793  1.00  0.00     0.003 A 
HETATM   12  C   UNL     1     -43.356  57.646 -55.762  1.00  0.00     0.037 A 
BRANCH   8  13
HETATM   13  C   UNL     1     -41.527  59.280 -52.842  1.00  0.00    -0.023 A 
HETATM   14  C   UNL     1     -42.254  60.052 -51.919  1.00  0.00     0.012 A 
HETATM   15  C   UNL     1     -41.762  60.296 -50.634  1.00  0.00     0.001 A 
HETATM   16  C   UNL     1     -40.531  59.772 -50.249  1.00  0.00     0.000 A 
HETATM   17  C   UNL     1     -39.793  59.005 -51.149  1.00  0.00     0.001 A 
HETATM   18  C   UNL     1     -40.289  58.760 -52.432  1.00  0.00     0.012 A 
ENDBRANCH   8  13
ENDBRANCH   6   7
ENDBRANCH   5   6
ENDBRANCH   1   5
BRANCH   2  19
HETATM   19  N   UNL     1     -43.385  55.258 -51.028  1.00  0.00    -0.262 N 
HETATM   20  C   UNL     1     -42.083  55.316 -50.554  1.00  0.00     0.291 C 
HETATM   21  O   UNL     1     -41.654  56.278 -49.918  1.00  0.00    -0.264 OA
HETATM   22  H   UNL     1     -43.737  54.364 -51.374  1.00  0.00     0.190 HD
BRANCH  20  23
HETATM   23  C   UNL     1     -41.287  54.123 -50.867  1.00  0.00     0.158 A 
HETATM   24  N   UNL     1     -40.755  53.355 -49.892  1.00  0.00    -0.168 NA
HETATM   25  N   UNL     1     -40.115  52.380 -50.566  1.00  0.00    -0.277 N 
HETATM   26  H   UNL     1     -39.631  51.665 -50.034  1.00  0.00     0.189 HD
HETATM   27  C   UNL     1     -40.199  52.483 -51.927  1.00  0.00     0.063 A 
HETATM   28  C   UNL     1     -40.963  53.620 -52.161  1.00  0.00     0.028 A 
HETATM   29  C   UNL     1     -39.677  51.687 -52.952  1.00  0.00     0.032 A 
HETATM   30  C   UNL     1     -41.227  53.997 -53.494  1.00  0.00     0.016 A 
HETATM   31  C   UNL     1     -40.713  53.218 -54.536  1.00  0.00     0.001 A 
HETATM   32  C   UNL     1     -39.951  52.081 -54.267  1.00  0.00     0.002 A 
ENDBRANCH  20  23
ENDBRANCH   2  19
TORSDOF 6
ENDMDL
