MODEL 1
REMARK VINA RESULT:      -9.6      0.000      0.000
REMARK  6 active torsions:
REMARK  status: ('A' for Active; 'I' for Inactive)
REMARK    1  A    between atoms: N_9  and  C_10 
REMARK    2  A    between atoms: C_10  and  C_11 
REMARK       I    between atoms: C_11  and  N_12 
REMARK    3  A    between atoms: N_12  and  C_13 
REMARK    4  A    between atoms: C_14  and  C_15 
REMARK       I    between atoms: C_15  and  N_16 
REMARK    5  A    between atoms: N_16  and  C_17 
REMARK    6  A    between atoms: C_17  and  C_18 
ROOT
HETATM    1  C   UNL     1     -43.887  58.414 -53.921  1.00  0.00     0.240 C 
HETATM    2  N   UNL     1     -42.770  58.026 -54.642  1.00  0.00    -0.325 N 
HETATM    3  O   UNL     1     -45.026  58.485 -54.379  1.00  0.00    -0.271 OA
HETATM    4  H   UNL     1     -42.050  57.577 -54.086  1.00  0.00     0.169 HD
ENDROOT
BRANCH   1   5
HETATM    5  C   UNL     1     -43.574  58.676 -52.445  1.00  0.00     0.240 C 
BRANCH   5   6
HETATM    6  N   UNL     1     -43.092  57.458 -51.850  1.00  0.00    -0.259 N 
HETATM    7  C   UNL     1     -43.900  56.613 -51.158  1.00  0.00     0.326 C 
HETATM    8  N   UNL     1     -43.175  55.505 -50.812  1.00  0.00    -0.320 N 
HETATM    9  O   UNL     1     -45.069  56.808 -50.871  1.00  0.00    -0.247 OA
HETATM   10  C   UNL     1     -41.765  55.651 -51.102  1.00  0.00     0.144 C 
HETATM   11  H   UNL     1     -43.607  54.714 -50.357  1.00  0.00     0.165 HD
HETATM   12  C   UNL     1     -41.231  54.459 -51.874  1.00  0.00    -0.014 A 
HETATM   13  C   UNL     1     -41.812  56.979 -51.898  1.00  0.00     0.261 C 
HETATM   14  C   UNL     1     -40.995  55.906 -49.793  1.00  0.00     0.047 C 
HETATM   15  C   UNL     1     -40.459  53.471 -51.223  1.00  0.00    -0.049 A 
HETATM   16  C   UNL     1     -41.516  54.298 -53.242  1.00  0.00     0.011 A 
HETATM   17  C   UNL     1     -39.959  52.383 -51.957  1.00  0.00     0.007 A 
HETATM   18  C   UNL     1     -40.078  53.575 -49.764  1.00  0.00     0.039 C 
HETATM   19  C   UNL     1     -40.231  52.256 -53.317  1.00  0.00     0.001 A 
HETATM   20  C   UNL     1     -41.012  53.211 -53.958  1.00  0.00     0.001 A 
HETATM   21  C   UNL     1     -40.878  54.616 -48.989  1.00  0.00     0.008 C 
HETATM   22  O   UNL     1     -40.860  57.550 -52.414  1.00  0.00    -0.270 OA
ENDBRANCH   5   6
ENDBRANCH   1   5
BRANCH   2  23
HETATM   23  C   UNL     1     -42.773  57.673 -56.012  1.00  0.00     0.050 A 
HETATM   24  C   UNL     1     -42.507  58.516 -57.107  1.00  0.00     0.058 A 
HETATM   25  C   UNL     1     -42.501  57.965 -58.407  1.00  0.00     0.019 A 
HETATM   26  C   UNL     1     -42.746  56.611 -58.630  1.00  0.00     0.001 A 
HETATM   27  C   UNL     1     -42.976  55.775 -57.549  1.00  0.00     0.002 A 
HETATM   28  C   UNL     1     -42.974  56.298 -56.254  1.00  0.00     0.030 A 
BRANCH  24  29
HETATM   29  C   UNL     1     -42.010  59.920 -57.078  1.00  0.00     0.254 C 
HETATM   30  N   UNL     1     -41.726  60.524 -58.273  1.00  0.00    -0.351 N 
HETATM   31  H   UNL     1     -41.970  60.044 -59.138  1.00  0.00     0.163 HD
HETATM   32  O   UNL     1     -41.741  60.424 -55.990  1.00  0.00    -0.268 OA
BRANCH  30  33
HETATM   33  C   UNL     1     -40.859  61.678 -58.364  1.00  0.00     0.187 C 
BRANCH  33  34
HETATM   34  C   UNL     1     -40.674  62.142 -59.762  1.00  0.00     0.070 A 
HETATM   35  O   UNL     1     -41.503  61.587 -60.697  1.00  0.00    -0.325 OA
HETATM   36  C   UNL     1     -41.116  62.063 -61.908  1.00  0.00     0.142 A 
HETATM   37  C   UNL     1     -40.058  62.930 -61.769  1.00  0.00     0.027 A 
HETATM   38  C   UNL     1     -39.770  62.978 -60.384  1.00  0.00     0.036 A 
ENDBRANCH  33  34
ENDBRANCH  30  33
ENDBRANCH  24  29
ENDBRANCH   2  23
TORSDOF 6
ENDMDL
MODEL 2
REMARK VINA RESULT:      -9.4      3.272      5.364
REMARK  6 active torsions:
REMARK  status: ('A' for Active; 'I' for Inactive)
REMARK    1  A    between atoms: N_9  and  C_10 
REMARK    2  A    between atoms: C_10  and  C_11 
REMARK       I    between atoms: C_11  and  N_12 
REMARK    3  A    between atoms: N_12  and  C_13 
REMARK    4  A    between atoms: C_14  and  C_15 
REMARK       I    between atoms: C_15  and  N_16 
REMARK    5  A    between atoms: N_16  and  C_17 
REMARK    6  A    between atoms: C_17  and  C_18 
ROOT
HETATM    1  C   UNL     1     -42.783  57.159 -55.884  1.00  0.00     0.240 C 
HETATM    2  N   UNL     1     -44.143  57.412 -55.969  1.00  0.00    -0.325 N 
HETATM    3  O   UNL     1     -41.942  57.971 -55.501  1.00  0.00    -0.271 OA
HETATM    4  H   UNL     1     -44.727  56.593 -55.840  1.00  0.00     0.169 HD
ENDROOT
BRANCH   1   5
HETATM    5  C   UNL     1     -42.429  55.714 -56.249  1.00  0.00     0.240 C 
BRANCH   5   6
HETATM    6  N   UNL     1     -42.174  54.981 -55.038  1.00  0.00    -0.259 N 
HETATM    7  C   UNL     1     -43.169  54.561 -54.214  1.00  0.00     0.326 C 
HETATM    8  N   UNL     1     -42.617  53.809 -53.214  1.00  0.00    -0.320 N 
HETATM    9  O   UNL     1     -44.355  54.821 -54.327  1.00  0.00    -0.247 OA
HETATM   10  C   UNL     1     -41.171  53.852 -53.220  1.00  0.00     0.144 C 
HETATM   11  H   UNL     1     -43.192  53.333 -52.533  1.00  0.00     0.165 HD
HETATM   12  C   UNL     1     -40.574  52.458 -53.157  1.00  0.00    -0.014 A 
HETATM   13  C   UNL     1     -40.952  54.599 -54.559  1.00  0.00     0.261 C 
HETATM   14  C   UNL     1     -40.679  54.761 -52.079  1.00  0.00     0.047 C 
HETATM   15  C   UNL     1     -40.031  51.964 -51.950  1.00  0.00    -0.049 A 
HETATM   16  C   UNL     1     -40.574  51.621 -54.288  1.00  0.00     0.011 A 
HETATM   17  C   UNL     1     -39.467  50.678 -51.915  1.00  0.00     0.007 A 
HETATM   18  C   UNL     1     -39.962  52.802 -50.694  1.00  0.00     0.039 C 
HETATM   19  C   UNL     1     -39.454  49.875 -53.053  1.00  0.00     0.001 A 
HETATM   20  C   UNL     1     -40.010  50.345 -54.237  1.00  0.00     0.001 A 
HETATM   21  C   UNL     1     -40.829  54.055 -50.736  1.00  0.00     0.008 C 
HETATM   22  O   UNL     1     -39.873  54.876 -55.067  1.00  0.00    -0.270 OA
ENDBRANCH   5   6
ENDBRANCH   1   5
BRANCH   2  23
HETATM   23  C   UNL     1     -44.759  58.643 -55.644  1.00  0.00     0.050 A 
HETATM   24  C   UNL     1     -44.956  59.180 -54.358  1.00  0.00     0.058 A 
HETATM   25  C   UNL     1     -45.543  60.459 -54.235  1.00  0.00     0.019 A 
HETATM   26  C   UNL     1     -45.925  61.201 -55.352  1.00  0.00     0.001 A 
HETATM   27  C   UNL     1     -45.702  60.685 -56.619  1.00  0.00     0.002 A 
HETATM   28  C   UNL     1     -45.111  59.427 -56.762  1.00  0.00     0.030 A 
BRANCH  24  29
HETATM   29  C   UNL     1     -44.430  58.666 -53.063  1.00  0.00     0.254 C 
HETATM   30  N   UNL     1     -43.113  58.895 -52.770  1.00  0.00    -0.351 N 
HETATM   31  H   UNL     1     -42.570  59.502 -53.381  1.00  0.00     0.163 HD
HETATM   32  O   UNL     1     -45.153  57.939 -52.384  1.00  0.00    -0.268 OA
BRANCH  30  33
HETATM   33  C   UNL     1     -42.395  58.105 -51.794  1.00  0.00     0.187 C 
BRANCH  33  34
HETATM   34  C   UNL     1     -41.090  58.707 -51.423  1.00  0.00     0.070 A 
HETATM   35  O   UNL     1     -40.132  58.720 -52.398  1.00  0.00    -0.325 OA
HETATM   36  C   UNL     1     -38.998  59.217 -51.840  1.00  0.00     0.142 A 
HETATM   37  C   UNL     1     -39.212  59.539 -50.521  1.00  0.00     0.027 A 
HETATM   38  C   UNL     1     -40.561  59.206 -50.250  1.00  0.00     0.036 A 
ENDBRANCH  33  34
ENDBRANCH  30  33
ENDBRANCH  24  29
ENDBRANCH   2  23
TORSDOF 6
ENDMDL
MODEL 3
REMARK VINA RESULT:      -9.1      2.664      4.426
REMARK  6 active torsions:
REMARK  status: ('A' for Active; 'I' for Inactive)
REMARK    1  A    between atoms: N_9  and  C_10 
REMARK    2  A    between atoms: C_10  and  C_11 
REMARK       I    between atoms: C_11  and  N_12 
REMARK    3  A    between atoms: N_12  and  C_13 
REMARK    4  A    between atoms: C_14  and  C_15 
REMARK       I    between atoms: C_15  and  N_16 
REMARK    5  A    between atoms: N_16  and  C_17 
REMARK    6  A    between atoms: C_17  and  C_18 
ROOT
HETATM    1  C   UNL     1     -44.331  57.712 -52.540  1.00  0.00     0.240 C 
HETATM    2  N   UNL     1     -44.022  59.053 -52.383  1.00  0.00    -0.325 N 
HETATM    3  O   UNL     1     -44.970  57.246 -53.483  1.00  0.00    -0.271 OA
HETATM    4  H   UNL     1     -43.160  59.225 -51.877  1.00  0.00     0.169 HD
ENDROOT
BRANCH   1   5
HETATM    5  C   UNL     1     -43.722  56.834 -51.443  1.00  0.00     0.240 C 
BRANCH   5   6
HETATM    6  N   UNL     1     -42.688  56.019 -52.023  1.00  0.00    -0.259 N 
HETATM    7  C   UNL     1     -41.448  56.497 -52.301  1.00  0.00     0.326 C 
HETATM    8  N   UNL     1     -40.672  55.461 -52.743  1.00  0.00    -0.320 N 
HETATM    9  O   UNL     1     -41.083  57.655 -52.195  1.00  0.00    -0.247 OA
HETATM   10  C   UNL     1     -41.433  54.251 -52.964  1.00  0.00     0.144 C 
HETATM   11  H   UNL     1     -39.687  55.584 -52.932  1.00  0.00     0.165 HD
HETATM   12  C   UNL     1     -40.787  53.056 -52.289  1.00  0.00    -0.014 A 
HETATM   13  C   UNL     1     -42.786  54.696 -52.356  1.00  0.00     0.261 C 
HETATM   14  C   UNL     1     -41.635  54.042 -54.476  1.00  0.00     0.047 C 
HETATM   15  C   UNL     1     -40.058  52.111 -53.045  1.00  0.00    -0.049 A 
HETATM   16  C   UNL     1     -40.874  52.880 -50.895  1.00  0.00     0.011 A 
HETATM   17  C   UNL     1     -39.481  51.003 -52.404  1.00  0.00     0.007 A 
HETATM   18  C   UNL     1     -39.935  52.204 -54.548  1.00  0.00     0.039 C 
HETATM   19  C   UNL     1     -39.602  50.833 -51.027  1.00  0.00     0.001 A 
HETATM   20  C   UNL     1     -40.295  51.773 -50.273  1.00  0.00     0.001 A 
HETATM   21  C   UNL     1     -40.342  53.556 -55.121  1.00  0.00     0.008 C 
HETATM   22  O   UNL     1     -43.798  54.013 -52.260  1.00  0.00    -0.270 OA
ENDBRANCH   5   6
ENDBRANCH   1   5
BRANCH   2  23
HETATM   23  C   UNL     1     -44.409  60.082 -53.272  1.00  0.00     0.050 A 
HETATM   24  C   UNL     1     -43.860  60.362 -54.538  1.00  0.00     0.058 A 
HETATM   25  C   UNL     1     -44.421  61.403 -55.310  1.00  0.00     0.019 A 
HETATM   26  C   UNL     1     -45.504  62.153 -54.853  1.00  0.00     0.001 A 
HETATM   27  C   UNL     1     -46.064  61.857 -53.620  1.00  0.00     0.002 A 
HETATM   28  C   UNL     1     -45.531  60.823 -52.847  1.00  0.00     0.030 A 
BRANCH  24  29
HETATM   29  C   UNL     1     -42.866  59.556 -55.300  1.00  0.00     0.254 C 
HETATM   30  N   UNL     1     -43.283  58.372 -55.845  1.00  0.00    -0.351 N 
HETATM   31  H   UNL     1     -44.273  58.137 -55.815  1.00  0.00     0.163 HD
HETATM   32  O   UNL     1     -41.689  59.912 -55.285  1.00  0.00    -0.268 OA
BRANCH  30  33
HETATM   33  C   UNL     1     -42.354  57.327 -56.216  1.00  0.00     0.187 C 
BRANCH  33  34
HETATM   34  C   UNL     1     -42.543  56.867 -57.614  1.00  0.00     0.070 A 
HETATM   35  O   UNL     1     -42.138  57.731 -58.593  1.00  0.00    -0.325 OA
HETATM   36  C   UNL     1     -42.479  57.175 -59.784  1.00  0.00     0.142 A 
HETATM   37  C   UNL     1     -43.085  55.956 -59.590  1.00  0.00     0.027 A 
HETATM   38  C   UNL     1     -43.130  55.759 -58.190  1.00  0.00     0.036 A 
ENDBRANCH  33  34
ENDBRANCH  30  33
ENDBRANCH  24  29
ENDBRANCH   2  23
TORSDOF 6
ENDMDL
MODEL 4
REMARK VINA RESULT:      -9.1      2.605      3.995
REMARK  6 active torsions:
REMARK  status: ('A' for Active; 'I' for Inactive)
REMARK    1  A    between atoms: N_9  and  C_10 
REMARK    2  A    between atoms: C_10  and  C_11 
REMARK       I    between atoms: C_11  and  N_12 
REMARK    3  A    between atoms: N_12  and  C_13 
REMARK    4  A    between atoms: C_14  and  C_15 
REMARK       I    between atoms: C_15  and  N_16 
REMARK    5  A    between atoms: N_16  and  C_17 
REMARK    6  A    between atoms: C_17  and  C_18 
ROOT
HETATM    1  C   UNL     1     -42.784  59.763 -52.840  1.00  0.00     0.240 C 
HETATM    2  N   UNL     1     -43.905  59.567 -53.631  1.00  0.00    -0.325 N 
HETATM    3  O   UNL     1     -41.757  60.330 -53.209  1.00  0.00    -0.271 OA
HETATM    4  H   UNL     1     -44.777  59.530 -53.114  1.00  0.00     0.169 HD
ENDROOT
BRANCH   1   5
HETATM    5  C   UNL     1     -42.980  59.261 -51.406  1.00  0.00     0.240 C 
BRANCH   5   6
HETATM    6  N   UNL     1     -42.706  57.850 -51.368  1.00  0.00    -0.259 N 
HETATM    7  C   UNL     1     -43.677  56.921 -51.166  1.00  0.00     0.326 C 
HETATM    8  N   UNL     1     -43.121  55.677 -51.288  1.00  0.00    -0.320 N 
HETATM    9  O   UNL     1     -44.845  57.148 -50.901  1.00  0.00    -0.247 OA
HETATM   10  C   UNL     1     -41.679  55.721 -51.393  1.00  0.00     0.144 C 
HETATM   11  H   UNL     1     -43.687  54.841 -51.251  1.00  0.00     0.165 HD
HETATM   12  C   UNL     1     -41.182  54.900 -52.568  1.00  0.00    -0.014 A 
HETATM   13  C   UNL     1     -41.488  57.251 -51.535  1.00  0.00     0.261 C 
HETATM   14  C   UNL     1     -41.054  55.284 -50.055  1.00  0.00     0.047 C 
HETATM   15  C   UNL     1     -40.605  53.627 -52.361  1.00  0.00    -0.049 A 
HETATM   16  C   UNL     1     -41.313  55.374 -53.887  1.00  0.00     0.011 A 
HETATM   17  C   UNL     1     -40.136  52.889 -53.460  1.00  0.00     0.007 A 
HETATM   18  C   UNL     1     -40.398  53.050 -50.980  1.00  0.00     0.039 C 
HETATM   19  C   UNL     1     -40.250  53.389 -54.755  1.00  0.00     0.001 A 
HETATM   20  C   UNL     1     -40.842  54.628 -54.968  1.00  0.00     0.001 A 
HETATM   21  C   UNL     1     -41.172  53.773 -49.884  1.00  0.00     0.008 C 
HETATM   22  O   UNL     1     -40.425  57.839 -51.689  1.00  0.00    -0.270 OA
ENDBRANCH   5   6
ENDBRANCH   1   5
BRANCH   2  23
HETATM   23  C   UNL     1     -44.025  59.976 -54.979  1.00  0.00     0.050 A 
HETATM   24  C   UNL     1     -43.814  59.189 -56.127  1.00  0.00     0.058 A 
HETATM   25  C   UNL     1     -44.040  59.762 -57.398  1.00  0.00     0.019 A 
HETATM   26  C   UNL     1     -44.471  61.079 -57.542  1.00  0.00     0.001 A 
HETATM   27  C   UNL     1     -44.709  61.844 -56.411  1.00  0.00     0.002 A 
HETATM   28  C   UNL     1     -44.502  61.292 -55.145  1.00  0.00     0.030 A 
BRANCH  24  29
HETATM   29  C   UNL     1     -43.573  57.720 -56.196  1.00  0.00     0.254 C 
HETATM   30  N   UNL     1     -42.961  57.223 -57.314  1.00  0.00    -0.351 N 
HETATM   31  H   UNL     1     -42.587  57.874 -58.002  1.00  0.00     0.163 HD
HETATM   32  O   UNL     1     -44.059  57.005 -55.321  1.00  0.00    -0.268 OA
BRANCH  30  33
HETATM   33  C   UNL     1     -43.059  55.830 -57.689  1.00  0.00     0.187 C 
BRANCH  33  34
HETATM   34  C   UNL     1     -43.889  55.623 -58.902  1.00  0.00     0.070 A 
HETATM   35  O   UNL     1     -44.544  56.724 -59.379  1.00  0.00    -0.325 OA
HETATM   36  C   UNL     1     -45.313  56.313 -60.420  1.00  0.00     0.142 A 
HETATM   37  C   UNL     1     -45.154  54.964 -60.632  1.00  0.00     0.027 A 
HETATM   38  C   UNL     1     -44.238  54.518 -59.650  1.00  0.00     0.036 A 
ENDBRANCH  33  34
ENDBRANCH  30  33
ENDBRANCH  24  29
ENDBRANCH   2  23
TORSDOF 6
ENDMDL
MODEL 5
REMARK VINA RESULT:      -8.6      3.065      6.853
REMARK  6 active torsions:
REMARK  status: ('A' for Active; 'I' for Inactive)
REMARK    1  A    between atoms: N_9  and  C_10 
REMARK    2  A    between atoms: C_10  and  C_11 
REMARK       I    between atoms: C_11  and  N_12 
REMARK    3  A    between atoms: N_12  and  C_13 
REMARK    4  A    between atoms: C_14  and  C_15 
REMARK       I    between atoms: C_15  and  N_16 
REMARK    5  A    between atoms: N_16  and  C_17 
REMARK    6  A    between atoms: C_17  and  C_18 
ROOT
HETATM    1  C   UNL     1     -41.378  56.281 -52.053  1.00  0.00     0.240 C 
HETATM    2  N   UNL     1     -41.675  54.952 -51.797  1.00  0.00    -0.325 N 
HETATM    3  O   UNL     1     -40.794  56.688 -53.056  1.00  0.00    -0.271 OA
HETATM    4  H   UNL     1     -42.508  54.812 -51.235  1.00  0.00     0.169 HD
ENDROOT
BRANCH   1   5
HETATM    5  C   UNL     1     -41.926  57.225 -50.978  1.00  0.00     0.240 C 
BRANCH   5   6
HETATM    6  N   UNL     1     -42.507  58.372 -51.622  1.00  0.00    -0.259 N 
HETATM    7  C   UNL     1     -43.816  58.427 -51.978  1.00  0.00     0.326 C 
HETATM    8  N   UNL     1     -44.081  59.677 -52.468  1.00  0.00    -0.320 N 
HETATM    9  O   UNL     1     -44.623  57.517 -51.898  1.00  0.00    -0.247 OA
HETATM   10  C   UNL     1     -42.885  60.472 -52.639  1.00  0.00     0.144 C 
HETATM   11  H   UNL     1     -45.019  59.956 -52.720  1.00  0.00     0.165 HD
HETATM   12  C   UNL     1     -43.033  61.842 -52.005  1.00  0.00    -0.014 A 
HETATM   13  C   UNL     1     -41.865  59.535 -51.946  1.00  0.00     0.261 C 
HETATM   14  C   UNL     1     -42.527  60.544 -54.135  1.00  0.00     0.047 C 
HETATM   15  C   UNL     1     -43.273  62.981 -52.806  1.00  0.00    -0.049 A 
HETATM   16  C   UNL     1     -42.963  62.003 -50.609  1.00  0.00     0.011 A 
HETATM   17  C   UNL     1     -43.390  64.244 -52.202  1.00  0.00     0.007 A 
HETATM   18  C   UNL     1     -43.334  62.909 -54.314  1.00  0.00     0.039 C 
HETATM   19  C   UNL     1     -43.291  64.384 -50.820  1.00  0.00     0.001 A 
HETATM   20  C   UNL     1     -43.082  63.265 -50.024  1.00  0.00     0.001 A 
HETATM   21  C   UNL     1     -43.475  61.493 -54.861  1.00  0.00     0.008 C 
HETATM   22  O   UNL     1     -40.671  59.755 -51.786  1.00  0.00    -0.270 OA
ENDBRANCH   5   6
ENDBRANCH   1   5
BRANCH   2  23
HETATM   23  C   UNL     1     -41.338  53.870 -52.643  1.00  0.00     0.050 A 
HETATM   24  C   UNL     1     -41.836  53.614 -53.934  1.00  0.00     0.058 A 
HETATM   25  C   UNL     1     -41.334  52.506 -54.653  1.00  0.00     0.019 A 
HETATM   26  C   UNL     1     -40.356  51.669 -54.119  1.00  0.00     0.001 A 
HETATM   27  C   UNL     1     -39.842  51.941 -52.860  1.00  0.00     0.002 A 
HETATM   28  C   UNL     1     -40.318  53.038 -52.139  1.00  0.00     0.030 A 
BRANCH  24  29
HETATM   29  C   UNL     1     -42.705  54.491 -54.769  1.00  0.00     0.254 C 
HETATM   30  N   UNL     1     -42.098  55.437 -55.549  1.00  0.00    -0.351 N 
HETATM   31  H   UNL     1     -41.082  55.436 -55.626  1.00  0.00     0.163 HD
HETATM   32  O   UNL     1     -43.922  54.428 -54.614  1.00  0.00    -0.268 OA
BRANCH  30  33
HETATM   33  C   UNL     1     -42.809  56.593 -56.049  1.00  0.00     0.187 C 
BRANCH  33  34
HETATM   34  C   UNL     1     -42.777  56.685 -57.530  1.00  0.00     0.070 A 
HETATM   35  O   UNL     1     -43.226  55.589 -58.212  1.00  0.00    -0.325 OA
HETATM   36  C   UNL     1     -43.029  55.831 -59.534  1.00  0.00     0.142 A 
HETATM   37  C   UNL     1     -42.473  57.075 -59.717  1.00  0.00     0.027 A 
HETATM   38  C   UNL     1     -42.307  57.625 -58.424  1.00  0.00     0.036 A 
ENDBRANCH  33  34
ENDBRANCH  30  33
ENDBRANCH  24  29
ENDBRANCH   2  23
TORSDOF 6
ENDMDL
MODEL 6
REMARK VINA RESULT:      -8.5      2.890      6.098
REMARK  6 active torsions:
REMARK  status: ('A' for Active; 'I' for Inactive)
REMARK    1  A    between atoms: N_9  and  C_10 
REMARK    2  A    between atoms: C_10  and  C_11 
REMARK       I    between atoms: C_11  and  N_12 
REMARK    3  A    between atoms: N_12  and  C_13 
REMARK    4  A    between atoms: C_14  and  C_15 
REMARK       I    between atoms: C_15  and  N_16 
REMARK    5  A    between atoms: N_16  and  C_17 
REMARK    6  A    between atoms: C_17  and  C_18 
ROOT
HETATM    1  C   UNL     1     -43.213  57.000 -56.277  1.00  0.00     0.240 C 
HETATM    2  N   UNL     1     -42.477  57.950 -55.587  1.00  0.00    -0.325 N 
HETATM    3  O   UNL     1     -44.331  57.191 -56.753  1.00  0.00    -0.271 OA
HETATM    4  H   UNL     1     -41.472  57.837 -55.667  1.00  0.00     0.169 HD
ENDROOT
BRANCH   1   5
HETATM    5  C   UNL     1     -42.451  55.684 -56.462  1.00  0.00     0.240 C 
BRANCH   5   6
HETATM    6  N   UNL     1     -42.251  55.081 -55.172  1.00  0.00    -0.259 N 
HETATM    7  C   UNL     1     -43.281  54.671 -54.387  1.00  0.00     0.326 C 
HETATM    8  N   UNL     1     -42.766  54.050 -53.282  1.00  0.00    -0.320 N 
HETATM    9  O   UNL     1     -44.467  54.840 -54.611  1.00  0.00    -0.247 OA
HETATM   10  C   UNL     1     -41.329  54.188 -53.187  1.00  0.00     0.144 C 
HETATM   11  H   UNL     1     -43.364  53.600 -52.604  1.00  0.00     0.165 HD
HETATM   12  C   UNL     1     -40.657  52.849 -52.948  1.00  0.00    -0.014 A 
HETATM   13  C   UNL     1     -41.049  54.825 -54.570  1.00  0.00     0.261 C 
HETATM   14  C   UNL     1     -40.985  55.228 -52.104  1.00  0.00     0.047 C 
HETATM   15  C   UNL     1     -40.183  52.503 -51.663  1.00  0.00    -0.049 A 
HETATM   16  C   UNL     1     -40.517  51.915 -53.992  1.00  0.00     0.011 A 
HETATM   17  C   UNL     1     -39.549  51.265 -51.466  1.00  0.00     0.007 A 
HETATM   18  C   UNL     1     -40.264  53.452 -50.490  1.00  0.00     0.039 C 
HETATM   19  C   UNL     1     -39.397  50.367 -52.519  1.00  0.00     0.001 A 
HETATM   20  C   UNL     1     -39.884  50.690 -53.780  1.00  0.00     0.001 A 
HETATM   21  C   UNL     1     -41.198  54.636 -50.715  1.00  0.00     0.008 C 
HETATM   22  O   UNL     1     -39.952  55.127 -55.022  1.00  0.00    -0.270 OA
ENDBRANCH   5   6
ENDBRANCH   1   5
BRANCH   2  23
HETATM   23  C   UNL     1     -42.910  59.269 -55.316  1.00  0.00     0.050 A 
HETATM   24  C   UNL     1     -43.751  59.687 -54.267  1.00  0.00     0.058 A 
HETATM   25  C   UNL     1     -44.028  61.065 -54.124  1.00  0.00     0.019 A 
HETATM   26  C   UNL     1     -43.487  62.015 -54.987  1.00  0.00     0.001 A 
HETATM   27  C   UNL     1     -42.634  61.606 -56.000  1.00  0.00     0.002 A 
HETATM   28  C   UNL     1     -42.338  60.249 -56.152  1.00  0.00     0.030 A 
BRANCH  24  29
HETATM   29  C   UNL     1     -44.248  58.880 -53.118  1.00  0.00     0.254 C 
HETATM   30  N   UNL     1     -45.297  59.377 -52.393  1.00  0.00    -0.351 N 
HETATM   31  H   UNL     1     -45.774  60.213 -52.725  1.00  0.00     0.163 HD
HETATM   32  O   UNL     1     -43.611  57.884 -52.783  1.00  0.00    -0.268 OA
BRANCH  30  33
HETATM   33  C   UNL     1     -45.580  58.931 -51.047  1.00  0.00     0.187 C 
BRANCH  33  34
HETATM   34  C   UNL     1     -45.212  59.940 -50.022  1.00  0.00     0.070 A 
HETATM   35  O   UNL     1     -45.975  59.952 -48.887  1.00  0.00    -0.325 OA
HETATM   36  C   UNL     1     -45.547  60.994 -48.128  1.00  0.00     0.142 A 
HETATM   37  C   UNL     1     -44.508  61.647 -48.749  1.00  0.00     0.027 A 
HETATM   38  C   UNL     1     -44.295  60.969 -49.973  1.00  0.00     0.036 A 
ENDBRANCH  33  34
ENDBRANCH  30  33
ENDBRANCH  24  29
ENDBRANCH   2  23
TORSDOF 6
ENDMDL
MODEL 7
REMARK VINA RESULT:      -8.5      1.971      3.177
REMARK  6 active torsions:
REMARK  status: ('A' for Active; 'I' for Inactive)
REMARK    1  A    between atoms: N_9  and  C_10 
REMARK    2  A    between atoms: C_10  and  C_11 
REMARK       I    between atoms: C_11  and  N_12 
REMARK    3  A    between atoms: N_12  and  C_13 
REMARK    4  A    between atoms: C_14  and  C_15 
REMARK       I    between atoms: C_15  and  N_16 
REMARK    5  A    between atoms: N_16  and  C_17 
REMARK    6  A    between atoms: C_17  and  C_18 
ROOT
HETATM    1  C   UNL     1     -43.053  57.173 -55.761  1.00  0.00     0.240 C 
HETATM    2  N   UNL     1     -42.112  58.028 -55.211  1.00  0.00    -0.325 N 
HETATM    3  O   UNL     1     -44.232  57.464 -55.959  1.00  0.00    -0.271 OA
HETATM    4  H   UNL     1     -41.162  57.858 -55.523  1.00  0.00     0.169 HD
ENDROOT
BRANCH   1   5
HETATM    5  C   UNL     1     -42.453  55.827 -56.179  1.00  0.00     0.240 C 
BRANCH   5   6
HETATM    6  N   UNL     1     -42.202  55.045 -54.998  1.00  0.00    -0.259 N 
HETATM    7  C   UNL     1     -43.200  54.572 -54.208  1.00  0.00     0.326 C 
HETATM    8  N   UNL     1     -42.647  53.786 -53.234  1.00  0.00    -0.320 N 
HETATM    9  O   UNL     1     -44.389  54.815 -54.327  1.00  0.00    -0.247 OA
HETATM   10  C   UNL     1     -41.203  53.856 -53.217  1.00  0.00     0.144 C 
HETATM   11  H   UNL     1     -43.223  53.271 -52.583  1.00  0.00     0.165 HD
HETATM   12  C   UNL     1     -40.580  52.472 -53.207  1.00  0.00    -0.014 A 
HETATM   13  C   UNL     1     -40.979  54.665 -54.518  1.00  0.00     0.261 C 
HETATM   14  C   UNL     1     -40.744  54.723 -52.030  1.00  0.00     0.047 C 
HETATM   15  C   UNL     1     -40.045  51.935 -52.014  1.00  0.00    -0.049 A 
HETATM   16  C   UNL     1     -40.549  51.685 -54.373  1.00  0.00     0.011 A 
HETATM   17  C   UNL     1     -39.458  50.659 -52.028  1.00  0.00     0.007 A 
HETATM   18  C   UNL     1     -40.009  52.717 -50.722  1.00  0.00     0.039 C 
HETATM   19  C   UNL     1     -39.414  49.908 -53.200  1.00  0.00     0.001 A 
HETATM   20  C   UNL     1     -39.962  50.419 -54.370  1.00  0.00     0.001 A 
HETATM   21  C   UNL     1     -40.899  53.955 -50.722  1.00  0.00     0.008 C 
HETATM   22  O   UNL     1     -39.899  54.984 -54.999  1.00  0.00    -0.270 OA
ENDBRANCH   5   6
ENDBRANCH   1   5
BRANCH   2  23
HETATM   23  C   UNL     1     -42.372  59.351 -54.783  1.00  0.00     0.050 A 
HETATM   24  C   UNL     1     -42.679  60.460 -55.593  1.00  0.00     0.058 A 
HETATM   25  C   UNL     1     -42.966  61.698 -54.974  1.00  0.00     0.019 A 
HETATM   26  C   UNL     1     -42.959  61.844 -53.589  1.00  0.00     0.001 A 
HETATM   27  C   UNL     1     -42.688  60.743 -52.791  1.00  0.00     0.002 A 
HETATM   28  C   UNL     1     -42.413  59.508 -53.382  1.00  0.00     0.030 A 
BRANCH  24  29
HETATM   29  C   UNL     1     -42.956  60.474 -57.057  1.00  0.00     0.254 C 
HETATM   30  N   UNL     1     -41.937  60.135 -57.904  1.00  0.00    -0.351 N 
HETATM   31  H   UNL     1     -41.068  59.775 -57.512  1.00  0.00     0.163 HD
HETATM   32  O   UNL     1     -44.032  60.924 -57.445  1.00  0.00    -0.268 OA
BRANCH  30  33
HETATM   33  C   UNL     1     -41.939  60.515 -59.299  1.00  0.00     0.187 C 
BRANCH  33  34
HETATM   34  C   UNL     1     -41.033  61.657 -59.580  1.00  0.00     0.070 A 
HETATM   35  O   UNL     1     -40.920  62.029 -60.891  1.00  0.00    -0.325 OA
HETATM   36  C   UNL     1     -39.985  63.012 -60.950  1.00  0.00     0.142 A 
HETATM   37  C   UNL     1     -39.502  63.292 -59.694  1.00  0.00     0.027 A 
HETATM   38  C   UNL     1     -40.175  62.414 -58.810  1.00  0.00     0.036 A 
ENDBRANCH  33  34
ENDBRANCH  30  33
ENDBRANCH  24  29
ENDBRANCH   2  23
TORSDOF 6
ENDMDL
MODEL 8
REMARK VINA RESULT:      -8.4      3.252      5.866
REMARK  6 active torsions:
REMARK  status: ('A' for Active; 'I' for Inactive)
REMARK    1  A    between atoms: N_9  and  C_10 
REMARK    2  A    between atoms: C_10  and  C_11 
REMARK       I    between atoms: C_11  and  N_12 
REMARK    3  A    between atoms: N_12  and  C_13 
REMARK    4  A    between atoms: C_14  and  C_15 
REMARK       I    between atoms: C_15  and  N_16 
REMARK    5  A    between atoms: N_16  and  C_17 
REMARK    6  A    between atoms: C_17  and  C_18 
ROOT
HETATM    1  C   UNL     1     -43.009  56.367 -57.213  1.00  0.00     0.240 C 
HETATM    2  N   UNL     1     -44.343  56.663 -57.439  1.00  0.00    -0.325 N 
HETATM    3  O   UNL     1     -42.075  57.140 -57.421  1.00  0.00    -0.271 OA
HETATM    4  H   UNL     1     -44.988  56.174 -56.826  1.00  0.00     0.169 HD
ENDROOT
BRANCH   1   5
HETATM    5  C   UNL     1     -42.810  54.981 -56.591  1.00  0.00     0.240 C 
BRANCH   5   6
HETATM    6  N   UNL     1     -42.255  55.140 -55.274  1.00  0.00    -0.259 N 
HETATM    7  C   UNL     1     -41.022  54.677 -54.938  1.00  0.00     0.326 C 
HETATM    8  N   UNL     1     -40.743  55.073 -53.659  1.00  0.00    -0.320 N 
HETATM    9  O   UNL     1     -40.289  54.007 -55.644  1.00  0.00    -0.247 OA
HETATM   10  C   UNL     1     -41.885  55.670 -53.001  1.00  0.00     0.144 C 
HETATM   11  H   UNL     1     -39.841  54.899 -53.239  1.00  0.00     0.165 HD
HETATM   12  C   UNL     1     -41.525  56.999 -52.363  1.00  0.00    -0.014 A 
HETATM   13  C   UNL     1     -42.847  55.763 -54.210  1.00  0.00     0.261 C 
HETATM   14  C   UNL     1     -42.478  54.669 -51.993  1.00  0.00     0.047 C 
HETATM   15  C   UNL     1     -41.331  57.096 -50.967  1.00  0.00    -0.049 A 
HETATM   16  C   UNL     1     -41.349  58.153 -53.150  1.00  0.00     0.011 A 
HETATM   17  C   UNL     1     -41.015  58.339 -50.394  1.00  0.00     0.007 A 
HETATM   18  C   UNL     1     -41.526  55.918 -50.042  1.00  0.00     0.039 C 
HETATM   19  C   UNL     1     -40.871  59.474 -51.187  1.00  0.00     0.001 A 
HETATM   20  C   UNL     1     -41.034  59.381 -52.564  1.00  0.00     0.001 A 
HETATM   21  C   UNL     1     -41.592  54.573 -50.756  1.00  0.00     0.008 C 
HETATM   22  O   UNL     1     -43.977  56.236 -54.205  1.00  0.00    -0.270 OA
ENDBRANCH   5   6
ENDBRANCH   1   5
BRANCH   2  23
HETATM   23  C   UNL     1     -44.824  57.888 -57.957  1.00  0.00     0.050 A 
HETATM   24  C   UNL     1     -45.050  59.081 -57.244  1.00  0.00     0.058 A 
HETATM   25  C   UNL     1     -45.481  60.226 -57.950  1.00  0.00     0.019 A 
HETATM   26  C   UNL     1     -45.682  60.204 -59.329  1.00  0.00     0.001 A 
HETATM   27  C   UNL     1     -45.429  59.038 -60.035  1.00  0.00     0.002 A 
HETATM   28  C   UNL     1     -44.991  57.898 -59.357  1.00  0.00     0.030 A 
BRANCH  24  29
HETATM   29  C   UNL     1     -44.692  59.381 -55.830  1.00  0.00     0.254 C 
HETATM   30  N   UNL     1     -45.673  59.870 -55.011  1.00  0.00    -0.351 N 
HETATM   31  H   UNL     1     -46.631  59.902 -55.353  1.00  0.00     0.163 HD
HETATM   32  O   UNL     1     -43.509  59.317 -55.499  1.00  0.00    -0.268 OA
BRANCH  30  33
HETATM   33  C   UNL     1     -45.370  60.587 -53.792  1.00  0.00     0.187 C 
BRANCH  33  34
HETATM   34  C   UNL     1     -45.382  59.708 -52.596  1.00  0.00     0.070 A 
HETATM   35  O   UNL     1     -46.055  60.183 -51.505  1.00  0.00    -0.325 OA
HETATM   36  C   UNL     1     -45.871  59.290 -50.499  1.00  0.00     0.142 A 
HETATM   37  C   UNL     1     -45.100  58.235 -50.928  1.00  0.00     0.027 A 
HETATM   38  C   UNL     1     -44.781  58.507 -52.280  1.00  0.00     0.036 A 
ENDBRANCH  33  34
ENDBRANCH  30  33
ENDBRANCH  24  29
ENDBRANCH   2  23
TORSDOF 6
ENDMDL
MODEL 9
REMARK VINA RESULT:      -8.4      2.879      6.468
REMARK  6 active torsions:
REMARK  status: ('A' for Active; 'I' for Inactive)
REMARK    1  A    between atoms: N_9  and  C_10 
REMARK    2  A    between atoms: C_10  and  C_11 
REMARK       I    between atoms: C_11  and  N_12 
REMARK    3  A    between atoms: N_12  and  C_13 
REMARK    4  A    between atoms: C_14  and  C_15 
REMARK       I    between atoms: C_15  and  N_16 
REMARK    5  A    between atoms: N_16  and  C_17 
REMARK    6  A    between atoms: C_17  and  C_18 
ROOT
HETATM    1  C   UNL     1     -41.473  56.110 -51.789  1.00  0.00     0.240 C 
HETATM    2  N   UNL     1     -41.814  54.770 -51.692  1.00  0.00    -0.325 N 
HETATM    3  O   UNL     1     -40.793  56.595 -52.692  1.00  0.00    -0.271 OA
HETATM    4  H   UNL     1     -42.697  54.599 -51.223  1.00  0.00     0.169 HD
ENDROOT
BRANCH   1   5
HETATM    5  C   UNL     1     -42.103  56.960 -50.682  1.00  0.00     0.240 C 
BRANCH   5   6
HETATM    6  N   UNL     1     -42.387  58.268 -51.208  1.00  0.00    -0.259 N 
HETATM    7  C   UNL     1     -41.698  59.376 -50.828  1.00  0.00     0.326 C 
HETATM    8  N   UNL     1     -42.131  60.435 -51.577  1.00  0.00    -0.320 N 
HETATM    9  O   UNL     1     -40.850  59.430 -49.954  1.00  0.00    -0.247 OA
HETATM   10  C   UNL     1     -43.290  60.112 -52.380  1.00  0.00     0.144 C 
HETATM   11  H   UNL     1     -41.693  61.343 -51.508  1.00  0.00     0.165 HD
HETATM   12  C   UNL     1     -43.097  60.528 -53.826  1.00  0.00    -0.014 A 
HETATM   13  C   UNL     1     -43.339  58.583 -52.139  1.00  0.00     0.261 C 
HETATM   14  C   UNL     1     -44.545  60.736 -51.744  1.00  0.00     0.047 C 
HETATM   15  C   UNL     1     -43.725  61.689 -54.329  1.00  0.00    -0.049 A 
HETATM   16  C   UNL     1     -42.268  59.784 -54.687  1.00  0.00     0.011 A 
HETATM   17  C   UNL     1     -43.548  62.049 -55.675  1.00  0.00     0.007 A 
HETATM   18  C   UNL     1     -44.654  62.532 -53.487  1.00  0.00     0.039 C 
HETATM   19  C   UNL     1     -42.745  61.284 -56.517  1.00  0.00     0.001 A 
HETATM   20  C   UNL     1     -42.102  60.155 -56.022  1.00  0.00     0.001 A 
HETATM   21  C   UNL     1     -44.573  62.240 -51.993  1.00  0.00     0.008 C 
HETATM   22  O   UNL     1     -44.139  57.796 -52.628  1.00  0.00    -0.270 OA
ENDBRANCH   5   6
ENDBRANCH   1   5
BRANCH   2  23
HETATM   23  C   UNL     1     -41.417  53.766 -52.605  1.00  0.00     0.050 A 
HETATM   24  C   UNL     1     -41.896  53.570 -53.913  1.00  0.00     0.058 A 
HETATM   25  C   UNL     1     -41.333  52.540 -54.699  1.00  0.00     0.019 A 
HETATM   26  C   UNL     1     -40.316  51.720 -54.214  1.00  0.00     0.001 A 
HETATM   27  C   UNL     1     -39.822  51.934 -52.936  1.00  0.00     0.002 A 
HETATM   28  C   UNL     1     -40.357  52.955 -52.148  1.00  0.00     0.030 A 
BRANCH  24  29
HETATM   29  C   UNL     1     -42.805  54.455 -54.695  1.00  0.00     0.254 C 
HETATM   30  N   UNL     1     -42.249  55.257 -55.655  1.00  0.00    -0.351 N 
HETATM   31  H   UNL     1     -41.263  55.141 -55.883  1.00  0.00     0.163 HD
HETATM   32  O   UNL     1     -43.982  54.534 -54.352  1.00  0.00    -0.268 OA
BRANCH  30  33
HETATM   33  C   UNL     1     -42.924  56.431 -56.160  1.00  0.00     0.187 C 
BRANCH  33  34
HETATM   34  C   UNL     1     -42.922  56.496 -57.643  1.00  0.00     0.070 A 
HETATM   35  O   UNL     1     -43.392  55.391 -58.296  1.00  0.00    -0.325 OA
HETATM   36  C   UNL     1     -43.220  55.607 -59.625  1.00  0.00     0.142 A 
HETATM   37  C   UNL     1     -42.658  56.843 -59.843  1.00  0.00     0.027 A 
HETATM   38  C   UNL     1     -42.462  57.415 -58.563  1.00  0.00     0.036 A 
ENDBRANCH  33  34
ENDBRANCH  30  33
ENDBRANCH  24  29
ENDBRANCH   2  23
TORSDOF 6
ENDMDL
MODEL 10
REMARK VINA RESULT:      -8.4      2.470      3.507
REMARK  6 active torsions:
REMARK  status: ('A' for Active; 'I' for Inactive)
REMARK    1  A    between atoms: N_9  and  C_10 
REMARK    2  A    between atoms: C_10  and  C_11 
REMARK       I    between atoms: C_11  and  N_12 
REMARK    3  A    between atoms: N_12  and  C_13 
REMARK    4  A    between atoms: C_14  and  C_15 
REMARK       I    between atoms: C_15  and  N_16 
REMARK    5  A    between atoms: N_16  and  C_17 
REMARK    6  A    between atoms: C_17  and  C_18 
ROOT
HETATM    1  C   UNL     1     -42.612  58.639 -55.854  1.00  0.00     0.240 C 
HETATM    2  N   UNL     1     -43.573  57.762 -56.332  1.00  0.00    -0.325 N 
HETATM    3  O   UNL     1     -41.754  59.183 -56.546  1.00  0.00    -0.271 OA
HETATM    4  H   UNL     1     -44.439  57.766 -55.805  1.00  0.00     0.169 HD
ENDROOT
BRANCH   1   5
HETATM    5  C   UNL     1     -42.774  58.931 -54.359  1.00  0.00     0.240 C 
BRANCH   5   6
HETATM    6  N   UNL     1     -42.635  57.700 -53.628  1.00  0.00    -0.259 N 
HETATM    7  C   UNL     1     -43.701  56.945 -53.255  1.00  0.00     0.326 C 
HETATM    8  N   UNL     1     -43.238  55.796 -52.675  1.00  0.00    -0.320 N 
HETATM    9  O   UNL     1     -44.875  57.242 -53.393  1.00  0.00    -0.247 OA
HETATM   10  C   UNL     1     -41.808  55.820 -52.459  1.00  0.00     0.144 C 
HETATM   11  H   UNL     1     -43.867  55.058 -52.394  1.00  0.00     0.165 HD
HETATM   12  C   UNL     1     -41.144  54.564 -52.992  1.00  0.00    -0.014 A 
HETATM   13  C   UNL     1     -41.463  57.120 -53.228  1.00  0.00     0.261 C 
HETATM   14  C   UNL     1     -41.518  56.058 -50.965  1.00  0.00     0.047 C 
HETATM   15  C   UNL     1     -40.732  53.541 -52.109  1.00  0.00    -0.049 A 
HETATM   16  C   UNL     1     -40.952  54.379 -54.374  1.00  0.00     0.011 A 
HETATM   17  C   UNL     1     -40.105  52.392 -52.619  1.00  0.00     0.007 A 
HETATM   18  C   UNL     1     -40.872  53.664 -50.609  1.00  0.00     0.039 C 
HETATM   19  C   UNL     1     -39.901  52.241 -53.989  1.00  0.00     0.001 A 
HETATM   20  C   UNL     1     -40.328  53.232 -54.865  1.00  0.00     0.001 A 
HETATM   21  C   UNL     1     -41.797  54.791 -50.164  1.00  0.00     0.008 C 
HETATM   22  O   UNL     1     -40.346  57.596 -53.384  1.00  0.00    -0.270 OA
ENDBRANCH   5   6
ENDBRANCH   1   5
BRANCH   2  23
HETATM   23  C   UNL     1     -43.695  57.353 -57.681  1.00  0.00     0.050 A 
HETATM   24  C   UNL     1     -44.343  58.044 -58.722  1.00  0.00     0.058 A 
HETATM   25  C   UNL     1     -44.311  57.500 -60.025  1.00  0.00     0.019 A 
HETATM   26  C   UNL     1     -43.652  56.304 -60.304  1.00  0.00     0.001 A 
HETATM   27  C   UNL     1     -42.988  55.640 -59.285  1.00  0.00     0.002 A 
HETATM   28  C   UNL     1     -42.997  56.168 -57.992  1.00  0.00     0.030 A 
BRANCH  24  29
HETATM   29  C   UNL     1     -44.906  59.423 -58.691  1.00  0.00     0.254 C 
HETATM   30  N   UNL     1     -44.077  60.446 -58.318  1.00  0.00    -0.351 N 
HETATM   31  H   UNL     1     -43.085  60.255 -58.189  1.00  0.00     0.163 HD
HETATM   32  O   UNL     1     -46.116  59.565 -58.858  1.00  0.00    -0.268 OA
BRANCH  30  33
HETATM   33  C   UNL     1     -44.586  61.713 -57.841  1.00  0.00     0.187 C 
BRANCH  33  34
HETATM   34  C   UNL     1     -44.868  61.701 -56.384  1.00  0.00     0.070 A 
HETATM   35  O   UNL     1     -44.063  62.486 -55.607  1.00  0.00    -0.325 OA
HETATM   36  C   UNL     1     -44.414  62.266 -54.314  1.00  0.00     0.142 A 
HETATM   37  C   UNL     1     -45.446  61.360 -54.243  1.00  0.00     0.027 A 
HETATM   38  C   UNL     1     -45.736  60.992 -55.579  1.00  0.00     0.036 A 
ENDBRANCH  33  34
ENDBRANCH  30  33
ENDBRANCH  24  29
ENDBRANCH   2  23
TORSDOF 6
ENDMDL
