MODEL 1
REMARK VINA RESULT:      -9.4      0.000      0.000
REMARK  8 active torsions:
REMARK  status: ('A' for Active; 'I' for Inactive)
REMARK    1  A    between atoms: C_4  and  N_5 
REMARK       I    between atoms: N_5  and  C_6 
REMARK       I    between atoms: C_6  and  N_7 
REMARK    2  A    between atoms: N_7  and  C_8 
REMARK    3  A    between atoms: C_8  and  C_9 
REMARK    4  A    between atoms: C_9  and  C_10 
REMARK    5  A    between atoms: C_14  and  O_15 
REMARK       I    between atoms: N_22  and  C_23 
REMARK    6  A    between atoms: C_23  and  C_24 
REMARK    7  A    between atoms: C_24  and  N_25 
REMARK    8  A    between atoms: N_29  and  C_30 
ROOT
HETATM    1  N   UNL     1     -42.287  59.300 -50.612  1.00  0.00    -0.017 N 
HETATM    2  C   UNL     1     -41.831  58.590 -51.682  1.00  0.00     0.718 C 
HETATM    3  N   UNL     1     -41.169  57.444 -51.314  1.00  0.00    -0.223 N 
HETATM    4  N   UNL     1     -41.989  59.000 -52.901  1.00  0.00    -0.026 NA
HETATM    5  C   UNL     1     -41.522  58.305 -53.975  1.00  0.00     0.286 C 
HETATM    6  O   UNL     1     -40.855  57.269 -53.972  1.00  0.00    -0.269 OA
HETATM    7  H   UNL     1     -41.668  59.387 -49.822  1.00  0.00     0.203 HD
HETATM    8  H   UNL     1     -40.906  56.867 -52.116  1.00  0.00     0.177 HD
ENDROOT
BRANCH   1   9
HETATM    9  C   UNL     1     -43.133  60.403 -50.656  1.00  0.00     0.741 A 
HETATM   10  N   UNL     1     -44.432  60.273 -50.981  1.00  0.00    -0.067 NA
HETATM   11  C   UNL     1     -45.204  61.378 -50.930  1.00  0.00     0.051 A 
HETATM   12  C   UNL     1     -46.654  61.222 -51.272  1.00  0.00     0.071 C 
HETATM   13  C   UNL     1     -44.702  62.614 -50.582  1.00  0.00     0.054 A 
HETATM   14  C   UNL     1     -43.364  62.662 -50.259  1.00  0.00     0.051 A 
HETATM   15  N   UNL     1     -42.577  61.566 -50.281  1.00  0.00    -0.067 NA
HETATM   16  C   UNL     1     -42.720  63.965 -49.887  1.00  0.00     0.071 C 
ENDBRANCH   1   9
BRANCH   3  17
HETATM   17  C   UNL     1     -41.520  56.612 -50.162  1.00  0.00     0.142 C 
BRANCH  17  18
HETATM   18  C   UNL     1     -42.641  55.607 -50.461  1.00  0.00     0.061 C 
BRANCH  18  19
HETATM   19  C   UNL     1     -42.471  54.884 -51.764  1.00  0.00    -0.029 A 
HETATM   20  C   UNL     1     -41.491  53.887 -52.074  1.00  0.00    -0.002 A 
HETATM   21  C   UNL     1     -41.701  53.489 -53.393  1.00  0.00     0.045 A 
HETATM   22  C   UNL     1     -40.438  53.285 -51.354  1.00  0.00     0.017 A 
HETATM   23  C   UNL     1     -40.924  52.507 -54.019  1.00  0.00     0.067 A 
HETATM   24  N   UNL     1     -42.743  54.242 -53.883  1.00  0.00    -0.365 N 
HETATM   25  C   UNL     1     -39.887  51.920 -53.285  1.00  0.00     0.070 A 
HETATM   26  C   UNL     1     -39.643  52.306 -51.968  1.00  0.00     0.038 A 
HETATM   27  H   UNL     1     -43.093  54.197 -54.832  1.00  0.00     0.165 HD
HETATM   28  C   UNL     1     -43.220  55.077 -52.909  1.00  0.00     0.096 A 
BRANCH  25  29
HETATM   29  O   UNL     1     -39.222  50.917 -53.940  1.00  0.00    -0.356 OA
HETATM   30  C   UNL     1     -40.027  49.833 -54.396  1.00  0.00     0.210 C 
ENDBRANCH  25  29
ENDBRANCH  18  19
ENDBRANCH  17  18
ENDBRANCH   3  17
BRANCH   5  31
HETATM   31  C   UNL     1     -41.868  58.989 -55.299  1.00  0.00     0.340 C 
BRANCH  31  32
HETATM   32  N   UNL     1     -42.979  58.272 -56.075  1.00  0.00    -0.060 N 
HETATM   33  H   UNL     1     -43.342  57.545 -55.440  1.00  0.00     0.280 HD
HETATM   34  C   UNL     1     -44.150  59.210 -56.362  1.00  0.00     0.255 C 
HETATM   35  C   UNL     1     -45.252  58.502 -57.174  1.00  0.00     0.150 C 
HETATM   36  N   UNL     1     -44.675  57.881 -58.391  1.00  0.00    -0.378 N 
HETATM   37  C   UNL     1     -43.587  56.924 -58.117  1.00  0.00     0.150 C 
HETATM   38  C   UNL     1     -42.454  57.624 -57.342  1.00  0.00     0.255 C 
BRANCH  36  39
HETATM   39  C   UNL     1     -45.622  57.542 -59.368  1.00  0.00     0.030 A 
HETATM   40  C   UNL     1     -45.705  56.209 -59.816  1.00  0.00     0.032 A 
HETATM   41  C   UNL     1     -46.649  55.812 -60.767  1.00  0.00     0.044 A 
HETATM   42  C   UNL     1     -47.531  56.748 -61.283  1.00  0.00     0.116 A 
HETATM   43  F   UNL     1     -48.440  56.373 -62.191  1.00  0.00    -0.206 F 
HETATM   44  C   UNL     1     -47.485  58.068 -60.862  1.00  0.00     0.044 A 
HETATM   45  C   UNL     1     -46.538  58.460 -59.909  1.00  0.00     0.032 A 
ENDBRANCH  36  39
ENDBRANCH  31  32
ENDBRANCH   5  31
TORSDOF 8
ENDMDL
MODEL 2
REMARK VINA RESULT:      -8.9      4.038      8.758
REMARK  8 active torsions:
REMARK  status: ('A' for Active; 'I' for Inactive)
REMARK    1  A    between atoms: C_4  and  N_5 
REMARK       I    between atoms: N_5  and  C_6 
REMARK       I    between atoms: C_6  and  N_7 
REMARK    2  A    between atoms: N_7  and  C_8 
REMARK    3  A    between atoms: C_8  and  C_9 
REMARK    4  A    between atoms: C_9  and  C_10 
REMARK    5  A    between atoms: C_14  and  O_15 
REMARK       I    between atoms: N_22  and  C_23 
REMARK    6  A    between atoms: C_23  and  C_24 
REMARK    7  A    between atoms: C_24  and  N_25 
REMARK    8  A    between atoms: N_29  and  C_30 
ROOT
HETATM    1  N   UNL     1     -44.272  59.042 -52.021  1.00  0.00    -0.017 N 
HETATM    2  C   UNL     1     -44.633  58.928 -53.329  1.00  0.00     0.718 C 
HETATM    3  N   UNL     1     -45.633  59.802 -53.682  1.00  0.00    -0.223 N 
HETATM    4  N   UNL     1     -44.098  58.052 -54.120  1.00  0.00    -0.026 NA
HETATM    5  C   UNL     1     -44.466  57.919 -55.424  1.00  0.00     0.286 C 
HETATM    6  O   UNL     1     -45.357  58.523 -56.023  1.00  0.00    -0.269 OA
HETATM    7  H   UNL     1     -45.013  59.152 -51.348  1.00  0.00     0.203 HD
HETATM    8  H   UNL     1     -45.842  59.779 -54.682  1.00  0.00     0.177 HD
ENDROOT
BRANCH   1   9
HETATM    9  C   UNL     1     -43.185  58.426 -51.410  1.00  0.00     0.741 A 
HETATM   10  N   UNL     1     -43.234  57.133 -51.041  1.00  0.00    -0.067 NA
HETATM   11  C   UNL     1     -42.115  56.587 -50.520  1.00  0.00     0.051 A 
HETATM   12  C   UNL     1     -42.170  55.141 -50.132  1.00  0.00     0.071 C 
HETATM   13  C   UNL     1     -40.956  57.311 -50.341  1.00  0.00     0.054 A 
HETATM   14  C   UNL     1     -40.986  58.627 -50.749  1.00  0.00     0.051 A 
HETATM   15  N   UNL     1     -42.087  59.188 -51.293  1.00  0.00    -0.067 NA
HETATM   16  C   UNL     1     -39.780  59.502 -50.576  1.00  0.00     0.071 C 
ENDBRANCH   1   9
BRANCH   3  17
HETATM   17  C   UNL     1     -45.783  61.156 -53.146  1.00  0.00     0.142 C 
BRANCH  17  18
HETATM   18  C   UNL     1     -47.045  61.331 -52.290  1.00  0.00     0.061 C 
BRANCH  18  19
HETATM   19  C   UNL     1     -46.870  62.284 -51.145  1.00  0.00    -0.029 A 
HETATM   20  C   UNL     1     -46.303  61.993 -49.863  1.00  0.00    -0.002 A 
HETATM   21  C   UNL     1     -46.338  63.168 -49.114  1.00  0.00     0.045 A 
HETATM   22  C   UNL     1     -45.765  60.834 -49.264  1.00  0.00     0.017 A 
HETATM   23  C   UNL     1     -45.842  63.246 -47.806  1.00  0.00     0.067 A 
HETATM   24  N   UNL     1     -46.938  64.129 -49.893  1.00  0.00    -0.365 N 
HETATM   25  C   UNL     1     -45.310  62.086 -47.233  1.00  0.00     0.070 A 
HETATM   26  C   UNL     1     -45.274  60.891 -47.952  1.00  0.00     0.038 A 
HETATM   27  H   UNL     1     -47.134  65.077 -49.595  1.00  0.00     0.165 HD
HETATM   28  C   UNL     1     -47.253  63.611 -51.121  1.00  0.00     0.096 A 
BRANCH  25  29
HETATM   29  O   UNL     1     -44.779  62.259 -45.982  1.00  0.00    -0.356 OA
HETATM   30  C   UNL     1     -44.640  61.078 -45.197  1.00  0.00     0.210 C 
ENDBRANCH  25  29
ENDBRANCH  18  19
ENDBRANCH  17  18
ENDBRANCH   3  17
BRANCH   5  31
HETATM   31  C   UNL     1     -43.659  56.836 -56.143  1.00  0.00     0.340 C 
BRANCH  31  32
HETATM   32  N   UNL     1     -42.753  56.034 -55.202  1.00  0.00    -0.060 N 
HETATM   33  H   UNL     1     -42.433  56.701 -54.483  1.00  0.00     0.280 HD
HETATM   34  C   UNL     1     -43.538  54.953 -54.462  1.00  0.00     0.255 C 
HETATM   35  C   UNL     1     -42.621  54.122 -53.542  1.00  0.00     0.150 C 
HETATM   36  N   UNL     1     -41.465  53.598 -54.308  1.00  0.00    -0.378 N 
HETATM   37  C   UNL     1     -40.663  54.642 -54.972  1.00  0.00     0.150 C 
HETATM   38  C   UNL     1     -41.553  55.459 -55.929  1.00  0.00     0.255 C 
BRANCH  36  39
HETATM   39  C   UNL     1     -40.785  52.546 -53.676  1.00  0.00     0.030 A 
HETATM   40  C   UNL     1     -40.425  52.673 -52.321  1.00  0.00     0.032 A 
HETATM   41  C   UNL     1     -39.774  51.644 -51.636  1.00  0.00     0.044 A 
HETATM   42  C   UNL     1     -39.475  50.465 -52.300  1.00  0.00     0.116 A 
HETATM   43  F   UNL     1     -38.855  49.475 -51.649  1.00  0.00    -0.206 F 
HETATM   44  C   UNL     1     -39.820  50.300 -53.633  1.00  0.00     0.044 A 
HETATM   45  C   UNL     1     -40.474  51.334 -54.314  1.00  0.00     0.032 A 
ENDBRANCH  36  39
ENDBRANCH  31  32
ENDBRANCH   5  31
TORSDOF 8
ENDMDL
MODEL 3
REMARK VINA RESULT:      -8.9      1.785      2.448
REMARK  8 active torsions:
REMARK  status: ('A' for Active; 'I' for Inactive)
REMARK    1  A    between atoms: C_4  and  N_5 
REMARK       I    between atoms: N_5  and  C_6 
REMARK       I    between atoms: C_6  and  N_7 
REMARK    2  A    between atoms: N_7  and  C_8 
REMARK    3  A    between atoms: C_8  and  C_9 
REMARK    4  A    between atoms: C_9  and  C_10 
REMARK    5  A    between atoms: C_14  and  O_15 
REMARK       I    between atoms: N_22  and  C_23 
REMARK    6  A    between atoms: C_23  and  C_24 
REMARK    7  A    between atoms: C_24  and  N_25 
REMARK    8  A    between atoms: N_29  and  C_30 
ROOT
HETATM    1  N   UNL     1     -42.838  60.164 -50.227  1.00  0.00    -0.017 N 
HETATM    2  C   UNL     1     -42.289  59.980 -51.460  1.00  0.00     0.718 C 
HETATM    3  N   UNL     1     -41.276  59.052 -51.456  1.00  0.00    -0.223 N 
HETATM    4  N   UNL     1     -42.677  60.653 -52.497  1.00  0.00    -0.026 NA
HETATM    5  C   UNL     1     -42.122  60.487 -53.729  1.00  0.00     0.286 C 
HETATM    6  O   UNL     1     -41.173  59.766 -54.039  1.00  0.00    -0.269 OA
HETATM    7  H   UNL     1     -42.205  60.212 -49.445  1.00  0.00     0.203 HD
HETATM    8  H   UNL     1     -40.925  58.848 -52.394  1.00  0.00     0.177 HD
ENDROOT
BRANCH   1   9
HETATM    9  C   UNL     1     -43.982  60.900 -49.936  1.00  0.00     0.741 A 
HETATM   10  N   UNL     1     -44.920  61.131 -50.873  1.00  0.00    -0.067 NA
HETATM   11  C   UNL     1     -46.034  61.791 -50.495  1.00  0.00     0.051 A 
HETATM   12  C   UNL     1     -47.084  62.025 -51.538  1.00  0.00     0.071 C 
HETATM   13  C   UNL     1     -46.222  62.243 -49.206  1.00  0.00     0.054 A 
HETATM   14  C   UNL     1     -45.218  61.963 -48.306  1.00  0.00     0.051 A 
HETATM   15  N   UNL     1     -44.104  61.285 -48.656  1.00  0.00    -0.067 NA
HETATM   16  C   UNL     1     -45.321  62.431 -46.886  1.00  0.00     0.071 C 
ENDBRANCH   1   9
BRANCH   3  17
HETATM   17  C   UNL     1     -41.246  57.855 -50.613  1.00  0.00     0.142 C 
BRANCH  17  18
HETATM   18  C   UNL     1     -41.910  56.636 -51.271  1.00  0.00     0.061 C 
BRANCH  18  19
HETATM   19  C   UNL     1     -41.232  55.337 -50.954  1.00  0.00    -0.029 A 
HETATM   20  C   UNL     1     -40.851  54.316 -51.884  1.00  0.00    -0.002 A 
HETATM   21  C   UNL     1     -40.252  53.290 -51.155  1.00  0.00     0.045 A 
HETATM   22  C   UNL     1     -40.963  54.167 -53.282  1.00  0.00     0.017 A 
HETATM   23  C   UNL     1     -39.743  52.133 -51.758  1.00  0.00     0.067 A 
HETATM   24  N   UNL     1     -40.301  53.650 -49.829  1.00  0.00    -0.365 N 
HETATM   25  C   UNL     1     -39.861  52.007 -53.147  1.00  0.00     0.070 A 
HETATM   26  C   UNL     1     -40.467  53.011 -53.902  1.00  0.00     0.038 A 
HETATM   27  H   UNL     1     -39.973  53.078 -49.061  1.00  0.00     0.165 HD
HETATM   28  C   UNL     1     -40.879  54.884 -49.697  1.00  0.00     0.096 A 
BRANCH  25  29
HETATM   29  O   UNL     1     -39.274  50.885 -53.670  1.00  0.00    -0.356 OA
HETATM   30  C   UNL     1     -40.151  49.974 -54.328  1.00  0.00     0.210 C 
ENDBRANCH  25  29
ENDBRANCH  18  19
ENDBRANCH  17  18
ENDBRANCH   3  17
BRANCH   5  31
HETATM   31  C   UNL     1     -42.783  61.377 -54.783  1.00  0.00     0.340 C 
BRANCH  31  32
HETATM   32  N   UNL     1     -43.460  60.581 -55.906  1.00  0.00    -0.060 N 
HETATM   33  H   UNL     1     -44.147  61.222 -56.331  1.00  0.00     0.280 HD
HETATM   34  C   UNL     1     -42.467  60.225 -57.011  1.00  0.00     0.255 C 
HETATM   35  C   UNL     1     -43.137  59.393 -58.123  1.00  0.00     0.150 C 
HETATM   36  N   UNL     1     -43.825  58.216 -57.540  1.00  0.00    -0.378 N 
HETATM   37  C   UNL     1     -44.831  58.556 -56.517  1.00  0.00     0.150 C 
HETATM   38  C   UNL     1     -44.173  59.352 -55.375  1.00  0.00     0.255 C 
BRANCH  36  39
HETATM   39  C   UNL     1     -44.139  57.214 -58.470  1.00  0.00     0.030 A 
HETATM   40  C   UNL     1     -45.239  57.393 -59.330  1.00  0.00     0.032 A 
HETATM   41  C   UNL     1     -45.579  56.440 -60.294  1.00  0.00     0.044 A 
HETATM   42  C   UNL     1     -44.815  55.290 -60.414  1.00  0.00     0.116 A 
HETATM   43  F   UNL     1     -45.133  54.375 -61.337  1.00  0.00    -0.206 F 
HETATM   44  C   UNL     1     -43.720  55.081 -59.589  1.00  0.00     0.044 A 
HETATM   45  C   UNL     1     -43.384  56.040 -58.626  1.00  0.00     0.032 A 
ENDBRANCH  36  39
ENDBRANCH  31  32
ENDBRANCH   5  31
TORSDOF 8
ENDMDL
MODEL 4
REMARK VINA RESULT:      -8.9      3.675      9.857
REMARK  8 active torsions:
REMARK  status: ('A' for Active; 'I' for Inactive)
REMARK    1  A    between atoms: C_4  and  N_5 
REMARK       I    between atoms: N_5  and  C_6 
REMARK       I    between atoms: C_6  and  N_7 
REMARK    2  A    between atoms: N_7  and  C_8 
REMARK    3  A    between atoms: C_8  and  C_9 
REMARK    4  A    between atoms: C_9  and  C_10 
REMARK    5  A    between atoms: C_14  and  O_15 
REMARK       I    between atoms: N_22  and  C_23 
REMARK    6  A    between atoms: C_23  and  C_24 
REMARK    7  A    between atoms: C_24  and  N_25 
REMARK    8  A    between atoms: N_29  and  C_30 
ROOT
HETATM    1  N   UNL     1     -41.015  54.510 -55.103  1.00  0.00    -0.017 N 
HETATM    2  C   UNL     1     -41.411  55.808 -54.987  1.00  0.00     0.718 C 
HETATM    3  N   UNL     1     -41.974  56.296 -56.140  1.00  0.00    -0.223 N 
HETATM    4  N   UNL     1     -41.226  56.492 -53.902  1.00  0.00    -0.026 NA
HETATM    5  C   UNL     1     -41.603  57.795 -53.783  1.00  0.00     0.286 C 
HETATM    6  O   UNL     1     -42.092  58.522 -54.649  1.00  0.00    -0.269 OA
HETATM    7  H   UNL     1     -40.556  54.245 -55.960  1.00  0.00     0.203 HD
HETATM    8  H   UNL     1     -42.351  57.239 -56.026  1.00  0.00     0.177 HD
ENDROOT
BRANCH   1   9
HETATM    9  C   UNL     1     -40.573  53.688 -54.072  1.00  0.00     0.741 A 
HETATM   10  N   UNL     1     -40.513  54.132 -52.803  1.00  0.00    -0.067 NA
HETATM   11  C   UNL     1     -40.142  53.253 -51.849  1.00  0.00     0.051 A 
HETATM   12  C   UNL     1     -40.099  53.748 -50.436  1.00  0.00     0.071 C 
HETATM   13  C   UNL     1     -39.810  51.946 -52.138  1.00  0.00     0.054 A 
HETATM   14  C   UNL     1     -39.901  51.569 -53.460  1.00  0.00     0.051 A 
HETATM   15  N   UNL     1     -40.291  52.425 -54.428  1.00  0.00    -0.067 NA
HETATM   16  C   UNL     1     -39.541  50.175 -53.877  1.00  0.00     0.071 C 
ENDBRANCH   1   9
BRANCH   3  17
HETATM   17  C   UNL     1     -42.796  55.511 -57.064  1.00  0.00     0.142 C 
BRANCH  17  18
HETATM   18  C   UNL     1     -42.839  56.097 -58.482  1.00  0.00     0.061 C 
BRANCH  18  19
HETATM   19  C   UNL     1     -44.072  55.725 -59.251  1.00  0.00    -0.029 A 
HETATM   20  C   UNL     1     -45.078  56.615 -59.747  1.00  0.00    -0.002 A 
HETATM   21  C   UNL     1     -46.035  55.840 -60.400  1.00  0.00     0.045 A 
HETATM   22  C   UNL     1     -45.269  58.012 -59.697  1.00  0.00     0.017 A 
HETATM   23  C   UNL     1     -47.160  56.396 -61.023  1.00  0.00     0.067 A 
HETATM   24  N   UNL     1     -45.650  54.526 -60.275  1.00  0.00    -0.365 N 
HETATM   25  C   UNL     1     -47.327  57.784 -60.964  1.00  0.00     0.070 A 
HETATM   26  C   UNL     1     -46.394  58.584 -60.306  1.00  0.00     0.038 A 
HETATM   27  H   UNL     1     -46.176  53.733 -60.621  1.00  0.00     0.165 HD
HETATM   28  C   UNL     1     -44.465  54.446 -59.595  1.00  0.00     0.096 A 
BRANCH  25  29
HETATM   29  O   UNL     1     -48.410  58.258 -61.659  1.00  0.00    -0.356 OA
HETATM   30  C   UNL     1     -49.091  57.306 -62.471  1.00  0.00     0.210 C 
ENDBRANCH  25  29
ENDBRANCH  18  19
ENDBRANCH  17  18
ENDBRANCH   3  17
BRANCH   5  31
HETATM   31  C   UNL     1     -41.301  58.358 -52.393  1.00  0.00     0.340 C 
BRANCH  31  32
HETATM   32  N   UNL     1     -42.339  59.383 -51.919  1.00  0.00    -0.060 N 
HETATM   33  H   UNL     1     -42.563  59.958 -52.745  1.00  0.00     0.280 HD
HETATM   34  C   UNL     1     -43.643  58.703 -51.506  1.00  0.00     0.255 C 
HETATM   35  C   UNL     1     -44.675  59.728 -50.994  1.00  0.00     0.150 C 
HETATM   36  N   UNL     1     -44.078  60.568 -49.928  1.00  0.00    -0.378 N 
HETATM   37  C   UNL     1     -42.854  61.279 -50.340  1.00  0.00     0.150 C 
HETATM   38  C   UNL     1     -41.793  60.268 -50.815  1.00  0.00     0.255 C 
BRANCH  36  39
HETATM   39  C   UNL     1     -45.017  61.263 -49.151  1.00  0.00     0.030 A 
HETATM   40  C   UNL     1     -44.926  61.206 -47.747  1.00  0.00     0.032 A 
HETATM   41  C   UNL     1     -45.817  61.902 -46.926  1.00  0.00     0.044 A 
HETATM   42  C   UNL     1     -46.814  62.673 -47.502  1.00  0.00     0.116 A 
HETATM   43  F   UNL     1     -47.668  63.346 -46.721  1.00  0.00    -0.206 F 
HETATM   44  C   UNL     1     -46.931  62.760 -48.881  1.00  0.00     0.044 A 
HETATM   45  C   UNL     1     -46.035  62.061 -49.699  1.00  0.00     0.032 A 
ENDBRANCH  36  39
ENDBRANCH  31  32
ENDBRANCH   5  31
TORSDOF 8
ENDMDL
MODEL 5
REMARK VINA RESULT:      -8.9      3.441      7.690
REMARK  8 active torsions:
REMARK  status: ('A' for Active; 'I' for Inactive)
REMARK    1  A    between atoms: C_4  and  N_5 
REMARK       I    between atoms: N_5  and  C_6 
REMARK       I    between atoms: C_6  and  N_7 
REMARK    2  A    between atoms: N_7  and  C_8 
REMARK    3  A    between atoms: C_8  and  C_9 
REMARK    4  A    between atoms: C_9  and  C_10 
REMARK    5  A    between atoms: C_14  and  O_15 
REMARK       I    between atoms: N_22  and  C_23 
REMARK    6  A    between atoms: C_23  and  C_24 
REMARK    7  A    between atoms: C_24  and  N_25 
REMARK    8  A    between atoms: N_29  and  C_30 
ROOT
HETATM    1  N   UNL     1     -42.132  60.616 -54.402  1.00  0.00    -0.017 N 
HETATM    2  C   UNL     1     -42.933  59.883 -55.225  1.00  0.00     0.718 C 
HETATM    3  N   UNL     1     -42.739  60.176 -56.552  1.00  0.00    -0.223 N 
HETATM    4  N   UNL     1     -43.801  59.035 -54.769  1.00  0.00    -0.026 NA
HETATM    5  C   UNL     1     -44.617  58.311 -55.584  1.00  0.00     0.286 C 
HETATM    6  O   UNL     1     -44.712  58.378 -56.810  1.00  0.00    -0.269 OA
HETATM    7  H   UNL     1     -42.020  61.592 -54.622  1.00  0.00     0.203 HD
HETATM    8  H   UNL     1     -43.273  59.564 -57.173  1.00  0.00     0.177 HD
ENDROOT
BRANCH   1   9
HETATM    9  C   UNL     1     -41.969  60.432 -53.033  1.00  0.00     0.741 A 
HETATM   10  N   UNL     1     -40.994  59.642 -52.546  1.00  0.00    -0.067 NA
HETATM   11  C   UNL     1     -40.856  59.572 -51.206  1.00  0.00     0.051 A 
HETATM   12  C   UNL     1     -39.755  58.708 -50.671  1.00  0.00     0.071 C 
HETATM   13  C   UNL     1     -41.683  60.257 -50.342  1.00  0.00     0.054 A 
HETATM   14  C   UNL     1     -42.653  61.047 -50.919  1.00  0.00     0.051 A 
HETATM   15  N   UNL     1     -42.796  61.151 -52.258  1.00  0.00    -0.067 NA
HETATM   16  C   UNL     1     -43.614  61.816 -50.062  1.00  0.00     0.071 C 
ENDBRANCH   1   9
BRANCH   3  17
HETATM   17  C   UNL     1     -41.448  60.529 -57.148  1.00  0.00     0.142 C 
BRANCH  17  18
HETATM   18  C   UNL     1     -41.537  60.823 -58.652  1.00  0.00     0.061 C 
BRANCH  18  19
HETATM   19  C   UNL     1     -42.711  60.174 -59.325  1.00  0.00    -0.029 A 
HETATM   20  C   UNL     1     -42.872  58.782 -59.619  1.00  0.00    -0.002 A 
HETATM   21  C   UNL     1     -44.109  58.628 -60.244  1.00  0.00     0.045 A 
HETATM   22  C   UNL     1     -42.078  57.634 -59.415  1.00  0.00     0.017 A 
HETATM   23  C   UNL     1     -44.598  57.382 -60.655  1.00  0.00     0.067 A 
HETATM   24  N   UNL     1     -44.663  59.881 -60.363  1.00  0.00    -0.365 N 
HETATM   25  C   UNL     1     -43.795  56.256 -60.440  1.00  0.00     0.070 A 
HETATM   26  C   UNL     1     -42.547  56.379 -59.830  1.00  0.00     0.038 A 
HETATM   27  H   UNL     1     -45.547  60.082 -60.814  1.00  0.00     0.165 HD
HETATM   28  C   UNL     1     -43.836  60.817 -59.804  1.00  0.00     0.096 A 
BRANCH  25  29
HETATM   29  O   UNL     1     -44.372  55.066 -60.801  1.00  0.00    -0.356 OA
HETATM   30  C   UNL     1     -44.691  54.181 -59.731  1.00  0.00     0.210 C 
ENDBRANCH  25  29
ENDBRANCH  18  19
ENDBRANCH  17  18
ENDBRANCH   3  17
BRANCH   5  31
HETATM   31  C   UNL     1     -45.523  57.363 -54.797  1.00  0.00     0.340 C 
BRANCH  31  32
HETATM   32  N   UNL     1     -44.801  56.098 -54.317  1.00  0.00    -0.060 N 
HETATM   33  H   UNL     1     -45.525  55.366 -54.256  1.00  0.00     0.280 HD
HETATM   34  C   UNL     1     -43.788  55.610 -55.351  1.00  0.00     0.255 C 
HETATM   35  C   UNL     1     -43.035  54.360 -54.855  1.00  0.00     0.150 C 
HETATM   36  N   UNL     1     -42.446  54.612 -53.518  1.00  0.00    -0.378 N 
HETATM   37  C   UNL     1     -43.427  55.021 -52.497  1.00  0.00     0.150 C 
HETATM   38  C   UNL     1     -44.163  56.295 -52.955  1.00  0.00     0.255 C 
BRANCH  36  39
HETATM   39  C   UNL     1     -41.448  53.698 -53.147  1.00  0.00     0.030 A 
HETATM   40  C   UNL     1     -41.031  53.642 -51.804  1.00  0.00     0.032 A 
HETATM   41  C   UNL     1     -40.062  52.730 -51.375  1.00  0.00     0.044 A 
HETATM   42  C   UNL     1     -39.498  51.855 -52.289  1.00  0.00     0.116 A 
HETATM   43  F   UNL     1     -38.572  50.978 -51.884  1.00  0.00    -0.206 F 
HETATM   44  C   UNL     1     -39.888  51.877 -53.619  1.00  0.00     0.044 A 
HETATM   45  C   UNL     1     -40.859  52.791 -54.043  1.00  0.00     0.032 A 
ENDBRANCH  36  39
ENDBRANCH  31  32
ENDBRANCH   5  31
TORSDOF 8
ENDMDL
MODEL 6
REMARK VINA RESULT:      -8.8      3.523      7.571
REMARK  8 active torsions:
REMARK  status: ('A' for Active; 'I' for Inactive)
REMARK    1  A    between atoms: C_4  and  N_5 
REMARK       I    between atoms: N_5  and  C_6 
REMARK       I    between atoms: C_6  and  N_7 
REMARK    2  A    between atoms: N_7  and  C_8 
REMARK    3  A    between atoms: C_8  and  C_9 
REMARK    4  A    between atoms: C_9  and  C_10 
REMARK    5  A    between atoms: C_14  and  O_15 
REMARK       I    between atoms: N_22  and  C_23 
REMARK    6  A    between atoms: C_23  and  C_24 
REMARK    7  A    between atoms: C_24  and  N_25 
REMARK    8  A    between atoms: N_29  and  C_30 
ROOT
HETATM    1  N   UNL     1     -46.288  61.502 -51.144  1.00  0.00    -0.017 N 
HETATM    2  C   UNL     1     -45.671  60.620 -51.980  1.00  0.00     0.718 C 
HETATM    3  N   UNL     1     -46.183  60.650 -53.254  1.00  0.00    -0.223 N 
HETATM    4  N   UNL     1     -44.729  59.827 -51.575  1.00  0.00    -0.026 NA
HETATM    5  C   UNL     1     -44.119  58.931 -52.399  1.00  0.00     0.286 C 
HETATM    6  O   UNL     1     -44.382  58.689 -53.578  1.00  0.00    -0.269 OA
HETATM    7  H   UNL     1     -47.291  61.571 -51.211  1.00  0.00     0.203 HD
HETATM    8  H   UNL     1     -45.662  60.055 -53.902  1.00  0.00     0.177 HD
ENDROOT
BRANCH   1   9
HETATM    9  C   UNL     1     -45.890  61.829 -49.853  1.00  0.00     0.741 A 
HETATM   10  N   UNL     1     -46.151  61.014 -48.814  1.00  0.00    -0.067 NA
HETATM   11  C   UNL     1     -45.669  61.367 -47.605  1.00  0.00     0.051 A 
HETATM   12  C   UNL     1     -45.945  60.444 -46.457  1.00  0.00     0.071 C 
HETATM   13  C   UNL     1     -44.949  62.526 -47.406  1.00  0.00     0.054 A 
HETATM   14  C   UNL     1     -44.720  63.303 -48.521  1.00  0.00     0.051 A 
HETATM   15  N   UNL     1     -45.173  62.959 -49.745  1.00  0.00    -0.067 NA
HETATM   16  C   UNL     1     -43.965  64.593 -48.403  1.00  0.00     0.071 C 
ENDBRANCH   1   9
BRANCH   3  17
HETATM   17  C   UNL     1     -46.674  61.854 -53.927  1.00  0.00     0.142 C 
BRANCH  17  18
HETATM   18  C   UNL     1     -46.230  61.950 -55.393  1.00  0.00     0.061 C 
BRANCH  18  19
HETATM   19  C   UNL     1     -44.815  61.512 -55.625  1.00  0.00    -0.029 A 
HETATM   20  C   UNL     1     -44.373  60.434 -56.457  1.00  0.00    -0.002 A 
HETATM   21  C   UNL     1     -42.982  60.387 -56.377  1.00  0.00     0.045 A 
HETATM   22  C   UNL     1     -45.028  59.486 -57.271  1.00  0.00     0.017 A 
HETATM   23  C   UNL     1     -42.215  59.454 -57.086  1.00  0.00     0.067 A 
HETATM   24  N   UNL     1     -42.592  61.372 -55.501  1.00  0.00    -0.365 N 
HETATM   25  C   UNL     1     -42.886  58.525 -57.890  1.00  0.00     0.070 A 
HETATM   26  C   UNL     1     -44.278  58.537 -57.980  1.00  0.00     0.038 A 
HETATM   27  H   UNL     1     -41.636  61.549 -55.217  1.00  0.00     0.165 HD
HETATM   28  C   UNL     1     -43.685  62.062 -55.050  1.00  0.00     0.096 A 
BRANCH  25  29
HETATM   29  O   UNL     1     -42.065  57.695 -58.608  1.00  0.00    -0.356 OA
HETATM   30  C   UNL     1     -41.885  58.037 -59.980  1.00  0.00     0.210 C 
ENDBRANCH  25  29
ENDBRANCH  18  19
ENDBRANCH  17  18
ENDBRANCH   3  17
BRANCH   5  31
HETATM   31  C   UNL     1     -43.023  58.141 -51.681  1.00  0.00     0.340 C 
BRANCH  31  32
HETATM   32  N   UNL     1     -42.752  56.772 -52.317  1.00  0.00    -0.060 N 
HETATM   33  H   UNL     1     -43.422  56.687 -53.097  1.00  0.00     0.280 HD
HETATM   34  C   UNL     1     -41.360  56.717 -52.942  1.00  0.00     0.255 C 
HETATM   35  C   UNL     1     -41.071  55.329 -53.550  1.00  0.00     0.150 C 
HETATM   36  N   UNL     1     -41.315  54.268 -52.544  1.00  0.00    -0.378 N 
HETATM   37  C   UNL     1     -42.678  54.275 -51.983  1.00  0.00     0.150 C 
HETATM   38  C   UNL     1     -42.972  55.640 -51.333  1.00  0.00     0.255 C 
BRANCH  36  39
HETATM   39  C   UNL     1     -40.738  53.029 -52.863  1.00  0.00     0.030 A 
HETATM   40  C   UNL     1     -40.026  52.325 -51.874  1.00  0.00     0.032 A 
HETATM   41  C   UNL     1     -39.456  51.075 -52.130  1.00  0.00     0.044 A 
HETATM   42  C   UNL     1     -39.596  50.507 -53.386  1.00  0.00     0.116 A 
HETATM   43  F   UNL     1     -39.055  49.309 -53.636  1.00  0.00    -0.206 F 
HETATM   44  C   UNL     1     -40.295  51.167 -54.385  1.00  0.00     0.044 A 
HETATM   45  C   UNL     1     -40.865  52.419 -54.122  1.00  0.00     0.032 A 
ENDBRANCH  36  39
ENDBRANCH  31  32
ENDBRANCH   5  31
TORSDOF 8
ENDMDL
MODEL 7
REMARK VINA RESULT:      -8.7      4.061      6.666
REMARK  8 active torsions:
REMARK  status: ('A' for Active; 'I' for Inactive)
REMARK    1  A    between atoms: C_4  and  N_5 
REMARK       I    between atoms: N_5  and  C_6 
REMARK       I    between atoms: C_6  and  N_7 
REMARK    2  A    between atoms: N_7  and  C_8 
REMARK    3  A    between atoms: C_8  and  C_9 
REMARK    4  A    between atoms: C_9  and  C_10 
REMARK    5  A    between atoms: C_14  and  O_15 
REMARK       I    between atoms: N_22  and  C_23 
REMARK    6  A    between atoms: C_23  and  C_24 
REMARK    7  A    between atoms: C_24  and  N_25 
REMARK    8  A    between atoms: N_29  and  C_30 
ROOT
HETATM    1  N   UNL     1     -42.670  57.093 -56.232  1.00  0.00    -0.017 N 
HETATM    2  C   UNL     1     -43.063  58.214 -55.566  1.00  0.00     0.718 C 
HETATM    3  N   UNL     1     -42.604  58.251 -54.273  1.00  0.00    -0.223 N 
HETATM    4  N   UNL     1     -43.821  59.113 -56.112  1.00  0.00    -0.026 NA
HETATM    5  C   UNL     1     -44.232  60.228 -55.449  1.00  0.00     0.286 C 
HETATM    6  O   UNL     1     -44.025  60.526 -54.271  1.00  0.00    -0.269 OA
HETATM    7  H   UNL     1     -42.713  56.222 -55.728  1.00  0.00     0.203 HD
HETATM    8  H   UNL     1     -42.822  59.132 -53.801  1.00  0.00     0.177 HD
ENDROOT
BRANCH   1   9
HETATM    9  C   UNL     1     -42.827  56.845 -57.592  1.00  0.00     0.741 A 
HETATM   10  N   UNL     1     -43.532  55.786 -58.031  1.00  0.00    -0.067 NA
HETATM   11  C   UNL     1     -43.699  55.655 -59.363  1.00  0.00     0.051 A 
HETATM   12  C   UNL     1     -44.504  54.486 -59.844  1.00  0.00     0.071 C 
HETATM   13  C   UNL     1     -43.160  56.546 -60.266  1.00  0.00     0.054 A 
HETATM   14  C   UNL     1     -42.456  57.604 -59.736  1.00  0.00     0.051 A 
HETATM   15  N   UNL     1     -42.294  57.769 -58.406  1.00  0.00    -0.067 NA
HETATM   16  C   UNL     1     -41.814  58.615 -60.639  1.00  0.00     0.071 C 
ENDBRANCH   1   9
BRANCH   3  17
HETATM   17  C   UNL     1     -41.308  57.729 -53.833  1.00  0.00     0.142 C 
BRANCH  17  18
HETATM   18  C   UNL     1     -41.431  56.560 -52.846  1.00  0.00     0.061 C 
BRANCH  18  19
HETATM   19  C   UNL     1     -40.934  55.255 -53.392  1.00  0.00    -0.029 A 
HETATM   20  C   UNL     1     -40.586  54.085 -52.643  1.00  0.00    -0.002 A 
HETATM   21  C   UNL     1     -40.178  53.112 -53.553  1.00  0.00     0.045 A 
HETATM   22  C   UNL     1     -40.575  53.763 -51.269  1.00  0.00     0.017 A 
HETATM   23  C   UNL     1     -39.780  51.828 -53.159  1.00  0.00     0.067 A 
HETATM   24  N   UNL     1     -40.237  53.677 -54.806  1.00  0.00    -0.365 N 
HETATM   25  C   UNL     1     -39.780  51.529 -51.792  1.00  0.00     0.070 A 
HETATM   26  C   UNL     1     -40.170  52.486 -50.856  1.00  0.00     0.038 A 
HETATM   27  H   UNL     1     -39.961  53.214 -55.663  1.00  0.00     0.165 HD
HETATM   28  C   UNL     1     -40.700  54.961 -54.722  1.00  0.00     0.096 A 
BRANCH  25  29
HETATM   29  O   UNL     1     -39.452  50.233 -51.492  1.00  0.00    -0.356 OA
HETATM   30  C   UNL     1     -39.524  49.308 -52.574  1.00  0.00     0.210 C 
ENDBRANCH  25  29
ENDBRANCH  18  19
ENDBRANCH  17  18
ENDBRANCH   3  17
BRANCH   5  31
HETATM   31  C   UNL     1     -45.090  61.139 -56.329  1.00  0.00     0.340 C 
BRANCH  31  32
HETATM   32  N   UNL     1     -44.278  61.889 -57.391  1.00  0.00    -0.060 N 
HETATM   33  H   UNL     1     -44.822  62.737 -57.615  1.00  0.00     0.280 HD
HETATM   34  C   UNL     1     -42.943  62.375 -56.830  1.00  0.00     0.255 C 
HETATM   35  C   UNL     1     -42.109  63.098 -57.907  1.00  0.00     0.150 C 
HETATM   36  N   UNL     1     -41.972  62.242 -59.110  1.00  0.00    -0.378 N 
HETATM   37  C   UNL     1     -43.258  61.822 -59.696  1.00  0.00     0.150 C 
HETATM   38  C   UNL     1     -44.090  61.060 -58.647  1.00  0.00     0.255 C 
BRANCH  36  39
HETATM   39  C   UNL     1     -40.945  62.634 -59.981  1.00  0.00     0.030 A 
HETATM   40  C   UNL     1     -41.056  62.340 -61.354  1.00  0.00     0.032 A 
HETATM   41  C   UNL     1     -40.076  62.733 -62.270  1.00  0.00     0.044 A 
HETATM   42  C   UNL     1     -38.968  63.433 -61.822  1.00  0.00     0.116 A 
HETATM   43  F   UNL     1     -38.028  63.816 -62.695  1.00  0.00    -0.206 F 
HETATM   44  C   UNL     1     -38.826  63.748 -60.479  1.00  0.00     0.044 A 
HETATM   45  C   UNL     1     -39.811  63.353 -59.566  1.00  0.00     0.032 A 
ENDBRANCH  36  39
ENDBRANCH  31  32
ENDBRANCH   5  31
TORSDOF 8
ENDMDL
MODEL 8
REMARK VINA RESULT:      -8.7      3.653      7.726
REMARK  8 active torsions:
REMARK  status: ('A' for Active; 'I' for Inactive)
REMARK    1  A    between atoms: C_4  and  N_5 
REMARK       I    between atoms: N_5  and  C_6 
REMARK       I    between atoms: C_6  and  N_7 
REMARK    2  A    between atoms: N_7  and  C_8 
REMARK    3  A    between atoms: C_8  and  C_9 
REMARK    4  A    between atoms: C_9  and  C_10 
REMARK    5  A    between atoms: C_14  and  O_15 
REMARK       I    between atoms: N_22  and  C_23 
REMARK    6  A    between atoms: C_23  and  C_24 
REMARK    7  A    between atoms: C_24  and  N_25 
REMARK    8  A    between atoms: N_29  and  C_30 
ROOT
HETATM    1  N   UNL     1     -43.378  61.773 -54.343  1.00  0.00    -0.017 N 
HETATM    2  C   UNL     1     -43.928  61.111 -55.399  1.00  0.00     0.718 C 
HETATM    3  N   UNL     1     -44.160  61.931 -56.476  1.00  0.00    -0.223 N 
HETATM    4  N   UNL     1     -44.223  59.850 -55.347  1.00  0.00    -0.026 NA
HETATM    5  C   UNL     1     -44.789  59.185 -56.392  1.00  0.00     0.286 C 
HETATM    6  O   UNL     1     -45.155  59.649 -57.473  1.00  0.00    -0.269 OA
HETATM    7  H   UNL     1     -43.753  62.683 -54.127  1.00  0.00     0.203 HD
HETATM    8  H   UNL     1     -44.489  61.420 -57.298  1.00  0.00     0.177 HD
ENDROOT
BRANCH   1   9
HETATM    9  C   UNL     1     -42.873  61.197 -53.183  1.00  0.00     0.741 A 
HETATM   10  N   UNL     1     -43.423  61.452 -51.981  1.00  0.00    -0.067 NA
HETATM   11  C   UNL     1     -42.923  60.798 -50.912  1.00  0.00     0.051 A 
HETATM   12  C   UNL     1     -43.554  61.070 -49.581  1.00  0.00     0.071 C 
HETATM   13  C   UNL     1     -41.872  59.912 -51.015  1.00  0.00     0.054 A 
HETATM   14  C   UNL     1     -41.368  59.703 -52.280  1.00  0.00     0.051 A 
HETATM   15  N   UNL     1     -41.867  60.328 -53.367  1.00  0.00    -0.067 NA
HETATM   16  C   UNL     1     -40.211  58.772 -52.490  1.00  0.00     0.071 C 
ENDBRANCH   1   9
BRANCH   3  17
HETATM   17  C   UNL     1     -43.308  63.057 -56.866  1.00  0.00     0.142 C 
BRANCH  17  18
HETATM   18  C   UNL     1     -42.181  62.657 -57.828  1.00  0.00     0.061 C 
BRANCH  18  19
HETATM   19  C   UNL     1     -42.633  61.774 -58.953  1.00  0.00    -0.029 A 
HETATM   20  C   UNL     1     -42.416  60.364 -59.081  1.00  0.00    -0.002 A 
HETATM   21  C   UNL     1     -43.007  59.958 -60.276  1.00  0.00     0.045 A 
HETATM   22  C   UNL     1     -41.766  59.392 -58.291  1.00  0.00     0.017 A 
HETATM   23  C   UNL     1     -42.997  58.626 -60.709  1.00  0.00     0.067 A 
HETATM   24  N   UNL     1     -43.529  61.080 -60.874  1.00  0.00    -0.365 N 
HETATM   25  C   UNL     1     -42.350  57.678 -59.908  1.00  0.00     0.070 A 
HETATM   26  C   UNL     1     -41.738  58.056 -58.714  1.00  0.00     0.038 A 
HETATM   27  H   UNL     1     -43.987  61.095 -61.777  1.00  0.00     0.165 HD
HETATM   28  C   UNL     1     -43.320  62.177 -60.082  1.00  0.00     0.096 A 
BRANCH  25  29
HETATM   29  O   UNL     1     -42.448  56.388 -60.360  1.00  0.00    -0.356 OA
HETATM   30  C   UNL     1     -43.626  55.683 -59.976  1.00  0.00     0.210 C 
ENDBRANCH  25  29
ENDBRANCH  18  19
ENDBRANCH  17  18
ENDBRANCH   3  17
BRANCH   5  31
HETATM   31  C   UNL     1     -45.005  57.703 -56.082  1.00  0.00     0.340 C 
BRANCH  31  32
HETATM   32  N   UNL     1     -43.795  57.045 -55.408  1.00  0.00    -0.060 N 
HETATM   33  H   UNL     1     -43.094  57.793 -55.297  1.00  0.00     0.280 HD
HETATM   34  C   UNL     1     -44.137  56.568 -53.998  1.00  0.00     0.255 C 
HETATM   35  C   UNL     1     -42.933  55.874 -53.331  1.00  0.00     0.150 C 
HETATM   36  N   UNL     1     -42.408  54.802 -54.211  1.00  0.00    -0.378 N 
HETATM   37  C   UNL     1     -42.015  55.266 -55.553  1.00  0.00     0.150 C 
HETATM   38  C   UNL     1     -43.217  55.927 -56.254  1.00  0.00     0.255 C 
BRANCH  36  39
HETATM   39  C   UNL     1     -41.573  53.881 -53.560  1.00  0.00     0.030 A 
HETATM   40  C   UNL     1     -40.848  52.947 -54.325  1.00  0.00     0.032 A 
HETATM   41  C   UNL     1     -39.981  52.027 -53.730  1.00  0.00     0.044 A 
HETATM   42  C   UNL     1     -39.824  52.031 -52.353  1.00  0.00     0.116 A 
HETATM   43  F   UNL     1     -38.992  51.154 -51.777  1.00  0.00    -0.206 F 
HETATM   44  C   UNL     1     -40.517  52.939 -51.566  1.00  0.00     0.044 A 
HETATM   45  C   UNL     1     -41.383  53.859 -52.168  1.00  0.00     0.032 A 
ENDBRANCH  36  39
ENDBRANCH  31  32
ENDBRANCH   5  31
TORSDOF 8
ENDMDL
MODEL 9
REMARK VINA RESULT:      -8.6      3.002      4.309
REMARK  8 active torsions:
REMARK  status: ('A' for Active; 'I' for Inactive)
REMARK    1  A    between atoms: C_4  and  N_5 
REMARK       I    between atoms: N_5  and  C_6 
REMARK       I    between atoms: C_6  and  N_7 
REMARK    2  A    between atoms: N_7  and  C_8 
REMARK    3  A    between atoms: C_8  and  C_9 
REMARK    4  A    between atoms: C_9  and  C_10 
REMARK    5  A    between atoms: C_14  and  O_15 
REMARK       I    between atoms: N_22  and  C_23 
REMARK    6  A    between atoms: C_23  and  C_24 
REMARK    7  A    between atoms: C_24  and  N_25 
REMARK    8  A    between atoms: N_29  and  C_30 
ROOT
HETATM    1  N   UNL     1     -42.122  59.044 -55.224  1.00  0.00    -0.017 N 
HETATM    2  C   UNL     1     -42.439  57.766 -55.575  1.00  0.00     0.718 C 
HETATM    3  N   UNL     1     -42.350  56.890 -54.521  1.00  0.00    -0.223 N 
HETATM    4  N   UNL     1     -42.751  57.440 -56.790  1.00  0.00    -0.026 NA
HETATM    5  C   UNL     1     -43.053  56.163 -57.152  1.00  0.00     0.286 C 
HETATM    6  O   UNL     1     -43.021  55.151 -56.450  1.00  0.00    -0.269 OA
HETATM    7  H   UNL     1     -41.327  59.169 -54.617  1.00  0.00     0.203 HD
HETATM    8  H   UNL     1     -42.674  55.950 -54.762  1.00  0.00     0.177 HD
ENDROOT
BRANCH   1   9
HETATM    9  C   UNL     1     -42.280  60.178 -56.013  1.00  0.00     0.741 A 
HETATM   10  N   UNL     1     -41.372  60.508 -56.950  1.00  0.00    -0.067 NA
HETATM   11  C   UNL     1     -41.632  61.582 -57.724  1.00  0.00     0.051 A 
HETATM   12  C   UNL     1     -40.627  61.931 -58.779  1.00  0.00     0.071 C 
HETATM   13  C   UNL     1     -42.769  62.345 -57.568  1.00  0.00     0.054 A 
HETATM   14  C   UNL     1     -43.651  61.939 -56.591  1.00  0.00     0.051 A 
HETATM   15  N   UNL     1     -43.422  60.855 -55.820  1.00  0.00    -0.067 NA
HETATM   16  C   UNL     1     -44.907  62.716 -56.332  1.00  0.00     0.071 C 
ENDBRANCH   1   9
BRANCH   3  17
HETATM   17  C   UNL     1     -42.681  57.218 -53.133  1.00  0.00     0.142 C 
BRANCH  17  18
HETATM   18  C   UNL     1     -43.246  56.027 -52.348  1.00  0.00     0.061 C 
BRANCH  18  19
HETATM   19  C   UNL     1     -42.194  55.102 -51.813  1.00  0.00    -0.029 A 
HETATM   20  C   UNL     1     -41.564  54.021 -52.510  1.00  0.00    -0.002 A 
HETATM   21  C   UNL     1     -40.651  53.436 -51.635  1.00  0.00     0.045 A 
HETATM   22  C   UNL     1     -41.688  53.480 -53.807  1.00  0.00     0.017 A 
HETATM   23  C   UNL     1     -39.842  52.351 -52.000  1.00  0.00     0.067 A 
HETATM   24  N   UNL     1     -40.747  54.107 -50.438  1.00  0.00    -0.365 N 
HETATM   25  C   UNL     1     -39.980  51.833 -53.292  1.00  0.00     0.070 A 
HETATM   26  C   UNL     1     -40.895  52.388 -54.187  1.00  0.00     0.038 A 
HETATM   27  H   UNL     1     -40.226  53.875 -49.601  1.00  0.00     0.165 HD
HETATM   28  C   UNL     1     -41.664  55.118 -50.538  1.00  0.00     0.096 A 
BRANCH  25  29
HETATM   29  O   UNL     1     -39.105  50.824 -53.598  1.00  0.00    -0.356 OA
HETATM   30  C   UNL     1     -39.612  49.798 -54.447  1.00  0.00     0.210 C 
ENDBRANCH  25  29
ENDBRANCH  18  19
ENDBRANCH  17  18
ENDBRANCH   3  17
BRANCH   5  31
HETATM   31  C   UNL     1     -43.415  56.055 -58.634  1.00  0.00     0.340 C 
BRANCH  31  32
HETATM   32  N   UNL     1     -44.826  56.566 -58.949  1.00  0.00    -0.060 N 
HETATM   33  H   UNL     1     -45.359  56.480 -58.070  1.00  0.00     0.280 HD
HETATM   34  C   UNL     1     -44.814  58.054 -59.296  1.00  0.00     0.255 C 
HETATM   35  C   UNL     1     -46.226  58.561 -59.648  1.00  0.00     0.150 C 
HETATM   36  N   UNL     1     -46.830  57.710 -60.701  1.00  0.00    -0.378 N 
HETATM   37  C   UNL     1     -46.905  56.281 -60.347  1.00  0.00     0.150 C 
HETATM   38  C   UNL     1     -45.496  55.742 -60.032  1.00  0.00     0.255 C 
BRANCH  36  39
HETATM   39  C   UNL     1     -47.932  58.289 -61.348  1.00  0.00     0.030 A 
HETATM   40  C   UNL     1     -48.692  57.512 -62.244  1.00  0.00     0.032 A 
HETATM   41  C   UNL     1     -49.815  58.031 -62.893  1.00  0.00     0.044 A 
HETATM   42  C   UNL     1     -50.199  59.340 -62.649  1.00  0.00     0.116 A 
HETATM   43  F   UNL     1     -51.277  59.841 -63.265  1.00  0.00    -0.206 F 
HETATM   44  C   UNL     1     -49.480  60.134 -61.769  1.00  0.00     0.044 A 
HETATM   45  C   UNL     1     -48.356  59.609 -61.121  1.00  0.00     0.032 A 
ENDBRANCH  36  39
ENDBRANCH  31  32
ENDBRANCH   5  31
TORSDOF 8
ENDMDL
MODEL 10
REMARK VINA RESULT:      -8.6      3.576      6.551
REMARK  8 active torsions:
REMARK  status: ('A' for Active; 'I' for Inactive)
REMARK    1  A    between atoms: C_4  and  N_5 
REMARK       I    between atoms: N_5  and  C_6 
REMARK       I    between atoms: C_6  and  N_7 
REMARK    2  A    between atoms: N_7  and  C_8 
REMARK    3  A    between atoms: C_8  and  C_9 
REMARK    4  A    between atoms: C_9  and  C_10 
REMARK    5  A    between atoms: C_14  and  O_15 
REMARK       I    between atoms: N_22  and  C_23 
REMARK    6  A    between atoms: C_23  and  C_24 
REMARK    7  A    between atoms: C_24  and  N_25 
REMARK    8  A    between atoms: N_29  and  C_30 
ROOT
HETATM    1  N   UNL     1     -41.093  58.439 -54.385  1.00  0.00    -0.017 N 
HETATM    2  C   UNL     1     -42.006  59.248 -54.991  1.00  0.00     0.718 C 
HETATM    3  N   UNL     1     -42.122  59.001 -56.337  1.00  0.00    -0.223 N 
HETATM    4  N   UNL     1     -42.652  60.168 -54.346  1.00  0.00    -0.026 NA
HETATM    5  C   UNL     1     -43.553  60.991 -54.947  1.00  0.00     0.286 C 
HETATM    6  O   UNL     1     -43.845  61.047 -56.143  1.00  0.00    -0.269 OA
HETATM    7  H   UNL     1     -40.228  58.275 -54.875  1.00  0.00     0.203 HD
HETATM    8  H   UNL     1     -42.869  59.544 -56.775  1.00  0.00     0.177 HD
ENDROOT
BRANCH   1   9
HETATM    9  C   UNL     1     -40.873  58.327 -53.016  1.00  0.00     0.741 A 
HETATM   10  N   UNL     1     -40.011  59.141 -52.379  1.00  0.00    -0.067 NA
HETATM   11  C   UNL     1     -39.907  59.018 -51.039  1.00  0.00     0.051 A 
HETATM   12  C   UNL     1     -38.963  59.942 -50.334  1.00  0.00     0.071 C 
HETATM   13  C   UNL     1     -40.629  58.084 -50.326  1.00  0.00     0.054 A 
HETATM   14  C   UNL     1     -41.492  57.293 -51.051  1.00  0.00     0.051 A 
HETATM   15  N   UNL     1     -41.630  57.413 -52.389  1.00  0.00    -0.067 NA
HETATM   16  C   UNL     1     -42.305  56.235 -50.367  1.00  0.00     0.071 C 
ENDBRANCH   1   9
BRANCH   3  17
HETATM   17  C   UNL     1     -42.005  57.678 -56.955  1.00  0.00     0.142 C 
BRANCH  17  18
HETATM   18  C   UNL     1     -43.262  56.815 -56.777  1.00  0.00     0.061 C 
BRANCH  18  19
HETATM   19  C   UNL     1     -43.298  56.062 -55.481  1.00  0.00    -0.029 A 
HETATM   20  C   UNL     1     -42.359  55.079 -55.030  1.00  0.00    -0.002 A 
HETATM   21  C   UNL     1     -42.780  54.644 -53.775  1.00  0.00     0.045 A 
HETATM   22  C   UNL     1     -41.189  54.512 -55.577  1.00  0.00     0.017 A 
HETATM   23  C   UNL     1     -42.077  53.687 -53.031  1.00  0.00     0.067 A 
HETATM   24  N   UNL     1     -43.951  55.306 -53.486  1.00  0.00    -0.365 N 
HETATM   25  C   UNL     1     -40.917  53.141 -53.591  1.00  0.00     0.070 A 
HETATM   26  C   UNL     1     -40.478  53.545 -54.851  1.00  0.00     0.038 A 
HETATM   27  H   UNL     1     -44.506  55.162 -52.652  1.00  0.00     0.165 HD
HETATM   28  C   UNL     1     -44.266  56.169 -54.501  1.00  0.00     0.096 A 
BRANCH  25  29
HETATM   29  O   UNL     1     -40.245  52.269 -52.774  1.00  0.00    -0.356 OA
HETATM   30  C   UNL     1     -39.389  51.338 -53.430  1.00  0.00     0.210 C 
ENDBRANCH  25  29
ENDBRANCH  18  19
ENDBRANCH  17  18
ENDBRANCH   3  17
BRANCH   5  31
HETATM   31  C   UNL     1     -44.196  61.964 -53.957  1.00  0.00     0.340 C 
BRANCH  31  32
HETATM   32  N   UNL     1     -45.704  61.742 -53.786  1.00  0.00    -0.060 N 
HETATM   33  H   UNL     1     -45.899  60.813 -54.190  1.00  0.00     0.280 HD
HETATM   34  C   UNL     1     -46.089  61.656 -52.311  1.00  0.00     0.255 C 
HETATM   35  C   UNL     1     -47.609  61.469 -52.136  1.00  0.00     0.150 C 
HETATM   36  N   UNL     1     -48.344  62.518 -52.882  1.00  0.00    -0.378 N 
HETATM   37  C   UNL     1     -48.026  62.565 -54.321  1.00  0.00     0.150 C 
HETATM   38  C   UNL     1     -46.515  62.793 -54.518  1.00  0.00     0.255 C 
BRANCH  36  39
HETATM   39  C   UNL     1     -49.685  62.666 -52.497  1.00  0.00     0.030 A 
HETATM   40  C   UNL     1     -50.696  62.074 -53.278  1.00  0.00     0.032 A 
HETATM   41  C   UNL     1     -52.045  62.166 -52.924  1.00  0.00     0.044 A 
HETATM   42  C   UNL     1     -52.402  62.851 -51.774  1.00  0.00     0.116 A 
HETATM   43  F   UNL     1     -53.692  62.940 -51.428  1.00  0.00    -0.206 F 
HETATM   44  C   UNL     1     -51.434  63.442 -50.975  1.00  0.00     0.044 A 
HETATM   45  C   UNL     1     -50.085  63.346 -51.334  1.00  0.00     0.032 A 
ENDBRANCH  36  39
ENDBRANCH  31  32
ENDBRANCH   5  31
TORSDOF 8
ENDMDL
