MODEL 1
REMARK VINA RESULT:      -9.3      0.000      0.000
REMARK  6 active torsions:
REMARK  status: ('A' for Active; 'I' for Inactive)
REMARK    1  A    between atoms: C_4  and  C_5 
REMARK    2  A    between atoms: C_5  and  N_6 
REMARK    3  A    between atoms: C_14  and  C_15 
REMARK    4  A    between atoms: C_18  and  O_19 
REMARK    5  A    between atoms: O_19  and  C_20 
REMARK    6  A    between atoms: C_20  and  C_21 
ROOT
HETATM    1  N   UNL     1     -41.178  54.516 -53.775  1.00  0.00    -0.063 N 
HETATM    2  H   UNL     1     -40.771  54.532 -52.832  1.00  0.00     0.280 HD
HETATM    3  C   UNL     1     -40.967  55.923 -54.316  1.00  0.00     0.282 C 
HETATM    4  C   UNL     1     -41.740  56.894 -53.488  1.00  0.00     0.018 A 
HETATM    5  C   UNL     1     -42.794  56.559 -52.657  1.00  0.00    -0.023 A 
HETATM    6  C   UNL     1     -43.298  57.713 -51.975  1.00  0.00     0.073 A 
HETATM    7  C   UNL     1     -42.634  58.858 -52.347  1.00  0.00     0.088 A 
HETATM    8  N   UNL     1     -42.916  60.075 -51.847  1.00  0.00    -0.358 N 
HETATM    9  C   UNL     1     -44.112  60.283 -51.060  1.00  0.00     0.219 C 
HETATM   10  N   UNL     1     -44.609  59.050 -50.503  1.00  0.00    -0.332 N 
HETATM   11  C   UNL     1     -44.356  57.800 -50.989  1.00  0.00     0.256 C 
HETATM   12  O   UNL     1     -44.971  56.815 -50.593  1.00  0.00    -0.267 OA
HETATM   13  S   UNL     1     -41.413  58.562 -53.495  1.00  0.00    -0.074 SA
HETATM   14  C   UNL     1     -43.256  55.140 -52.500  1.00  0.00     0.068 C 
HETATM   15  C   UNL     1     -42.661  54.220 -53.586  1.00  0.00     0.240 C 
HETATM   16  H   UNL     1     -42.546  60.910 -52.292  1.00  0.00     0.162 HD
HETATM   17  H   UNL     1     -45.387  59.108 -49.861  1.00  0.00     0.165 HD
ENDROOT
BRANCH   9  18
HETATM   18  C   UNL     1     -45.173  61.011 -51.860  1.00  0.00    -0.016 A 
HETATM   19  C   UNL     1     -44.845  61.937 -52.866  1.00  0.00     0.014 A 
HETATM   20  C   UNL     1     -45.842  62.577 -53.614  1.00  0.00     0.037 A 
HETATM   21  C   UNL     1     -47.186  62.301 -53.369  1.00  0.00     0.069 A 
HETATM   22  C   UNL     1     -47.524  61.405 -52.355  1.00  0.00     0.037 A 
HETATM   23  C   UNL     1     -46.531  60.763 -51.608  1.00  0.00     0.014 A 
BRANCH  21  24
HETATM   24  O   UNL     1     -48.253  62.837 -54.034  1.00  0.00    -0.347 OA
BRANCH  24  25
HETATM   25  C   UNL     1     -48.833  64.018 -53.486  1.00  0.00     0.214 C 
BRANCH  25  26
HETATM   26  C   UNL     1     -50.286  63.739 -53.190  1.00  0.00    -0.034 A 
HETATM   27  C   UNL     1     -50.668  63.217 -51.946  1.00  0.00     0.009 A 
HETATM   28  C   UNL     1     -52.011  62.950 -51.672  1.00  0.00     0.001 A 
HETATM   29  C   UNL     1     -52.983  63.199 -52.640  1.00  0.00     0.000 A 
HETATM   30  C   UNL     1     -52.614  63.708 -53.883  1.00  0.00     0.001 A 
HETATM   31  C   UNL     1     -51.271  63.976 -54.159  1.00  0.00     0.009 A 
ENDBRANCH  25  26
ENDBRANCH  24  25
ENDBRANCH  21  24
ENDBRANCH   9  18
BRANCH   1  32
HETATM   32  C   UNL     1     -40.414  53.455 -54.522  1.00  0.00     0.273 C 
BRANCH  32  33
HETATM   33  C   UNL     1     -40.129  52.192 -53.758  1.00  0.00    -0.033 A 
HETATM   34  C   UNL     1     -39.823  52.244 -52.388  1.00  0.00     0.009 A 
HETATM   35  C   UNL     1     -39.538  51.076 -51.680  1.00  0.00     0.001 A 
HETATM   36  C   UNL     1     -39.561  49.844 -52.329  1.00  0.00     0.000 A 
HETATM   37  C   UNL     1     -39.874  49.776 -53.683  1.00  0.00     0.001 A 
HETATM   38  C   UNL     1     -40.160  50.942 -54.396  1.00  0.00     0.009 A 
ENDBRANCH  32  33
ENDBRANCH   1  32
TORSDOF 6
ENDMDL
MODEL 2
REMARK VINA RESULT:      -9.3      5.066     10.517
REMARK  6 active torsions:
REMARK  status: ('A' for Active; 'I' for Inactive)
REMARK    1  A    between atoms: C_4  and  C_5 
REMARK    2  A    between atoms: C_5  and  N_6 
REMARK    3  A    between atoms: C_14  and  C_15 
REMARK    4  A    between atoms: C_18  and  O_19 
REMARK    5  A    between atoms: O_19  and  C_20 
REMARK    6  A    between atoms: C_20  and  C_21 
ROOT
HETATM    1  N   UNL     1     -44.103  59.327 -58.337  1.00  0.00    -0.063 N 
HETATM    2  H   UNL     1     -44.277  60.243 -57.907  1.00  0.00     0.280 HD
HETATM    3  C   UNL     1     -44.923  58.344 -57.515  1.00  0.00     0.282 C 
HETATM    4  C   UNL     1     -44.404  58.312 -56.117  1.00  0.00     0.018 A 
HETATM    5  C   UNL     1     -43.150  58.751 -55.731  1.00  0.00    -0.023 A 
HETATM    6  C   UNL     1     -42.970  58.617 -54.317  1.00  0.00     0.073 A 
HETATM    7  C   UNL     1     -44.070  58.055 -53.713  1.00  0.00     0.088 A 
HETATM    8  N   UNL     1     -44.154  57.828 -52.389  1.00  0.00    -0.358 N 
HETATM    9  C   UNL     1     -42.979  57.940 -51.552  1.00  0.00     0.219 C 
HETATM   10  N   UNL     1     -41.959  58.753 -52.164  1.00  0.00    -0.332 N 
HETATM   11  C   UNL     1     -41.834  58.997 -53.501  1.00  0.00     0.256 C 
HETATM   12  O   UNL     1     -40.833  59.526 -53.972  1.00  0.00    -0.267 OA
HETATM   13  S   UNL     1     -45.312  57.695 -54.819  1.00  0.00    -0.074 SA
HETATM   14  C   UNL     1     -42.177  59.331 -56.717  1.00  0.00     0.068 C 
HETATM   15  C   UNL     1     -42.610  59.064 -58.173  1.00  0.00     0.240 C 
HETATM   16  H   UNL     1     -44.890  57.233 -52.017  1.00  0.00     0.162 HD
HETATM   17  H   UNL     1     -41.140  58.967 -51.614  1.00  0.00     0.165 HD
ENDROOT
BRANCH   9  18
HETATM   18  C   UNL     1     -42.455  56.573 -51.160  1.00  0.00    -0.016 A 
HETATM   19  C   UNL     1     -43.215  55.404 -51.334  1.00  0.00     0.014 A 
HETATM   20  C   UNL     1     -42.699  54.147 -50.993  1.00  0.00     0.037 A 
HETATM   21  C   UNL     1     -41.411  54.038 -50.472  1.00  0.00     0.069 A 
HETATM   22  C   UNL     1     -40.658  55.194 -50.270  1.00  0.00     0.037 A 
HETATM   23  C   UNL     1     -41.169  56.450 -50.610  1.00  0.00     0.014 A 
BRANCH  21  24
HETATM   24  O   UNL     1     -40.781  52.879 -50.117  1.00  0.00    -0.347 OA
BRANCH  24  25
HETATM   25  C   UNL     1     -39.498  52.633 -50.690  1.00  0.00     0.214 C 
BRANCH  25  26
HETATM   26  C   UNL     1     -39.679  51.730 -51.885  1.00  0.00    -0.034 A 
HETATM   27  C   UNL     1     -40.050  52.264 -53.128  1.00  0.00     0.009 A 
HETATM   28  C   UNL     1     -40.226  51.430 -54.233  1.00  0.00     0.001 A 
HETATM   29  C   UNL     1     -40.037  50.054 -54.106  1.00  0.00     0.000 A 
HETATM   30  C   UNL     1     -39.679  49.511 -52.874  1.00  0.00     0.001 A 
HETATM   31  C   UNL     1     -39.503  50.344 -51.768  1.00  0.00     0.009 A 
ENDBRANCH  25  26
ENDBRANCH  24  25
ENDBRANCH  21  24
ENDBRANCH   9  18
BRANCH   1  32
HETATM   32  C   UNL     1     -44.565  59.462 -59.764  1.00  0.00     0.273 C 
BRANCH  32  33
HETATM   33  C   UNL     1     -45.507  58.397 -60.253  1.00  0.00    -0.033 A 
HETATM   34  C   UNL     1     -46.806  58.735 -60.670  1.00  0.00     0.009 A 
HETATM   35  C   UNL     1     -47.690  57.748 -61.104  1.00  0.00     0.001 A 
HETATM   36  C   UNL     1     -47.288  56.415 -61.134  1.00  0.00     0.000 A 
HETATM   37  C   UNL     1     -46.000  56.068 -60.736  1.00  0.00     0.001 A 
HETATM   38  C   UNL     1     -45.111  57.052 -60.299  1.00  0.00     0.009 A 
ENDBRANCH  32  33
ENDBRANCH   1  32
TORSDOF 6
ENDMDL
MODEL 3
REMARK VINA RESULT:      -9.2      3.738      5.538
REMARK  6 active torsions:
REMARK  status: ('A' for Active; 'I' for Inactive)
REMARK    1  A    between atoms: C_4  and  C_5 
REMARK    2  A    between atoms: C_5  and  N_6 
REMARK    3  A    between atoms: C_14  and  C_15 
REMARK    4  A    between atoms: C_18  and  O_19 
REMARK    5  A    between atoms: O_19  and  C_20 
REMARK    6  A    between atoms: C_20  and  C_21 
ROOT
HETATM    1  N   UNL     1     -40.813  53.994 -50.570  1.00  0.00    -0.063 N 
HETATM    2  H   UNL     1     -40.541  54.111 -51.553  1.00  0.00     0.280 HD
HETATM    3  C   UNL     1     -42.301  54.311 -50.534  1.00  0.00     0.282 C 
HETATM    4  C   UNL     1     -42.514  55.738 -50.913  1.00  0.00     0.018 A 
HETATM    5  C   UNL     1     -41.536  56.716 -50.882  1.00  0.00    -0.023 A 
HETATM    6  C   UNL     1     -42.051  57.973 -51.338  1.00  0.00     0.073 A 
HETATM    7  C   UNL     1     -43.386  57.894 -51.653  1.00  0.00     0.088 A 
HETATM    8  N   UNL     1     -44.104  58.937 -52.110  1.00  0.00    -0.358 N 
HETATM    9  C   UNL     1     -43.558  60.277 -52.062  1.00  0.00     0.219 C 
HETATM   10  N   UNL     1     -42.119  60.267 -51.974  1.00  0.00    -0.332 N 
HETATM   11  C   UNL     1     -41.359  59.235 -51.506  1.00  0.00     0.256 C 
HETATM   12  O   UNL     1     -40.163  59.368 -51.269  1.00  0.00    -0.267 OA
HETATM   13  S   UNL     1     -44.025  56.335 -51.415  1.00  0.00    -0.074 SA
HETATM   14  C   UNL     1     -40.126  56.413 -50.465  1.00  0.00     0.068 C 
HETATM   15  C   UNL     1     -40.015  55.031 -49.789  1.00  0.00     0.240 C 
HETATM   16  H   UNL     1     -45.119  58.889 -52.135  1.00  0.00     0.162 HD
HETATM   17  H   UNL     1     -41.643  61.155 -52.032  1.00  0.00     0.165 HD
ENDROOT
BRANCH   9  18
HETATM   18  C   UNL     1     -44.189  61.084 -50.946  1.00  0.00    -0.016 A 
HETATM   19  C   UNL     1     -43.450  62.001 -50.178  1.00  0.00     0.014 A 
HETATM   20  C   UNL     1     -44.060  62.759 -49.170  1.00  0.00     0.037 A 
HETATM   21  C   UNL     1     -45.422  62.614 -48.913  1.00  0.00     0.069 A 
HETATM   22  C   UNL     1     -46.159  61.688 -49.650  1.00  0.00     0.037 A 
HETATM   23  C   UNL     1     -45.554  60.930 -50.657  1.00  0.00     0.014 A 
BRANCH  21  24
HETATM   24  O   UNL     1     -46.143  63.300 -47.978  1.00  0.00    -0.347 OA
BRANCH  24  25
HETATM   25  C   UNL     1     -46.761  62.536 -46.944  1.00  0.00     0.214 C 
BRANCH  25  26
HETATM   26  C   UNL     1     -45.771  62.377 -45.817  1.00  0.00    -0.034 A 
HETATM   27  C   UNL     1     -45.464  63.463 -44.984  1.00  0.00     0.009 A 
HETATM   28  C   UNL     1     -44.542  63.319 -43.945  1.00  0.00     0.001 A 
HETATM   29  C   UNL     1     -43.917  62.092 -43.732  1.00  0.00     0.000 A 
HETATM   30  C   UNL     1     -44.207  61.009 -44.559  1.00  0.00     0.001 A 
HETATM   31  C   UNL     1     -45.128  61.150 -45.598  1.00  0.00     0.009 A 
ENDBRANCH  25  26
ENDBRANCH  24  25
ENDBRANCH  21  24
ENDBRANCH   9  18
BRANCH   1  32
HETATM   32  C   UNL     1     -40.487  52.563 -50.233  1.00  0.00     0.273 C 
BRANCH  32  33
HETATM   33  C   UNL     1     -40.138  51.678 -51.396  1.00  0.00    -0.033 A 
HETATM   34  C   UNL     1     -40.107  52.199 -52.701  1.00  0.00     0.009 A 
HETATM   35  C   UNL     1     -39.804  51.376 -53.786  1.00  0.00     0.001 A 
HETATM   36  C   UNL     1     -39.522  50.028 -53.582  1.00  0.00     0.000 A 
HETATM   37  C   UNL     1     -39.537  49.501 -52.294  1.00  0.00     0.001 A 
HETATM   38  C   UNL     1     -39.841  50.320 -51.204  1.00  0.00     0.009 A 
ENDBRANCH  32  33
ENDBRANCH   1  32
TORSDOF 6
ENDMDL
MODEL 4
REMARK VINA RESULT:      -8.8      5.072     10.990
REMARK  6 active torsions:
REMARK  status: ('A' for Active; 'I' for Inactive)
REMARK    1  A    between atoms: C_4  and  C_5 
REMARK    2  A    between atoms: C_5  and  N_6 
REMARK    3  A    between atoms: C_14  and  C_15 
REMARK    4  A    between atoms: C_18  and  O_19 
REMARK    5  A    between atoms: O_19  and  C_20 
REMARK    6  A    between atoms: C_20  and  C_21 
ROOT
HETATM    1  N   UNL     1     -43.791  59.400 -58.685  1.00  0.00    -0.063 N 
HETATM    2  H   UNL     1     -44.041  60.304 -58.265  1.00  0.00     0.280 HD
HETATM    3  C   UNL     1     -44.638  58.375 -57.945  1.00  0.00     0.282 C 
HETATM    4  C   UNL     1     -44.243  58.350 -56.507  1.00  0.00     0.018 A 
HETATM    5  C   UNL     1     -43.047  58.838 -56.009  1.00  0.00    -0.023 A 
HETATM    6  C   UNL     1     -42.987  58.696 -54.585  1.00  0.00     0.073 A 
HETATM    7  C   UNL     1     -44.111  58.083 -54.084  1.00  0.00     0.088 A 
HETATM    8  N   UNL     1     -44.301  57.838 -52.775  1.00  0.00    -0.358 N 
HETATM    9  C   UNL     1     -43.210  57.990 -51.836  1.00  0.00     0.219 C 
HETATM   10  N   UNL     1     -42.176  58.852 -52.351  1.00  0.00    -0.332 N 
HETATM   11  C   UNL     1     -41.945  59.115 -53.670  1.00  0.00     0.256 C 
HETATM   12  O   UNL     1     -40.929  59.690 -54.047  1.00  0.00    -0.267 OA
HETATM   13  S   UNL     1     -45.234  57.683 -55.298  1.00  0.00    -0.074 SA
HETATM   14  C   UNL     1     -42.018  59.468 -56.901  1.00  0.00     0.068 C 
HETATM   15  C   UNL     1     -42.309  59.198 -58.391  1.00  0.00     0.240 C 
HETATM   16  H   UNL     1     -45.041  57.209 -52.473  1.00  0.00     0.162 HD
HETATM   17  H   UNL     1     -41.418  59.094 -51.729  1.00  0.00     0.165 HD
ENDROOT
BRANCH   9  18
HETATM   18  C   UNL     1     -42.664  56.643 -51.410  1.00  0.00    -0.016 A 
HETATM   19  C   UNL     1     -43.351  55.444 -51.665  1.00  0.00     0.014 A 
HETATM   20  C   UNL     1     -42.814  54.206 -51.288  1.00  0.00     0.037 A 
HETATM   21  C   UNL     1     -41.577  54.147 -50.649  1.00  0.00     0.069 A 
HETATM   22  C   UNL     1     -40.899  55.332 -50.366  1.00  0.00     0.037 A 
HETATM   23  C   UNL     1     -41.432  56.568 -50.741  1.00  0.00     0.014 A 
BRANCH  21  24
HETATM   24  O   UNL     1     -40.932  53.012 -50.246  1.00  0.00    -0.347 OA
BRANCH  24  25
HETATM   25  C   UNL     1     -39.632  52.777 -50.782  1.00  0.00     0.214 C 
BRANCH  25  26
HETATM   26  C   UNL     1     -39.761  51.803 -51.928  1.00  0.00    -0.034 A 
HETATM   27  C   UNL     1     -39.544  50.433 -51.720  1.00  0.00     0.009 A 
HETATM   28  C   UNL     1     -39.655  49.531 -52.780  1.00  0.00     0.001 A 
HETATM   29  C   UNL     1     -39.979  49.989 -54.056  1.00  0.00     0.000 A 
HETATM   30  C   UNL     1     -40.186  51.349 -54.275  1.00  0.00     0.001 A 
HETATM   31  C   UNL     1     -40.076  52.253 -53.218  1.00  0.00     0.009 A 
ENDBRANCH  25  26
ENDBRANCH  24  25
ENDBRANCH  21  24
ENDBRANCH   9  18
BRANCH   1  32
HETATM   32  C   UNL     1     -44.131  59.531 -60.146  1.00  0.00     0.273 C 
BRANCH  32  33
HETATM   33  C   UNL     1     -43.837  60.866 -60.772  1.00  0.00    -0.033 A 
HETATM   34  C   UNL     1     -43.996  62.049 -60.030  1.00  0.00     0.009 A 
HETATM   35  C   UNL     1     -43.743  63.290 -60.613  1.00  0.00     0.001 A 
HETATM   36  C   UNL     1     -43.323  63.367 -61.939  1.00  0.00     0.000 A 
HETATM   37  C   UNL     1     -43.149  62.202 -62.681  1.00  0.00     0.001 A 
HETATM   38  C   UNL     1     -43.401  60.957 -62.103  1.00  0.00     0.009 A 
ENDBRANCH  32  33
ENDBRANCH   1  32
TORSDOF 6
ENDMDL
MODEL 5
REMARK VINA RESULT:      -8.7      4.659      9.725
REMARK  6 active torsions:
REMARK  status: ('A' for Active; 'I' for Inactive)
REMARK    1  A    between atoms: C_4  and  C_5 
REMARK    2  A    between atoms: C_5  and  N_6 
REMARK    3  A    between atoms: C_14  and  C_15 
REMARK    4  A    between atoms: C_18  and  O_19 
REMARK    5  A    between atoms: O_19  and  C_20 
REMARK    6  A    between atoms: C_20  and  C_21 
ROOT
HETATM    1  N   UNL     1     -44.152  62.072 -49.627  1.00  0.00    -0.063 N 
HETATM    2  H   UNL     1     -43.889  61.536 -48.792  1.00  0.00     0.280 HD
HETATM    3  C   UNL     1     -45.173  61.203 -50.347  1.00  0.00     0.282 C 
HETATM    4  C   UNL     1     -44.522  59.936 -50.789  1.00  0.00     0.018 A 
HETATM    5  C   UNL     1     -43.157  59.753 -50.917  1.00  0.00    -0.023 A 
HETATM    6  C   UNL     1     -42.853  58.415 -51.327  1.00  0.00     0.073 A 
HETATM    7  C   UNL     1     -43.991  57.669 -51.523  1.00  0.00     0.088 A 
HETATM    8  N   UNL     1     -43.976  56.379 -51.906  1.00  0.00    -0.358 N 
HETATM    9  C   UNL     1     -42.750  55.770 -52.374  1.00  0.00     0.219 C 
HETATM   10  N   UNL     1     -41.586  56.486 -51.917  1.00  0.00    -0.332 N 
HETATM   11  C   UNL     1     -41.559  57.795 -51.533  1.00  0.00     0.256 C 
HETATM   12  O   UNL     1     -40.505  58.395 -51.351  1.00  0.00    -0.267 OA
HETATM   13  S   UNL     1     -45.413  58.551 -51.215  1.00  0.00    -0.074 SA
HETATM   14  C   UNL     1     -42.180  60.846 -50.597  1.00  0.00     0.068 C 
HETATM   15  C   UNL     1     -42.878  62.214 -50.452  1.00  0.00     0.240 C 
HETATM   16  H   UNL     1     -44.828  55.931 -52.232  1.00  0.00     0.162 HD
HETATM   17  H   UNL     1     -40.682  56.082 -52.114  1.00  0.00     0.165 HD
ENDROOT
BRANCH   9  18
HETATM   18  C   UNL     1     -42.760  55.608 -53.881  1.00  0.00    -0.016 A 
HETATM   19  C   UNL     1     -43.120  54.399 -54.500  1.00  0.00     0.014 A 
HETATM   20  C   UNL     1     -43.151  54.281 -55.895  1.00  0.00     0.037 A 
HETATM   21  C   UNL     1     -42.824  55.373 -56.697  1.00  0.00     0.069 A 
HETATM   22  C   UNL     1     -42.440  56.570 -56.094  1.00  0.00     0.037 A 
HETATM   23  C   UNL     1     -42.408  56.691 -54.701  1.00  0.00     0.014 A 
BRANCH  21  24
HETATM   24  O   UNL     1     -42.832  55.401 -58.063  1.00  0.00    -0.347 OA
BRANCH  24  25
HETATM   25  C   UNL     1     -43.081  56.659 -58.687  1.00  0.00     0.214 C 
BRANCH  25  26
HETATM   26  C   UNL     1     -44.492  56.652 -59.221  1.00  0.00    -0.034 A 
HETATM   27  C   UNL     1     -44.855  55.773 -60.252  1.00  0.00     0.009 A 
HETATM   28  C   UNL     1     -46.157  55.769 -60.754  1.00  0.00     0.001 A 
HETATM   29  C   UNL     1     -47.107  56.647 -60.234  1.00  0.00     0.000 A 
HETATM   30  C   UNL     1     -46.755  57.532 -59.217  1.00  0.00     0.001 A 
HETATM   31  C   UNL     1     -45.453  57.537 -58.714  1.00  0.00     0.009 A 
ENDBRANCH  25  26
ENDBRANCH  24  25
ENDBRANCH  21  24
ENDBRANCH   9  18
BRANCH   1  32
HETATM   32  C   UNL     1     -44.714  63.369 -49.108  1.00  0.00     0.273 C 
BRANCH  32  33
HETATM   33  C   UNL     1     -44.864  63.469 -47.616  1.00  0.00    -0.033 A 
HETATM   34  C   UNL     1     -44.636  64.690 -46.959  1.00  0.00     0.009 A 
HETATM   35  C   UNL     1     -44.754  64.782 -45.573  1.00  0.00     0.001 A 
HETATM   36  C   UNL     1     -45.107  63.661 -44.826  1.00  0.00     0.000 A 
HETATM   37  C   UNL     1     -45.349  62.448 -45.465  1.00  0.00     0.001 A 
HETATM   38  C   UNL     1     -45.231  62.350 -46.853  1.00  0.00     0.009 A 
ENDBRANCH  32  33
ENDBRANCH   1  32
TORSDOF 6
ENDMDL
MODEL 6
REMARK VINA RESULT:      -8.6      1.922      2.650
REMARK  6 active torsions:
REMARK  status: ('A' for Active; 'I' for Inactive)
REMARK    1  A    between atoms: C_4  and  C_5 
REMARK    2  A    between atoms: C_5  and  N_6 
REMARK    3  A    between atoms: C_14  and  C_15 
REMARK    4  A    between atoms: C_18  and  O_19 
REMARK    5  A    between atoms: O_19  and  C_20 
REMARK    6  A    between atoms: C_20  and  C_21 
ROOT
HETATM    1  N   UNL     1     -40.729  54.025 -51.060  1.00  0.00    -0.063 N 
HETATM    2  H   UNL     1     -40.018  54.248 -51.766  1.00  0.00     0.280 HD
HETATM    3  C   UNL     1     -42.060  54.164 -51.786  1.00  0.00     0.282 C 
HETATM    4  C   UNL     1     -42.248  55.582 -52.209  1.00  0.00     0.018 A 
HETATM    5  C   UNL     1     -41.566  56.661 -51.676  1.00  0.00    -0.023 A 
HETATM    6  C   UNL     1     -41.950  57.881 -52.321  1.00  0.00     0.073 A 
HETATM    7  C   UNL     1     -42.918  57.673 -53.274  1.00  0.00     0.088 A 
HETATM    8  N   UNL     1     -43.444  58.658 -54.025  1.00  0.00    -0.358 N 
HETATM    9  C   UNL     1     -43.189  60.044 -53.696  1.00  0.00     0.219 C 
HETATM   10  N   UNL     1     -42.006  60.194 -52.886  1.00  0.00    -0.332 N 
HETATM   11  C   UNL     1     -41.451  59.224 -52.104  1.00  0.00     0.256 C 
HETATM   12  O   UNL     1     -40.570  59.476 -51.289  1.00  0.00    -0.267 OA
HETATM   13  S   UNL     1     -43.365  56.037 -53.407  1.00  0.00    -0.074 SA
HETATM   14  C   UNL     1     -40.533  56.491 -50.601  1.00  0.00     0.068 C 
HETATM   15  C   UNL     1     -40.587  55.084 -49.973  1.00  0.00     0.240 C 
HETATM   16  H   UNL     1     -44.290  58.495 -54.565  1.00  0.00     0.162 HD
HETATM   17  H   UNL     1     -41.694  61.133 -52.686  1.00  0.00     0.165 HD
ENDROOT
BRANCH   9  18
HETATM   18  C   UNL     1     -44.402  60.685 -53.051  1.00  0.00    -0.016 A 
HETATM   19  C   UNL     1     -45.519  59.933 -52.649  1.00  0.00     0.014 A 
HETATM   20  C   UNL     1     -46.616  60.541 -52.028  1.00  0.00     0.037 A 
HETATM   21  C   UNL     1     -46.616  61.916 -51.798  1.00  0.00     0.069 A 
HETATM   22  C   UNL     1     -45.525  62.677 -52.217  1.00  0.00     0.037 A 
HETATM   23  C   UNL     1     -44.427  62.072 -52.837  1.00  0.00     0.014 A 
BRANCH  21  24
HETATM   24  O   UNL     1     -47.608  62.631 -51.188  1.00  0.00    -0.347 OA
BRANCH  24  25
HETATM   25  C   UNL     1     -48.298  63.593 -51.983  1.00  0.00     0.214 C 
BRANCH  25  26
HETATM   26  C   UNL     1     -49.674  63.054 -52.290  1.00  0.00    -0.034 A 
HETATM   27  C   UNL     1     -49.881  62.238 -53.411  1.00  0.00     0.009 A 
HETATM   28  C   UNL     1     -51.154  61.744 -53.701  1.00  0.00     0.001 A 
HETATM   29  C   UNL     1     -52.232  62.066 -52.878  1.00  0.00     0.000 A 
HETATM   30  C   UNL     1     -52.040  62.884 -51.767  1.00  0.00     0.001 A 
HETATM   31  C   UNL     1     -50.767  63.379 -51.474  1.00  0.00     0.009 A 
ENDBRANCH  25  26
ENDBRANCH  24  25
ENDBRANCH  21  24
ENDBRANCH   9  18
BRANCH   1  32
HETATM   32  C   UNL     1     -40.422  52.620 -50.614  1.00  0.00     0.273 C 
BRANCH  32  33
HETATM   33  C   UNL     1     -40.082  51.644 -51.706  1.00  0.00    -0.033 A 
HETATM   34  C   UNL     1     -40.065  52.059 -53.049  1.00  0.00     0.009 A 
HETATM   35  C   UNL     1     -39.770  51.152 -54.067  1.00  0.00     0.001 A 
HETATM   36  C   UNL     1     -39.483  49.825 -53.758  1.00  0.00     0.000 A 
HETATM   37  C   UNL     1     -39.484  49.403 -52.431  1.00  0.00     0.001 A 
HETATM   38  C   UNL     1     -39.779  50.307 -51.409  1.00  0.00     0.009 A 
ENDBRANCH  32  33
ENDBRANCH   1  32
TORSDOF 6
ENDMDL
MODEL 7
REMARK VINA RESULT:      -8.5      1.689      2.485
REMARK  6 active torsions:
REMARK  status: ('A' for Active; 'I' for Inactive)
REMARK    1  A    between atoms: C_4  and  C_5 
REMARK    2  A    between atoms: C_5  and  N_6 
REMARK    3  A    between atoms: C_14  and  C_15 
REMARK    4  A    between atoms: C_18  and  O_19 
REMARK    5  A    between atoms: O_19  and  C_20 
REMARK    6  A    between atoms: C_20  and  C_21 
ROOT
HETATM    1  N   UNL     1     -41.982  56.576 -53.714  1.00  0.00    -0.063 N 
HETATM    2  H   UNL     1     -41.451  56.700 -52.844  1.00  0.00     0.280 HD
HETATM    3  C   UNL     1     -42.110  57.974 -54.300  1.00  0.00     0.282 C 
HETATM    4  C   UNL     1     -42.915  58.827 -53.377  1.00  0.00     0.018 A 
HETATM    5  C   UNL     1     -43.757  58.345 -52.391  1.00  0.00    -0.023 A 
HETATM    6  C   UNL     1     -44.356  59.419 -51.657  1.00  0.00     0.073 A 
HETATM    7  C   UNL     1     -43.971  60.647 -52.141  1.00  0.00     0.088 A 
HETATM    8  N   UNL     1     -44.390  61.815 -51.619  1.00  0.00    -0.358 N 
HETATM    9  C   UNL     1     -45.476  61.840 -50.663  1.00  0.00     0.219 C 
HETATM   10  N   UNL     1     -45.656  60.563 -50.021  1.00  0.00    -0.332 N 
HETATM   11  C   UNL     1     -45.256  59.359 -50.522  1.00  0.00     0.256 C 
HETATM   12  O   UNL     1     -45.618  58.298 -50.025  1.00  0.00    -0.267 OA
HETATM   13  S   UNL     1     -42.898  60.525 -53.456  1.00  0.00    -0.074 SA
HETATM   14  C   UNL     1     -43.929  56.875 -52.147  1.00  0.00     0.068 C 
HETATM   15  C   UNL     1     -43.344  56.031 -53.298  1.00  0.00     0.240 C 
HETATM   16  H   UNL     1     -44.246  62.683 -52.127  1.00  0.00     0.162 HD
HETATM   17  H   UNL     1     -46.328  60.509 -49.270  1.00  0.00     0.165 HD
ENDROOT
BRANCH   9  18
HETATM   18  C   UNL     1     -46.757  62.338 -51.303  1.00  0.00    -0.016 A 
HETATM   19  C   UNL     1     -47.271  61.772 -52.482  1.00  0.00     0.014 A 
HETATM   20  C   UNL     1     -48.472  62.228 -53.041  1.00  0.00     0.037 A 
HETATM   21  C   UNL     1     -49.181  63.259 -52.427  1.00  0.00     0.069 A 
HETATM   22  C   UNL     1     -48.666  63.847 -51.272  1.00  0.00     0.037 A 
HETATM   23  C   UNL     1     -47.468  63.393 -50.712  1.00  0.00     0.014 A 
BRANCH  21  24
HETATM   24  O   UNL     1     -50.369  63.784 -52.852  1.00  0.00    -0.347 OA
BRANCH  24  25
HETATM   25  C   UNL     1     -51.560  63.234 -52.294  1.00  0.00     0.214 C 
BRANCH  25  26
HETATM   26  C   UNL     1     -52.385  62.655 -53.417  1.00  0.00    -0.034 A 
HETATM   27  C   UNL     1     -53.514  63.339 -53.892  1.00  0.00     0.009 A 
HETATM   28  C   UNL     1     -54.284  62.802 -54.926  1.00  0.00     0.001 A 
HETATM   29  C   UNL     1     -53.936  61.575 -55.490  1.00  0.00     0.000 A 
HETATM   30  C   UNL     1     -52.823  60.882 -55.018  1.00  0.00     0.001 A 
HETATM   31  C   UNL     1     -52.052  61.418 -53.985  1.00  0.00     0.009 A 
ENDBRANCH  25  26
ENDBRANCH  24  25
ENDBRANCH  21  24
ENDBRANCH   9  18
BRANCH   1  32
HETATM   32  C   UNL     1     -41.158  55.636 -54.553  1.00  0.00     0.273 C 
BRANCH  32  33
HETATM   33  C   UNL     1     -40.728  54.361 -53.882  1.00  0.00    -0.033 A 
HETATM   34  C   UNL     1     -40.685  54.276 -52.480  1.00  0.00     0.009 A 
HETATM   35  C   UNL     1     -40.268  53.102 -51.854  1.00  0.00     0.001 A 
HETATM   36  C   UNL     1     -39.894  51.999 -52.617  1.00  0.00     0.000 A 
HETATM   37  C   UNL     1     -39.944  52.065 -54.006  1.00  0.00     0.001 A 
HETATM   38  C   UNL     1     -40.360  53.238 -54.638  1.00  0.00     0.009 A 
ENDBRANCH  32  33
ENDBRANCH   1  32
TORSDOF 6
ENDMDL
MODEL 8
REMARK VINA RESULT:      -8.5      3.967     11.636
REMARK  6 active torsions:
REMARK  status: ('A' for Active; 'I' for Inactive)
REMARK    1  A    between atoms: C_4  and  C_5 
REMARK    2  A    between atoms: C_5  and  N_6 
REMARK    3  A    between atoms: C_14  and  C_15 
REMARK    4  A    between atoms: C_18  and  O_19 
REMARK    5  A    between atoms: O_19  and  C_20 
REMARK    6  A    between atoms: C_20  and  C_21 
ROOT
HETATM    1  N   UNL     1     -44.590  63.562 -48.330  1.00  0.00    -0.063 N 
HETATM    2  H   UNL     1     -45.491  63.762 -48.780  1.00  0.00     0.280 HD
HETATM    3  C   UNL     1     -43.591  63.475 -49.475  1.00  0.00     0.282 C 
HETATM    4  C   UNL     1     -43.942  62.322 -50.353  1.00  0.00     0.018 A 
HETATM    5  C   UNL     1     -44.751  61.264 -49.980  1.00  0.00    -0.023 A 
HETATM    6  C   UNL     1     -44.921  60.340 -51.061  1.00  0.00     0.073 A 
HETATM    7  C   UNL     1     -44.211  60.720 -52.175  1.00  0.00     0.088 A 
HETATM    8  N   UNL     1     -44.208  60.024 -53.326  1.00  0.00    -0.358 N 
HETATM    9  C   UNL     1     -44.766  58.689 -53.375  1.00  0.00     0.219 C 
HETATM   10  N   UNL     1     -45.693  58.456 -52.297  1.00  0.00    -0.332 N 
HETATM   11  C   UNL     1     -45.720  59.132 -51.112  1.00  0.00     0.256 C 
HETATM   12  O   UNL     1     -46.397  58.750 -50.164  1.00  0.00    -0.267 OA
HETATM   13  S   UNL     1     -43.352  62.170 -51.940  1.00  0.00    -0.074 SA
HETATM   14  C   UNL     1     -45.379  61.190 -48.618  1.00  0.00     0.068 C 
HETATM   15  C   UNL     1     -44.755  62.211 -47.645  1.00  0.00     0.240 C 
HETATM   16  H   UNL     1     -43.519  60.226 -54.046  1.00  0.00     0.162 HD
HETATM   17  H   UNL     1     -46.205  57.585 -52.302  1.00  0.00     0.165 HD
ENDROOT
BRANCH   9  18
HETATM   18  C   UNL     1     -43.672  57.641 -53.419  1.00  0.00    -0.016 A 
HETATM   19  C   UNL     1     -43.929  56.309 -53.785  1.00  0.00     0.014 A 
HETATM   20  C   UNL     1     -42.898  55.363 -53.848  1.00  0.00     0.037 A 
HETATM   21  C   UNL     1     -41.589  55.734 -53.546  1.00  0.00     0.069 A 
HETATM   22  C   UNL     1     -41.327  57.046 -53.155  1.00  0.00     0.037 A 
HETATM   23  C   UNL     1     -42.354  57.993 -53.092  1.00  0.00     0.014 A 
BRANCH  21  24
HETATM   24  O   UNL     1     -40.492  54.921 -53.586  1.00  0.00    -0.347 OA
BRANCH  24  25
HETATM   25  C   UNL     1     -40.546  53.797 -54.461  1.00  0.00     0.214 C 
BRANCH  25  26
HETATM   26  C   UNL     1     -40.201  52.561 -53.667  1.00  0.00    -0.034 A 
HETATM   27  C   UNL     1     -40.072  51.320 -54.307  1.00  0.00     0.009 A 
HETATM   28  C   UNL     1     -39.760  50.174 -53.573  1.00  0.00     0.001 A 
HETATM   29  C   UNL     1     -39.579  50.257 -52.193  1.00  0.00     0.000 A 
HETATM   30  C   UNL     1     -39.715  51.483 -51.545  1.00  0.00     0.001 A 
HETATM   31  C   UNL     1     -40.026  52.630 -52.277  1.00  0.00     0.009 A 
ENDBRANCH  25  26
ENDBRANCH  24  25
ENDBRANCH  21  24
ENDBRANCH   9  18
BRANCH   1  32
HETATM   32  C   UNL     1     -44.346  64.717 -47.395  1.00  0.00     0.273 C 
BRANCH  32  33
HETATM   33  C   UNL     1     -45.102  64.680 -46.096  1.00  0.00    -0.033 A 
HETATM   34  C   UNL     1     -44.415  64.748 -44.872  1.00  0.00     0.009 A 
HETATM   35  C   UNL     1     -45.111  64.694 -43.664  1.00  0.00     0.001 A 
HETATM   36  C   UNL     1     -46.498  64.578 -43.663  1.00  0.00     0.000 A 
HETATM   37  C   UNL     1     -47.193  64.522 -44.868  1.00  0.00     0.001 A 
HETATM   38  C   UNL     1     -46.501  64.576 -46.080  1.00  0.00     0.009 A 
ENDBRANCH  32  33
ENDBRANCH   1  32
TORSDOF 6
ENDMDL
MODEL 9
REMARK VINA RESULT:      -8.4      3.423     11.213
REMARK  6 active torsions:
REMARK  status: ('A' for Active; 'I' for Inactive)
REMARK    1  A    between atoms: C_4  and  C_5 
REMARK    2  A    between atoms: C_5  and  N_6 
REMARK    3  A    between atoms: C_14  and  C_15 
REMARK    4  A    between atoms: C_18  and  O_19 
REMARK    5  A    between atoms: O_19  and  C_20 
REMARK    6  A    between atoms: C_20  and  C_21 
ROOT
HETATM    1  N   UNL     1     -45.493  62.397 -49.487  1.00  0.00    -0.063 N 
HETATM    2  H   UNL     1     -45.254  63.164 -50.128  1.00  0.00     0.280 HD
HETATM    3  C   UNL     1     -44.174  61.686 -49.219  1.00  0.00     0.282 C 
HETATM    4  C   UNL     1     -43.663  61.094 -50.489  1.00  0.00     0.018 A 
HETATM    5  C   UNL     1     -44.433  60.851 -51.612  1.00  0.00    -0.023 A 
HETATM    6  C   UNL     1     -43.637  60.310 -52.674  1.00  0.00     0.073 A 
HETATM    7  C   UNL     1     -42.327  60.138 -52.294  1.00  0.00     0.088 A 
HETATM    8  N   UNL     1     -41.376  59.650 -53.112  1.00  0.00    -0.358 N 
HETATM    9  C   UNL     1     -41.739  59.044 -54.375  1.00  0.00     0.219 C 
HETATM   10  N   UNL     1     -43.041  59.472 -54.822  1.00  0.00    -0.332 N 
HETATM   11  C   UNL     1     -44.033  59.960 -54.023  1.00  0.00     0.256 C 
HETATM   12  O   UNL     1     -45.179  60.113 -54.434  1.00  0.00    -0.267 OA
HETATM   13  S   UNL     1     -42.042  60.622 -50.688  1.00  0.00    -0.074 SA
HETATM   14  C   UNL     1     -45.895  61.187 -51.657  1.00  0.00     0.068 C 
HETATM   15  C   UNL     1     -46.454  61.495 -50.252  1.00  0.00     0.240 C 
HETATM   16  H   UNL     1     -40.481  59.352 -52.735  1.00  0.00     0.162 HD
HETATM   17  H   UNL     1     -43.339  59.176 -55.739  1.00  0.00     0.165 HD
ENDROOT
BRANCH   9  18
HETATM   18  C   UNL     1     -41.631  57.534 -54.308  1.00  0.00    -0.016 A 
HETATM   19  C   UNL     1     -41.087  56.873 -53.193  1.00  0.00     0.014 A 
HETATM   20  C   UNL     1     -41.024  55.475 -53.140  1.00  0.00     0.037 A 
HETATM   21  C   UNL     1     -41.506  54.712 -54.202  1.00  0.00     0.069 A 
HETATM   22  C   UNL     1     -42.023  55.358 -55.325  1.00  0.00     0.037 A 
HETATM   23  C   UNL     1     -42.087  56.753 -55.381  1.00  0.00     0.014 A 
BRANCH  21  24
HETATM   24  O   UNL     1     -41.523  53.348 -54.272  1.00  0.00    -0.347 OA
BRANCH  24  25
HETATM   25  C   UNL     1     -40.285  52.695 -54.547  1.00  0.00     0.214 C 
BRANCH  25  26
HETATM   26  C   UNL     1     -40.026  51.692 -53.450  1.00  0.00    -0.034 A 
HETATM   27  C   UNL     1     -39.979  52.102 -52.110  1.00  0.00     0.009 A 
HETATM   28  C   UNL     1     -39.731  51.177 -51.094  1.00  0.00     0.001 A 
HETATM   29  C   UNL     1     -39.523  49.835 -51.408  1.00  0.00     0.000 A 
HETATM   30  C   UNL     1     -39.557  49.417 -52.737  1.00  0.00     0.001 A 
HETATM   31  C   UNL     1     -39.805  50.341 -53.754  1.00  0.00     0.009 A 
ENDBRANCH  25  26
ENDBRANCH  24  25
ENDBRANCH  21  24
ENDBRANCH   9  18
BRANCH   1  32
HETATM   32  C   UNL     1     -46.085  63.062 -48.272  1.00  0.00     0.273 C 
BRANCH  32  33
HETATM   33  C   UNL     1     -45.538  62.612 -46.946  1.00  0.00    -0.033 A 
HETATM   34  C   UNL     1     -45.432  61.243 -46.649  1.00  0.00     0.009 A 
HETATM   35  C   UNL     1     -44.944  60.822 -45.412  1.00  0.00     0.001 A 
HETATM   36  C   UNL     1     -44.550  61.760 -44.461  1.00  0.00     0.000 A 
HETATM   37  C   UNL     1     -44.638  63.119 -44.747  1.00  0.00     0.001 A 
HETATM   38  C   UNL     1     -45.126  63.546 -45.983  1.00  0.00     0.009 A 
ENDBRANCH  32  33
ENDBRANCH   1  32
TORSDOF 6
ENDMDL
MODEL 10
REMARK VINA RESULT:      -8.3      2.303     11.544
REMARK  6 active torsions:
REMARK  status: ('A' for Active; 'I' for Inactive)
REMARK    1  A    between atoms: C_4  and  C_5 
REMARK    2  A    between atoms: C_5  and  N_6 
REMARK    3  A    between atoms: C_14  and  C_15 
REMARK    4  A    between atoms: C_18  and  O_19 
REMARK    5  A    between atoms: O_19  and  C_20 
REMARK    6  A    between atoms: C_20  and  C_21 
ROOT
HETATM    1  N   UNL     1     -47.742  63.052 -53.676  1.00  0.00    -0.063 N 
HETATM    2  H   UNL     1     -47.222  63.758 -53.141  1.00  0.00     0.280 HD
HETATM    3  C   UNL     1     -47.850  61.853 -52.745  1.00  0.00     0.282 C 
HETATM    4  C   UNL     1     -46.486  61.318 -52.466  1.00  0.00     0.018 A 
HETATM    5  C   UNL     1     -45.365  61.573 -53.237  1.00  0.00    -0.023 A 
HETATM    6  C   UNL     1     -44.205  60.942 -52.682  1.00  0.00     0.073 A 
HETATM    7  C   UNL     1     -44.507  60.219 -51.553  1.00  0.00     0.088 A 
HETATM    8  N   UNL     1     -43.590  59.537 -50.842  1.00  0.00    -0.358 N 
HETATM    9  C   UNL     1     -42.261  59.326 -51.374  1.00  0.00     0.219 C 
HETATM   10  N   UNL     1     -41.933  60.290 -52.394  1.00  0.00    -0.332 N 
HETATM   11  C   UNL     1     -42.832  60.991 -53.143  1.00  0.00     0.256 C 
HETATM   12  O   UNL     1     -42.490  61.638 -54.127  1.00  0.00    -0.267 OA
HETATM   13  S   UNL     1     -46.158  60.294 -51.149  1.00  0.00    -0.074 SA
HETATM   14  C   UNL     1     -45.425  62.452 -54.452  1.00  0.00     0.068 C 
HETATM   15  C   UNL     1     -46.878  62.726 -54.889  1.00  0.00     0.240 C 
HETATM   16  H   UNL     1     -43.884  58.859 -50.143  1.00  0.00     0.162 HD
HETATM   17  H   UNL     1     -40.991  60.281 -52.757  1.00  0.00     0.165 HD
ENDROOT
BRANCH   9  18
HETATM   18  C   UNL     1     -42.086  57.902 -51.861  1.00  0.00    -0.016 A 
HETATM   19  C   UNL     1     -41.432  57.601 -53.068  1.00  0.00     0.014 A 
HETATM   20  C   UNL     1     -41.256  56.276 -53.485  1.00  0.00     0.037 A 
HETATM   21  C   UNL     1     -41.731  55.226 -52.700  1.00  0.00     0.069 A 
HETATM   22  C   UNL     1     -42.406  55.514 -51.515  1.00  0.00     0.037 A 
HETATM   23  C   UNL     1     -42.583  56.836 -51.095  1.00  0.00     0.014 A 
BRANCH  21  24
HETATM   24  O   UNL     1     -41.610  53.894 -52.978  1.00  0.00    -0.347 OA
BRANCH  24  25
HETATM   25  C   UNL     1     -40.467  53.486 -53.726  1.00  0.00     0.214 C 
BRANCH  25  26
HETATM   26  C   UNL     1     -40.139  52.062 -53.351  1.00  0.00    -0.034 A 
HETATM   27  C   UNL     1     -39.808  51.735 -52.028  1.00  0.00     0.009 A 
HETATM   28  C   UNL     1     -39.497  50.420 -51.680  1.00  0.00     0.001 A 
HETATM   29  C   UNL     1     -39.508  49.420 -52.652  1.00  0.00     0.000 A 
HETATM   30  C   UNL     1     -39.825  49.734 -53.971  1.00  0.00     0.001 A 
HETATM   31  C   UNL     1     -40.137  51.049 -54.321  1.00  0.00     0.009 A 
ENDBRANCH  25  26
ENDBRANCH  24  25
ENDBRANCH  21  24
ENDBRANCH   9  18
BRANCH   1  32
HETATM   32  C   UNL     1     -49.066  63.693 -54.000  1.00  0.00     0.273 C 
BRANCH  32  33
HETATM   33  C   UNL     1     -50.225  62.752 -54.174  1.00  0.00    -0.033 A 
HETATM   34  C   UNL     1     -51.142  62.553 -53.127  1.00  0.00     0.009 A 
HETATM   35  C   UNL     1     -52.207  61.666 -53.276  1.00  0.00     0.001 A 
HETATM   36  C   UNL     1     -52.375  60.971 -54.472  1.00  0.00     0.000 A 
HETATM   37  C   UNL     1     -51.482  61.168 -55.522  1.00  0.00     0.001 A 
HETATM   38  C   UNL     1     -50.413  62.055 -55.377  1.00  0.00     0.009 A 
ENDBRANCH  32  33
ENDBRANCH   1  32
TORSDOF 6
ENDMDL
