MODEL 1
REMARK VINA RESULT:     -10.4      0.000      0.000
REMARK  3 active torsions:
REMARK  status: ('A' for Active; 'I' for Inactive)
REMARK    1  A    between atoms: C_4  and  N_5 
REMARK    2  A    between atoms: N_5  and  C_6 
REMARK    3  A    between atoms: C_13  and  C_14 
ROOT
HETATM    1  C   UNL     1     -42.213  57.314 -55.230  1.00  0.00     0.741 A 
HETATM    2  N   UNL     1     -41.906  56.008 -55.175  1.00  0.00    -0.066 NA
HETATM    3  C   UNL     1     -41.564  55.468 -53.986  1.00  0.00     0.069 A 
HETATM    4  C   UNL     1     -41.534  56.211 -52.829  1.00  0.00     0.053 A 
HETATM    5  C   UNL     1     -41.190  55.612 -51.530  1.00  0.00     0.163 C 
HETATM    6  O   UNL     1     -41.196  56.306 -50.519  1.00  0.00    -0.292 OA
HETATM    7  C   UNL     1     -40.912  54.124 -51.489  1.00  0.00     0.093 C 
HETATM    8  C   UNL     1     -40.335  53.623 -52.818  1.00  0.00     0.031 C 
HETATM    9  C   UNL     1     -41.270  53.994 -53.979  1.00  0.00     0.070 C 
HETATM   10  C   UNL     1     -41.853  57.540 -52.962  1.00  0.00     0.153 A 
HETATM   11  N   UNL     1     -42.191  58.109 -54.143  1.00  0.00    -0.073 NA
ENDROOT
BRANCH   1  12
HETATM   12  N   UNL     1     -42.588  57.922 -56.408  1.00  0.00    -0.015 N 
HETATM   13  H   UNL     1     -42.106  58.779 -56.602  1.00  0.00     0.203 HD
BRANCH  12  14
HETATM   14  C   UNL     1     -43.576  57.617 -57.321  1.00  0.00     0.742 A 
HETATM   15  N   UNL     1     -44.739  58.264 -57.145  1.00  0.00    -0.066 NA
HETATM   16  C   UNL     1     -45.748  58.000 -58.005  1.00  0.00     0.062 A 
HETATM   17  C   UNL     1     -47.026  58.747 -57.751  1.00  0.00     0.072 C 
HETATM   18  C   UNL     1     -45.624  57.091 -59.062  1.00  0.00     0.018 A 
HETATM   19  C   UNL     1     -44.373  56.479 -59.156  1.00  0.00     0.088 A 
HETATM   20  C   UNL     1     -46.636  56.767 -59.999  1.00  0.00     0.016 A 
HETATM   21  N   UNL     1     -43.376  56.736 -58.306  1.00  0.00    -0.062 NA
HETATM   22  C   UNL     1     -44.155  55.562 -60.177  1.00  0.00     0.033 A 
HETATM   23  C   UNL     1     -45.149  55.238 -61.103  1.00  0.00     0.002 A 
HETATM   24  C   UNL     1     -46.396  55.843 -61.015  1.00  0.00     0.001 A 
ENDBRANCH  12  14
ENDBRANCH   1  12
BRANCH   8  25
HETATM   25  C   UNL     1     -40.048  52.133 -52.782  1.00  0.00    -0.053 A 
HETATM   26  C   UNL     1     -39.736  51.469 -51.585  1.00  0.00     0.007 A 
HETATM   27  C   UNL     1     -39.489  50.095 -51.576  1.00  0.00     0.001 A 
HETATM   28  C   UNL     1     -39.548  49.366 -52.761  1.00  0.00     0.000 A 
HETATM   29  C   UNL     1     -39.852  50.011 -53.957  1.00  0.00     0.001 A 
HETATM   30  C   UNL     1     -40.100  51.386 -53.969  1.00  0.00     0.007 A 
ENDBRANCH   8  25
TORSDOF 3
ENDMDL
MODEL 2
REMARK VINA RESULT:     -10.2      1.983      2.616
REMARK  3 active torsions:
REMARK  status: ('A' for Active; 'I' for Inactive)
REMARK    1  A    between atoms: C_4  and  N_5 
REMARK    2  A    between atoms: N_5  and  C_6 
REMARK    3  A    between atoms: C_13  and  C_14 
ROOT
HETATM    1  C   UNL     1     -41.841  57.821 -53.209  1.00  0.00     0.741 A 
HETATM    2  N   UNL     1     -41.550  56.546 -53.520  1.00  0.00    -0.066 NA
HETATM    3  C   UNL     1     -41.328  55.666 -52.520  1.00  0.00     0.069 A 
HETATM    4  C   UNL     1     -41.405  56.032 -51.196  1.00  0.00     0.053 A 
HETATM    5  C   UNL     1     -41.193  55.063 -50.110  1.00  0.00     0.163 C 
HETATM    6  O   UNL     1     -41.291  55.427 -48.942  1.00  0.00    -0.292 OA
HETATM    7  C   UNL     1     -40.930  53.621 -50.489  1.00  0.00     0.093 C 
HETATM    8  C   UNL     1     -40.231  53.517 -51.849  1.00  0.00     0.031 C 
HETATM    9  C   UNL     1     -41.047  54.247 -52.926  1.00  0.00     0.070 C 
HETATM   10  C   UNL     1     -41.701  57.351 -50.955  1.00  0.00     0.153 A 
HETATM   11  N   UNL     1     -41.919  58.256 -51.938  1.00  0.00    -0.073 NA
ENDROOT
BRANCH   1  12
HETATM   12  N   UNL     1     -42.096  58.762 -54.181  1.00  0.00    -0.015 N 
HETATM   13  H   UNL     1     -42.394  59.651 -53.827  1.00  0.00     0.203 HD
BRANCH  12  14
HETATM   14  C   UNL     1     -42.112  58.676 -55.558  1.00  0.00     0.742 A 
HETATM   15  N   UNL     1     -41.735  59.789 -56.207  1.00  0.00    -0.066 NA
HETATM   16  C   UNL     1     -41.738  59.767 -57.559  1.00  0.00     0.062 A 
HETATM   17  C   UNL     1     -41.316  61.043 -58.227  1.00  0.00     0.072 C 
HETATM   18  C   UNL     1     -42.112  58.639 -58.297  1.00  0.00     0.018 A 
HETATM   19  C   UNL     1     -42.482  57.536 -57.523  1.00  0.00     0.088 A 
HETATM   20  C   UNL     1     -42.139  58.544 -59.711  1.00  0.00     0.016 A 
HETATM   21  N   UNL     1     -42.482  57.557 -56.189  1.00  0.00    -0.062 NA
HETATM   22  C   UNL     1     -42.867  56.368 -58.169  1.00  0.00     0.033 A 
HETATM   23  C   UNL     1     -42.895  56.269 -59.562  1.00  0.00     0.002 A 
HETATM   24  C   UNL     1     -42.529  57.362 -60.337  1.00  0.00     0.001 A 
ENDBRANCH  12  14
ENDBRANCH   1  12
BRANCH   8  25
HETATM   25  C   UNL     1     -39.959  52.073 -52.234  1.00  0.00    -0.053 A 
HETATM   26  C   UNL     1     -39.720  51.083 -51.268  1.00  0.00     0.007 A 
HETATM   27  C   UNL     1     -39.486  49.760 -51.646  1.00  0.00     0.001 A 
HETATM   28  C   UNL     1     -39.484  49.408 -52.993  1.00  0.00     0.000 A 
HETATM   29  C   UNL     1     -39.716  50.379 -53.964  1.00  0.00     0.001 A 
HETATM   30  C   UNL     1     -39.951  51.704 -53.588  1.00  0.00     0.007 A 
ENDBRANCH   8  25
TORSDOF 3
ENDMDL
MODEL 3
REMARK VINA RESULT:     -10.2      0.924      1.834
REMARK  3 active torsions:
REMARK  status: ('A' for Active; 'I' for Inactive)
REMARK    1  A    between atoms: C_4  and  N_5 
REMARK    2  A    between atoms: N_5  and  C_6 
REMARK    3  A    between atoms: C_13  and  C_14 
ROOT
HETATM    1  C   UNL     1     -42.267  57.120 -56.012  1.00  0.00     0.741 A 
HETATM    2  N   UNL     1     -41.944  55.828 -55.835  1.00  0.00    -0.066 NA
HETATM    3  C   UNL     1     -41.638  55.397 -54.592  1.00  0.00     0.069 A 
HETATM    4  C   UNL     1     -41.661  56.236 -53.503  1.00  0.00     0.053 A 
HETATM    5  C   UNL     1     -41.358  55.756 -52.146  1.00  0.00     0.163 C 
HETATM    6  O   UNL     1     -41.410  56.534 -51.199  1.00  0.00    -0.292 OA
HETATM    7  C   UNL     1     -41.060  54.282 -51.967  1.00  0.00     0.093 C 
HETATM    8  C   UNL     1     -40.428  53.680 -53.227  1.00  0.00     0.031 C 
HETATM    9  C   UNL     1     -41.324  53.934 -54.449  1.00  0.00     0.070 C 
HETATM   10  C   UNL     1     -41.994  57.544 -53.760  1.00  0.00     0.153 A 
HETATM   11  N   UNL     1     -42.297  58.004 -54.996  1.00  0.00    -0.073 NA
ENDROOT
BRANCH   1  12
HETATM   12  N   UNL     1     -42.607  57.618 -57.250  1.00  0.00    -0.015 N 
HETATM   13  H   UNL     1     -42.063  58.409 -57.540  1.00  0.00     0.203 HD
BRANCH  12  14
HETATM   14  C   UNL     1     -43.625  57.290 -58.121  1.00  0.00     0.742 A 
HETATM   15  N   UNL     1     -43.648  56.009 -58.520  1.00  0.00    -0.066 NA
HETATM   16  C   UNL     1     -44.620  55.630 -59.381  1.00  0.00     0.062 A 
HETATM   17  C   UNL     1     -44.587  54.189 -59.798  1.00  0.00     0.072 C 
HETATM   18  C   UNL     1     -45.592  56.514 -59.862  1.00  0.00     0.018 A 
HETATM   19  C   UNL     1     -45.478  57.820 -59.380  1.00  0.00     0.088 A 
HETATM   20  C   UNL     1     -46.636  56.188 -60.763  1.00  0.00     0.016 A 
HETATM   21  N   UNL     1     -44.518  58.197 -58.532  1.00  0.00    -0.062 NA
HETATM   22  C   UNL     1     -46.402  58.769 -59.801  1.00  0.00     0.033 A 
HETATM   23  C   UNL     1     -47.433  58.452 -60.688  1.00  0.00     0.002 A 
HETATM   24  C   UNL     1     -47.551  57.156 -61.172  1.00  0.00     0.001 A 
ENDBRANCH  12  14
ENDBRANCH   1  12
BRANCH   8  25
HETATM   25  C   UNL     1     -40.122  52.204 -53.054  1.00  0.00    -0.053 A 
HETATM   26  C   UNL     1     -39.689  51.677 -51.826  1.00  0.00     0.007 A 
HETATM   27  C   UNL     1     -39.426  50.313 -51.688  1.00  0.00     0.001 A 
HETATM   28  C   UNL     1     -39.589  49.457 -52.774  1.00  0.00     0.000 A 
HETATM   29  C   UNL     1     -40.013  49.964 -54.000  1.00  0.00     0.001 A 
HETATM   30  C   UNL     1     -40.277  51.328 -54.140  1.00  0.00     0.007 A 
ENDBRANCH   8  25
TORSDOF 3
ENDMDL
MODEL 4
REMARK VINA RESULT:      -9.9      1.049      2.137
REMARK  3 active torsions:
REMARK  status: ('A' for Active; 'I' for Inactive)
REMARK    1  A    between atoms: C_4  and  N_5 
REMARK    2  A    between atoms: N_5  and  C_6 
REMARK    3  A    between atoms: C_13  and  C_14 
ROOT
HETATM    1  C   UNL     1     -41.907  57.728 -54.389  1.00  0.00     0.741 A 
HETATM    2  N   UNL     1     -41.631  56.418 -54.494  1.00  0.00    -0.066 NA
HETATM    3  C   UNL     1     -41.399  55.708 -53.369  1.00  0.00     0.069 A 
HETATM    4  C   UNL     1     -41.450  56.283 -52.120  1.00  0.00     0.053 A 
HETATM    5  C   UNL     1     -41.226  55.501 -50.895  1.00  0.00     0.163 C 
HETATM    6  O   UNL     1     -41.302  56.049 -49.800  1.00  0.00    -0.292 OA
HETATM    7  C   UNL     1     -40.982  54.014 -51.041  1.00  0.00     0.093 C 
HETATM    8  C   UNL     1     -40.308  53.683 -52.377  1.00  0.00     0.031 C 
HETATM    9  C   UNL     1     -41.136  54.239 -53.545  1.00  0.00     0.070 C 
HETATM   10  C   UNL     1     -41.731  57.627 -52.090  1.00  0.00     0.153 A 
HETATM   11  N   UNL     1     -41.960  58.364 -53.203  1.00  0.00    -0.073 NA
ENDROOT
BRANCH   1  12
HETATM   12  N   UNL     1     -42.171  58.504 -55.496  1.00  0.00    -0.015 N 
HETATM   13  H   UNL     1     -41.848  59.450 -55.424  1.00  0.00     0.203 HD
BRANCH  12  14
HETATM   14  C   UNL     1     -42.888  58.244 -56.646  1.00  0.00     0.742 A 
HETATM   15  N   UNL     1     -42.149  57.960 -57.730  1.00  0.00    -0.066 NA
HETATM   16  C   UNL     1     -42.797  57.704 -58.889  1.00  0.00     0.062 A 
HETATM   17  C   UNL     1     -41.917  57.403 -60.068  1.00  0.00     0.072 C 
HETATM   18  C   UNL     1     -44.192  57.720 -58.997  1.00  0.00     0.018 A 
HETATM   19  C   UNL     1     -44.862  58.023 -57.810  1.00  0.00     0.088 A 
HETATM   20  C   UNL     1     -44.935  57.463 -60.176  1.00  0.00     0.016 A 
HETATM   21  N   UNL     1     -44.225  58.278 -56.665  1.00  0.00    -0.062 NA
HETATM   22  C   UNL     1     -46.251  58.060 -57.819  1.00  0.00     0.033 A 
HETATM   23  C   UNL     1     -46.988  57.807 -58.978  1.00  0.00     0.002 A 
HETATM   24  C   UNL     1     -46.328  57.507 -60.162  1.00  0.00     0.001 A 
ENDBRANCH  12  14
ENDBRANCH   1  12
BRANCH   8  25
HETATM   25  C   UNL     1     -40.054  52.194 -52.528  1.00  0.00    -0.053 A 
HETATM   26  C   UNL     1     -40.092  51.560 -53.780  1.00  0.00     0.007 A 
HETATM   27  C   UNL     1     -39.842  50.192 -53.894  1.00  0.00     0.001 A 
HETATM   28  C   UNL     1     -39.554  49.437 -52.760  1.00  0.00     0.000 A 
HETATM   29  C   UNL     1     -39.518  50.050 -51.510  1.00  0.00     0.001 A 
HETATM   30  C   UNL     1     -39.767  51.419 -51.393  1.00  0.00     0.007 A 
ENDBRANCH   8  25
TORSDOF 3
ENDMDL
MODEL 5
REMARK VINA RESULT:      -9.7      1.860      2.771
REMARK  3 active torsions:
REMARK  status: ('A' for Active; 'I' for Inactive)
REMARK    1  A    between atoms: C_4  and  N_5 
REMARK    2  A    between atoms: N_5  and  C_6 
REMARK    3  A    between atoms: C_13  and  C_14 
ROOT
HETATM    1  C   UNL     1     -42.966  57.330 -54.296  1.00  0.00     0.741 A 
HETATM    2  N   UNL     1     -42.593  56.043 -54.400  1.00  0.00    -0.066 NA
HETATM    3  C   UNL     1     -42.013  55.445 -53.337  1.00  0.00     0.069 A 
HETATM    4  C   UNL     1     -41.805  56.108 -52.150  1.00  0.00     0.053 A 
HETATM    5  C   UNL     1     -41.200  55.445 -50.986  1.00  0.00     0.163 C 
HETATM    6  O   UNL     1     -41.052  56.067 -49.939  1.00  0.00    -0.292 OA
HETATM    7  C   UNL     1     -40.849  53.977 -51.111  1.00  0.00     0.093 C 
HETATM    8  C   UNL     1     -40.505  53.604 -52.557  1.00  0.00     0.031 C 
HETATM    9  C   UNL     1     -41.654  53.995 -53.498  1.00  0.00     0.070 C 
HETATM   10  C   UNL     1     -42.205  57.422 -52.120  1.00  0.00     0.153 A 
HETATM   11  N   UNL     1     -42.782  58.048 -53.172  1.00  0.00    -0.073 NA
ENDROOT
BRANCH   1  12
HETATM   12  N   UNL     1     -43.580  57.992 -55.336  1.00  0.00    -0.015 N 
HETATM   13  H   UNL     1     -44.489  58.352 -55.117  1.00  0.00     0.203 HD
BRANCH  12  14
HETATM   14  C   UNL     1     -43.213  58.165 -56.654  1.00  0.00     0.742 A 
HETATM   15  N   UNL     1     -43.252  57.057 -57.411  1.00  0.00    -0.066 NA
HETATM   16  C   UNL     1     -42.895  57.163 -58.711  1.00  0.00     0.062 A 
HETATM   17  C   UNL     1     -42.949  55.889 -59.502  1.00  0.00     0.072 C 
HETATM   18  C   UNL     1     -42.496  58.373 -59.290  1.00  0.00     0.018 A 
HETATM   19  C   UNL     1     -42.497  59.462 -58.416  1.00  0.00     0.088 A 
HETATM   20  C   UNL     1     -42.111  58.558 -60.642  1.00  0.00     0.016 A 
HETATM   21  N   UNL     1     -42.846  59.359 -57.132  1.00  0.00    -0.062 NA
HETATM   22  C   UNL     1     -42.118  60.708 -58.903  1.00  0.00     0.033 A 
HETATM   23  C   UNL     1     -41.737  60.896 -60.233  1.00  0.00     0.002 A 
HETATM   24  C   UNL     1     -41.733  59.817 -61.107  1.00  0.00     0.001 A 
ENDBRANCH  12  14
ENDBRANCH   1  12
BRANCH   8  25
HETATM   25  C   UNL     1     -40.146  52.134 -52.689  1.00  0.00    -0.053 A 
HETATM   26  C   UNL     1     -39.797  51.355 -51.575  1.00  0.00     0.007 A 
HETATM   27  C   UNL     1     -39.484  50.002 -51.721  1.00  0.00     0.001 A 
HETATM   28  C   UNL     1     -39.513  49.410 -52.981  1.00  0.00     0.000 A 
HETATM   29  C   UNL     1     -39.853  50.171 -54.097  1.00  0.00     0.001 A 
HETATM   30  C   UNL     1     -40.167  51.524 -53.953  1.00  0.00     0.007 A 
ENDBRANCH   8  25
TORSDOF 3
ENDMDL
MODEL 6
REMARK VINA RESULT:      -9.4      4.773      7.717
REMARK  3 active torsions:
REMARK  status: ('A' for Active; 'I' for Inactive)
REMARK    1  A    between atoms: C_4  and  N_5 
REMARK    2  A    between atoms: N_5  and  C_6 
REMARK    3  A    between atoms: C_13  and  C_14 
ROOT
HETATM    1  C   UNL     1     -44.754  58.148 -51.520  1.00  0.00     0.741 A 
HETATM    2  N   UNL     1     -43.888  57.133 -51.365  1.00  0.00    -0.066 NA
HETATM    3  C   UNL     1     -43.368  56.546 -52.464  1.00  0.00     0.069 A 
HETATM    4  C   UNL     1     -43.687  56.964 -53.735  1.00  0.00     0.053 A 
HETATM    5  C   UNL     1     -43.095  56.342 -54.929  1.00  0.00     0.163 C 
HETATM    6  O   UNL     1     -43.391  56.761 -56.044  1.00  0.00    -0.292 OA
HETATM    7  C   UNL     1     -42.074  55.244 -54.722  1.00  0.00     0.093 C 
HETATM    8  C   UNL     1     -42.332  54.475 -53.421  1.00  0.00     0.031 C 
HETATM    9  C   UNL     1     -42.375  55.442 -52.228  1.00  0.00     0.070 C 
HETATM   10  C   UNL     1     -44.583  58.003 -53.817  1.00  0.00     0.153 A 
HETATM   11  N   UNL     1     -45.125  58.604 -52.732  1.00  0.00    -0.073 NA
ENDROOT
BRANCH   1  12
HETATM   12  N   UNL     1     -45.305  58.802 -50.441  1.00  0.00    -0.015 N 
HETATM   13  H   UNL     1     -46.063  58.313 -50.005  1.00  0.00     0.203 HD
BRANCH  12  14
HETATM   14  C   UNL     1     -45.069  60.053 -49.909  1.00  0.00     0.742 A 
HETATM   15  N   UNL     1     -45.842  60.388 -48.865  1.00  0.00    -0.066 NA
HETATM   16  C   UNL     1     -45.662  61.607 -48.307  1.00  0.00     0.062 A 
HETATM   17  C   UNL     1     -46.563  61.927 -47.150  1.00  0.00     0.072 C 
HETATM   18  C   UNL     1     -44.707  62.518 -48.771  1.00  0.00     0.018 A 
HETATM   19  C   UNL     1     -43.954  62.067 -49.857  1.00  0.00     0.088 A 
HETATM   20  C   UNL     1     -44.463  63.808 -48.236  1.00  0.00     0.016 A 
HETATM   21  N   UNL     1     -44.133  60.865 -50.411  1.00  0.00    -0.062 NA
HETATM   22  C   UNL     1     -42.979  62.903 -50.386  1.00  0.00     0.033 A 
HETATM   23  C   UNL     1     -42.734  64.175 -49.863  1.00  0.00     0.002 A 
HETATM   24  C   UNL     1     -43.480  64.630 -48.784  1.00  0.00     0.001 A 
ENDBRANCH  12  14
ENDBRANCH   1  12
BRANCH   8  25
HETATM   25  C   UNL     1     -41.316  53.368 -53.209  1.00  0.00    -0.053 A 
HETATM   26  C   UNL     1     -40.999  52.450 -54.223  1.00  0.00     0.007 A 
HETATM   27  C   UNL     1     -40.051  51.449 -54.008  1.00  0.00     0.001 A 
HETATM   28  C   UNL     1     -39.407  51.348 -52.778  1.00  0.00     0.000 A 
HETATM   29  C   UNL     1     -39.713  52.248 -51.760  1.00  0.00     0.001 A 
HETATM   30  C   UNL     1     -40.661  53.251 -51.973  1.00  0.00     0.007 A 
ENDBRANCH   8  25
TORSDOF 3
ENDMDL
MODEL 7
REMARK VINA RESULT:      -9.1      4.733      7.759
REMARK  3 active torsions:
REMARK  status: ('A' for Active; 'I' for Inactive)
REMARK    1  A    between atoms: C_4  and  N_5 
REMARK    2  A    between atoms: N_5  and  C_6 
REMARK    3  A    between atoms: C_13  and  C_14 
ROOT
HETATM    1  C   UNL     1     -44.792  58.049 -52.092  1.00  0.00     0.741 A 
HETATM    2  N   UNL     1     -44.002  57.003 -51.799  1.00  0.00    -0.066 NA
HETATM    3  C   UNL     1     -43.201  56.502 -52.764  1.00  0.00     0.069 A 
HETATM    4  C   UNL     1     -43.160  57.038 -54.030  1.00  0.00     0.053 A 
HETATM    5  C   UNL     1     -42.263  56.509 -55.069  1.00  0.00     0.163 C 
HETATM    6  O   UNL     1     -42.243  57.031 -56.179  1.00  0.00    -0.292 OA
HETATM    7  C   UNL     1     -41.338  55.372 -54.692  1.00  0.00     0.093 C 
HETATM    8  C   UNL     1     -41.941  54.499 -53.586  1.00  0.00     0.031 C 
HETATM    9  C   UNL     1     -42.309  55.358 -52.368  1.00  0.00     0.070 C 
HETATM   10  C   UNL     1     -43.999  58.101 -54.258  1.00  0.00     0.153 A 
HETATM   11  N   UNL     1     -44.818  58.618 -53.312  1.00  0.00    -0.073 NA
ENDROOT
BRANCH   1  12
HETATM   12  N   UNL     1     -45.618  58.618 -51.148  1.00  0.00    -0.015 N 
HETATM   13  H   UNL     1     -46.552  58.254 -51.143  1.00  0.00     0.203 HD
BRANCH  12  14
HETATM   14  C   UNL     1     -45.424  59.668 -50.275  1.00  0.00     0.742 A 
HETATM   15  N   UNL     1     -44.808  60.741 -50.796  1.00  0.00    -0.066 NA
HETATM   16  C   UNL     1     -44.582  61.800 -49.985  1.00  0.00     0.062 A 
HETATM   17  C   UNL     1     -43.882  62.964 -50.622  1.00  0.00     0.072 C 
HETATM   18  C   UNL     1     -44.967  61.818 -48.640  1.00  0.00     0.018 A 
HETATM   19  C   UNL     1     -45.603  60.654 -48.202  1.00  0.00     0.088 A 
HETATM   20  C   UNL     1     -44.764  62.889 -47.734  1.00  0.00     0.016 A 
HETATM   21  N   UNL     1     -45.825  59.607 -49.001  1.00  0.00    -0.062 NA
HETATM   22  C   UNL     1     -46.024  60.581 -46.880  1.00  0.00     0.033 A 
HETATM   23  C   UNL     1     -45.827  61.634 -45.983  1.00  0.00     0.002 A 
HETATM   24  C   UNL     1     -45.194  62.793 -46.411  1.00  0.00     0.001 A 
ENDBRANCH  12  14
ENDBRANCH   1  12
BRANCH   8  25
HETATM   25  C   UNL     1     -41.021  53.353 -53.207  1.00  0.00    -0.053 A 
HETATM   26  C   UNL     1     -40.590  53.156 -51.886  1.00  0.00     0.007 A 
HETATM   27  C   UNL     1     -39.754  52.087 -51.560  1.00  0.00     0.001 A 
HETATM   28  C   UNL     1     -39.334  51.201 -52.549  1.00  0.00     0.000 A 
HETATM   29  C   UNL     1     -39.749  51.385 -53.866  1.00  0.00     0.001 A 
HETATM   30  C   UNL     1     -40.586  52.454 -54.194  1.00  0.00     0.007 A 
ENDBRANCH   8  25
TORSDOF 3
ENDMDL
MODEL 8
REMARK VINA RESULT:      -9.1      3.736      9.199
REMARK  3 active torsions:
REMARK  status: ('A' for Active; 'I' for Inactive)
REMARK    1  A    between atoms: C_4  and  N_5 
REMARK    2  A    between atoms: N_5  and  C_6 
REMARK    3  A    between atoms: C_13  and  C_14 
ROOT
HETATM    1  C   UNL     1     -43.189  56.102 -56.125  1.00  0.00     0.741 A 
HETATM    2  N   UNL     1     -42.980  57.429 -56.088  1.00  0.00    -0.066 NA
HETATM    3  C   UNL     1     -42.693  58.076 -57.238  1.00  0.00     0.069 A 
HETATM    4  C   UNL     1     -42.622  57.421 -58.445  1.00  0.00     0.053 A 
HETATM    5  C   UNL     1     -42.339  58.135 -59.700  1.00  0.00     0.163 C 
HETATM    6  O   UNL     1     -42.305  57.515 -60.758  1.00  0.00    -0.292 OA
HETATM    7  C   UNL     1     -42.172  59.638 -59.637  1.00  0.00     0.093 C 
HETATM    8  C   UNL     1     -41.617  60.085 -58.279  1.00  0.00     0.031 C 
HETATM    9  C   UNL     1     -42.508  59.565 -57.141  1.00  0.00     0.070 C 
HETATM   10  C   UNL     1     -42.840  56.066 -58.406  1.00  0.00     0.153 A 
HETATM   11  N   UNL     1     -43.122  55.391 -57.267  1.00  0.00    -0.073 NA
ENDROOT
BRANCH   1  12
HETATM   12  N   UNL     1     -43.504  55.387 -54.992  1.00  0.00    -0.015 N 
HETATM   13  H   UNL     1     -44.465  55.453 -54.715  1.00  0.00     0.203 HD
BRANCH  12  14
HETATM   14  C   UNL     1     -42.717  54.675 -54.110  1.00  0.00     0.742 A 
HETATM   15  N   UNL     1     -42.869  54.997 -52.816  1.00  0.00    -0.066 NA
HETATM   16  C   UNL     1     -42.117  54.337 -51.905  1.00  0.00     0.062 A 
HETATM   17  C   UNL     1     -42.325  54.748 -50.477  1.00  0.00     0.072 C 
HETATM   18  C   UNL     1     -41.202  53.340 -52.259  1.00  0.00     0.018 A 
HETATM   19  C   UNL     1     -41.127  53.081 -53.629  1.00  0.00     0.088 A 
HETATM   20  C   UNL     1     -40.384  52.609 -51.361  1.00  0.00     0.016 A 
HETATM   21  N   UNL     1     -41.865  53.733 -54.530  1.00  0.00    -0.062 NA
HETATM   22  C   UNL     1     -40.245  52.104 -54.076  1.00  0.00     0.033 A 
HETATM   23  C   UNL     1     -39.437  51.381 -53.195  1.00  0.00     0.002 A 
HETATM   24  C   UNL     1     -39.506  51.634 -51.832  1.00  0.00     0.001 A 
ENDBRANCH  12  14
ENDBRANCH   1  12
BRANCH   8  25
HETATM   25  C   UNL     1     -41.442  61.591 -58.210  1.00  0.00    -0.053 A 
HETATM   26  C   UNL     1     -42.418  62.425 -57.642  1.00  0.00     0.007 A 
HETATM   27  C   UNL     1     -42.227  63.806 -57.579  1.00  0.00     0.001 A 
HETATM   28  C   UNL     1     -41.061  64.374 -58.084  1.00  0.00     0.000 A 
HETATM   29  C   UNL     1     -40.084  63.562 -58.655  1.00  0.00     0.001 A 
HETATM   30  C   UNL     1     -40.273  62.179 -58.718  1.00  0.00     0.007 A 
ENDBRANCH   8  25
TORSDOF 3
ENDMDL
MODEL 9
REMARK VINA RESULT:      -8.8      2.483      3.223
REMARK  3 active torsions:
REMARK  status: ('A' for Active; 'I' for Inactive)
REMARK    1  A    between atoms: C_4  and  N_5 
REMARK    2  A    between atoms: N_5  and  C_6 
REMARK    3  A    between atoms: C_13  and  C_14 
ROOT
HETATM    1  C   UNL     1     -42.847  58.936 -54.000  1.00  0.00     0.741 A 
HETATM    2  N   UNL     1     -42.204  57.775 -54.208  1.00  0.00    -0.066 NA
HETATM    3  C   UNL     1     -42.427  56.747 -53.362  1.00  0.00     0.069 A 
HETATM    4  C   UNL     1     -43.301  56.847 -52.305  1.00  0.00     0.053 A 
HETATM    5  C   UNL     1     -43.564  55.715 -51.404  1.00  0.00     0.163 C 
HETATM    6  O   UNL     1     -44.368  55.841 -50.486  1.00  0.00    -0.292 OA
HETATM    7  C   UNL     1     -42.875  54.400 -51.701  1.00  0.00     0.093 C 
HETATM    8  C   UNL     1     -41.526  54.618 -52.396  1.00  0.00     0.031 C 
HETATM    9  C   UNL     1     -41.710  55.461 -53.667  1.00  0.00     0.070 C 
HETATM   10  C   UNL     1     -43.918  58.065 -52.152  1.00  0.00     0.153 A 
HETATM   11  N   UNL     1     -43.707  59.115 -52.979  1.00  0.00    -0.073 NA
ENDROOT
BRANCH   1  12
HETATM   12  N   UNL     1     -42.678  60.017 -54.837  1.00  0.00    -0.015 N 
HETATM   13  H   UNL     1     -42.654  60.902 -54.368  1.00  0.00     0.203 HD
BRANCH  12  14
HETATM   14  C   UNL     1     -42.636  60.112 -56.212  1.00  0.00     0.742 A 
HETATM   15  N   UNL     1     -41.664  60.897 -56.703  1.00  0.00    -0.066 NA
HETATM   16  C   UNL     1     -41.577  61.036 -58.046  1.00  0.00     0.062 A 
HETATM   17  C   UNL     1     -40.477  61.934 -58.533  1.00  0.00     0.072 C 
HETATM   18  C   UNL     1     -42.451  60.395 -58.931  1.00  0.00     0.018 A 
HETATM   19  C   UNL     1     -43.420  59.599 -58.315  1.00  0.00     0.088 A 
HETATM   20  C   UNL     1     -42.419  60.493 -60.345  1.00  0.00     0.016 A 
HETATM   21  N   UNL     1     -43.509  59.464 -56.990  1.00  0.00    -0.062 NA
HETATM   22  C   UNL     1     -44.331  58.921 -59.115  1.00  0.00     0.033 A 
HETATM   23  C   UNL     1     -44.304  59.014 -60.508  1.00  0.00     0.002 A 
HETATM   24  C   UNL     1     -43.344  59.804 -61.127  1.00  0.00     0.001 A 
ENDBRANCH  12  14
ENDBRANCH   1  12
BRANCH   8  25
HETATM   25  C   UNL     1     -40.825  53.304 -52.691  1.00  0.00    -0.053 A 
HETATM   26  C   UNL     1     -40.072  52.632 -51.716  1.00  0.00     0.007 A 
HETATM   27  C   UNL     1     -39.448  51.418 -52.008  1.00  0.00     0.001 A 
HETATM   28  C   UNL     1     -39.565  50.860 -53.278  1.00  0.00     0.000 A 
HETATM   29  C   UNL     1     -40.305  51.516 -54.258  1.00  0.00     0.001 A 
HETATM   30  C   UNL     1     -40.931  52.731 -53.968  1.00  0.00     0.007 A 
ENDBRANCH   8  25
TORSDOF 3
ENDMDL
MODEL 10
REMARK VINA RESULT:      -8.8      4.648      5.599
REMARK  3 active torsions:
REMARK  status: ('A' for Active; 'I' for Inactive)
REMARK    1  A    between atoms: C_4  and  N_5 
REMARK    2  A    between atoms: N_5  and  C_6 
REMARK    3  A    between atoms: C_13  and  C_14 
ROOT
HETATM    1  C   UNL     1     -41.870  57.810 -52.340  1.00  0.00     0.741 A 
HETATM    2  N   UNL     1     -41.635  56.566 -52.792  1.00  0.00    -0.066 NA
HETATM    3  C   UNL     1     -41.294  55.605 -51.907  1.00  0.00     0.069 A 
HETATM    4  C   UNL     1     -41.195  55.857 -50.558  1.00  0.00     0.053 A 
HETATM    5  C   UNL     1     -40.854  54.801 -49.594  1.00  0.00     0.163 C 
HETATM    6  O   UNL     1     -40.797  55.064 -48.397  1.00  0.00    -0.292 OA
HETATM    7  C   UNL     1     -40.657  53.396 -50.124  1.00  0.00     0.093 C 
HETATM    8  C   UNL     1     -40.141  53.408 -51.567  1.00  0.00     0.031 C 
HETATM    9  C   UNL     1     -41.082  54.226 -52.464  1.00  0.00     0.070 C 
HETATM   10  C   UNL     1     -41.444  57.151 -50.171  1.00  0.00     0.153 A 
HETATM   11  N   UNL     1     -41.779  58.136 -51.037  1.00  0.00    -0.073 NA
ENDROOT
BRANCH   1  12
HETATM   12  N   UNL     1     -42.239  58.830 -53.188  1.00  0.00    -0.015 N 
HETATM   13  H   UNL     1     -41.779  58.815 -54.078  1.00  0.00     0.203 HD
BRANCH  12  14
HETATM   14  C   UNL     1     -43.055  59.927 -53.000  1.00  0.00     0.742 A 
HETATM   15  N   UNL     1     -44.285  59.655 -52.537  1.00  0.00    -0.066 NA
HETATM   16  C   UNL     1     -45.133  60.690 -52.340  1.00  0.00     0.062 A 
HETATM   17  C   UNL     1     -46.495  60.322 -51.830  1.00  0.00     0.072 C 
HETATM   18  C   UNL     1     -44.776  62.019 -52.596  1.00  0.00     0.018 A 
HETATM   19  C   UNL     1     -43.474  62.190 -53.070  1.00  0.00     0.088 A 
HETATM   20  C   UNL     1     -45.610  63.151 -52.413  1.00  0.00     0.016 A 
HETATM   21  N   UNL     1     -42.637  61.169 -53.267  1.00  0.00    -0.062 NA
HETATM   22  C   UNL     1     -43.029  63.476 -53.350  1.00  0.00     0.033 A 
HETATM   23  C   UNL     1     -43.847  64.594 -53.172  1.00  0.00     0.002 A 
HETATM   24  C   UNL     1     -45.143  64.432 -52.701  1.00  0.00     0.001 A 
ENDBRANCH  12  14
ENDBRANCH   1  12
BRANCH   8  25
HETATM   25  C   UNL     1     -39.936  52.002 -52.103  1.00  0.00    -0.053 A 
HETATM   26  C   UNL     1     -39.920  51.731 -53.481  1.00  0.00     0.007 A 
HETATM   27  C   UNL     1     -39.716  50.432 -53.949  1.00  0.00     0.001 A 
HETATM   28  C   UNL     1     -39.529  49.386 -53.050  1.00  0.00     0.000 A 
HETATM   29  C   UNL     1     -39.548  49.637 -51.680  1.00  0.00     0.001 A 
HETATM   30  C   UNL     1     -39.750  50.937 -51.209  1.00  0.00     0.007 A 
ENDBRANCH   8  25
TORSDOF 3
ENDMDL
