MODEL 1
REMARK VINA RESULT:      -9.1      0.000      0.000
REMARK  6 active torsions:
REMARK  status: ('A' for Active; 'I' for Inactive)
REMARK    1  A    between atoms: C_2  and  O_3 
REMARK    2  A    between atoms: C_2  and  C_4 
REMARK    3  A    between atoms: C_6  and  N_7 
REMARK       I    between atoms: N_7  and  C_8 
REMARK    4  A    between atoms: C_8  and  C_9 
REMARK    5  A    between atoms: C_12  and  C_13 
REMARK    6  A    between atoms: C_18  and  C_19 
ROOT
HETATM    1  C   UNL     1     -42.164  56.027 -54.443  1.00  0.00     0.096 C 
HETATM    2  C   UNL     1     -41.592  55.087 -53.604  1.00  0.00     0.138 C 
HETATM    3  N   UNL     1     -41.554  55.666 -52.356  1.00  0.00    -0.240 N 
HETATM    4  C   UNL     1     -40.966  55.045 -51.182  1.00  0.00     0.221 C 
HETATM    5  C   UNL     1     -40.776  53.533 -51.409  1.00  0.00     0.067 C 
HETATM    6  C   UNL     1     -40.192  53.265 -52.802  1.00  0.00     0.125 C 
HETATM    7  N   UNL     1     -41.099  53.834 -53.814  1.00  0.00    -0.365 N 
HETATM    8  N   UNL     1     -41.907  56.960 -52.361  1.00  0.00    -0.181 NA
HETATM    9  C   UNL     1     -42.307  57.169 -53.619  1.00  0.00     0.160 C 
HETATM   10  H   UNL     1     -40.777  53.607 -54.758  1.00  0.00     0.162 HD
ENDROOT
BRANCH   1  11
HETATM   11  C   UNL     1     -42.494  55.922 -55.854  1.00  0.00     0.261 C 
HETATM   12  N   UNL     1     -42.501  57.142 -56.503  1.00  0.00    -0.323 N 
HETATM   13  H   UNL     1     -42.143  57.922 -55.962  1.00  0.00     0.169 HD
HETATM   14  O   UNL     1     -42.705  54.829 -56.365  1.00  0.00    -0.267 OA
BRANCH  12  15
HETATM   15  C   UNL     1     -42.888  57.419 -57.828  1.00  0.00     0.035 A 
HETATM   16  C   UNL     1     -43.979  56.816 -58.459  1.00  0.00     0.039 A 
HETATM   17  C   UNL     1     -44.339  57.160 -59.776  1.00  0.00    -0.028 A 
HETATM   18  C   UNL     1     -43.581  58.127 -60.451  1.00  0.00     0.010 A 
HETATM   19  C   UNL     1     -42.489  58.730 -59.830  1.00  0.00     0.003 A 
HETATM   20  C   UNL     1     -42.147  58.380 -58.523  1.00  0.00     0.029 A 
BRANCH  17  21
HETATM   21  C   UNL     1     -45.553  56.514 -60.408  1.00  0.00     0.147 C 
HETATM   22  C   UNL     1     -45.179  55.236 -61.149  1.00  0.00     0.044 C 
BRANCH  21  23
HETATM   23  O   UNL     1     -46.529  56.203 -59.414  1.00  0.00    -0.391 OA
HETATM   24  H   UNL     1     -46.067  55.718 -58.709  1.00  0.00     0.210 HD
ENDBRANCH  21  23
ENDBRANCH  17  21
ENDBRANCH  12  15
ENDBRANCH   1  11
BRANCH   4  25
HETATM   25  C   UNL     1     -41.808  55.269 -49.944  1.00  0.00     0.409 C 
HETATM   26  F   UNL     1     -43.126  55.367 -50.229  1.00  0.00    -0.169 F 
HETATM   27  F   UNL     1     -41.672  54.206 -49.106  1.00  0.00    -0.169 F 
HETATM   28  F   UNL     1     -41.445  56.354 -49.231  1.00  0.00    -0.169 F 
ENDBRANCH   4  25
BRANCH   6  29
HETATM   29  C   UNL     1     -39.970  51.786 -53.002  1.00  0.00     0.005 A 
HETATM   30  S   UNL     1     -39.594  50.782 -51.663  1.00  0.00    -0.104 SA
HETATM   31  C   UNL     1     -39.509  49.388 -52.647  1.00  0.00     0.050 A 
HETATM   32  C   UNL     1     -39.762  49.673 -53.970  1.00  0.00     0.008 A 
HETATM   33  C   UNL     1     -40.027  51.056 -54.176  1.00  0.00     0.017 A 
ENDBRANCH   6  29
TORSDOF 6
ENDMDL
MODEL 2
REMARK VINA RESULT:      -8.8      1.502      1.870
REMARK  6 active torsions:
REMARK  status: ('A' for Active; 'I' for Inactive)
REMARK    1  A    between atoms: C_2  and  O_3 
REMARK    2  A    between atoms: C_2  and  C_4 
REMARK    3  A    between atoms: C_6  and  N_7 
REMARK       I    between atoms: N_7  and  C_8 
REMARK    4  A    between atoms: C_8  and  C_9 
REMARK    5  A    between atoms: C_12  and  C_13 
REMARK    6  A    between atoms: C_18  and  C_19 
ROOT
HETATM    1  C   UNL     1     -42.308  56.103 -53.750  1.00  0.00     0.096 C 
HETATM    2  C   UNL     1     -41.656  55.074 -53.094  1.00  0.00     0.138 C 
HETATM    3  N   UNL     1     -41.517  55.485 -51.788  1.00  0.00    -0.240 N 
HETATM    4  C   UNL     1     -40.825  54.727 -50.760  1.00  0.00     0.221 C 
HETATM    5  C   UNL     1     -40.638  53.263 -51.201  1.00  0.00     0.067 C 
HETATM    6  C   UNL     1     -40.172  53.194 -52.662  1.00  0.00     0.125 C 
HETATM    7  N   UNL     1     -41.169  53.871 -53.509  1.00  0.00    -0.365 N 
HETATM    8  N   UNL     1     -41.884  56.760 -51.591  1.00  0.00    -0.181 NA
HETATM    9  C   UNL     1     -42.392  57.123 -52.772  1.00  0.00     0.160 C 
HETATM   10  H   UNL     1     -40.926  53.777 -54.499  1.00  0.00     0.162 HD
ENDROOT
BRANCH   1  11
HETATM   11  C   UNL     1     -42.755  56.178 -55.131  1.00  0.00     0.261 C 
HETATM   12  N   UNL     1     -42.799  57.471 -55.618  1.00  0.00    -0.323 N 
HETATM   13  H   UNL     1     -42.387  58.175 -55.017  1.00  0.00     0.169 HD
HETATM   14  O   UNL     1     -43.024  55.159 -55.755  1.00  0.00    -0.267 OA
BRANCH  12  15
HETATM   15  C   UNL     1     -43.292  57.913 -56.860  1.00  0.00     0.035 A 
HETATM   16  C   UNL     1     -42.605  57.761 -58.067  1.00  0.00     0.039 A 
HETATM   17  C   UNL     1     -43.166  58.193 -59.283  1.00  0.00    -0.028 A 
HETATM   18  C   UNL     1     -44.437  58.784 -59.268  1.00  0.00     0.010 A 
HETATM   19  C   UNL     1     -45.127  58.945 -58.068  1.00  0.00     0.003 A 
HETATM   20  C   UNL     1     -44.558  58.508 -56.871  1.00  0.00     0.029 A 
BRANCH  17  21
HETATM   21  C   UNL     1     -42.406  57.970 -60.573  1.00  0.00     0.147 C 
HETATM   22  C   UNL     1     -41.816  59.273 -61.102  1.00  0.00     0.044 C 
BRANCH  21  23
HETATM   23  O   UNL     1     -41.349  57.032 -60.376  1.00  0.00    -0.391 OA
HETATM   24  H   UNL     1     -41.762  56.200 -60.089  1.00  0.00     0.210 HD
ENDBRANCH  21  23
ENDBRANCH  17  21
ENDBRANCH  12  15
ENDBRANCH   1  11
BRANCH   4  25
HETATM   25  C   UNL     1     -41.560  54.767 -49.438  1.00  0.00     0.409 C 
HETATM   26  F   UNL     1     -42.895  54.612 -49.587  1.00  0.00    -0.169 F 
HETATM   27  F   UNL     1     -41.137  53.739 -48.653  1.00  0.00    -0.169 F 
HETATM   28  F   UNL     1     -41.339  55.892 -48.729  1.00  0.00    -0.169 F 
ENDBRANCH   4  25
BRANCH   6  29
HETATM   29  C   UNL     1     -39.953  51.759 -53.075  1.00  0.00     0.005 A 
HETATM   30  S   UNL     1     -39.493  50.588 -51.909  1.00  0.00    -0.104 SA
HETATM   31  C   UNL     1     -39.455  49.342 -53.078  1.00  0.00     0.050 A 
HETATM   32  C   UNL     1     -39.786  49.801 -54.334  1.00  0.00     0.008 A 
HETATM   33  C   UNL     1     -40.072  51.196 -54.333  1.00  0.00     0.017 A 
ENDBRANCH   6  29
TORSDOF 6
ENDMDL
MODEL 3
REMARK VINA RESULT:      -8.4      3.952      8.434
REMARK  6 active torsions:
REMARK  status: ('A' for Active; 'I' for Inactive)
REMARK    1  A    between atoms: C_2  and  O_3 
REMARK    2  A    between atoms: C_2  and  C_4 
REMARK    3  A    between atoms: C_6  and  N_7 
REMARK       I    between atoms: N_7  and  C_8 
REMARK    4  A    between atoms: C_8  and  C_9 
REMARK    5  A    between atoms: C_12  and  C_13 
REMARK    6  A    between atoms: C_18  and  C_19 
ROOT
HETATM    1  C   UNL     1     -42.279  56.819 -55.021  1.00  0.00     0.096 C 
HETATM    2  C   UNL     1     -42.905  57.258 -56.174  1.00  0.00     0.138 C 
HETATM    3  N   UNL     1     -42.674  58.613 -56.240  1.00  0.00    -0.240 N 
HETATM    4  C   UNL     1     -43.212  59.487 -57.267  1.00  0.00     0.221 C 
HETATM    5  C   UNL     1     -43.710  58.665 -58.470  1.00  0.00     0.067 C 
HETATM    6  C   UNL     1     -44.508  57.443 -57.997  1.00  0.00     0.125 C 
HETATM    7  N   UNL     1     -43.647  56.624 -57.125  1.00  0.00    -0.365 N 
HETATM    8  N   UNL     1     -42.087  59.104 -55.138  1.00  0.00    -0.181 NA
HETATM    9  C   UNL     1     -41.819  58.013 -54.415  1.00  0.00     0.160 C 
HETATM   10  H   UNL     1     -44.125  55.761 -56.853  1.00  0.00     0.162 HD
ENDROOT
BRANCH   1  11
HETATM   11  C   UNL     1     -42.159  55.470 -54.494  1.00  0.00     0.261 C 
HETATM   12  N   UNL     1     -41.238  55.367 -53.469  1.00  0.00    -0.323 N 
HETATM   13  H   UNL     1     -40.876  56.248 -53.123  1.00  0.00     0.169 HD
HETATM   14  O   UNL     1     -42.854  54.564 -54.938  1.00  0.00    -0.267 OA
BRANCH  12  15
HETATM   15  C   UNL     1     -40.790  54.202 -52.819  1.00  0.00     0.035 A 
HETATM   16  C   UNL     1     -40.448  53.023 -53.486  1.00  0.00     0.039 A 
HETATM   17  C   UNL     1     -39.973  51.900 -52.782  1.00  0.00    -0.028 A 
HETATM   18  C   UNL     1     -39.845  51.982 -51.389  1.00  0.00     0.010 A 
HETATM   19  C   UNL     1     -40.188  53.152 -50.715  1.00  0.00     0.003 A 
HETATM   20  C   UNL     1     -40.655  54.258 -51.427  1.00  0.00     0.029 A 
BRANCH  17  21
HETATM   21  C   UNL     1     -39.573  50.658 -53.548  1.00  0.00     0.147 C 
HETATM   22  C   UNL     1     -39.572  49.427 -52.648  1.00  0.00     0.044 C 
BRANCH  21  23
HETATM   23  O   UNL     1     -40.467  50.431 -54.638  1.00  0.00    -0.391 OA
HETATM   24  H   UNL     1     -40.057  50.828 -55.425  1.00  0.00     0.210 HD
ENDBRANCH  21  23
ENDBRANCH  17  21
ENDBRANCH  12  15
ENDBRANCH   1  11
BRANCH   4  25
HETATM   25  C   UNL     1     -42.192  60.502 -57.735  1.00  0.00     0.409 C 
HETATM   26  F   UNL     1     -40.979  59.947 -57.960  1.00  0.00    -0.169 F 
HETATM   27  F   UNL     1     -42.597  61.038 -58.919  1.00  0.00    -0.169 F 
HETATM   28  F   UNL     1     -42.033  61.541 -56.891  1.00  0.00    -0.169 F 
ENDBRANCH   4  25
BRANCH   6  29
HETATM   29  C   UNL     1     -45.027  56.664 -59.180  1.00  0.00     0.005 A 
HETATM   30  S   UNL     1     -44.048  55.466 -59.919  1.00  0.00    -0.104 SA
HETATM   31  C   UNL     1     -45.256  55.092 -61.068  1.00  0.00     0.050 A 
HETATM   32  C   UNL     1     -46.386  55.859 -60.898  1.00  0.00     0.008 A 
HETATM   33  C   UNL     1     -46.255  56.767 -59.810  1.00  0.00     0.017 A 
ENDBRANCH   6  29
TORSDOF 6
ENDMDL
MODEL 4
REMARK VINA RESULT:      -8.2      4.382      8.690
REMARK  6 active torsions:
REMARK  status: ('A' for Active; 'I' for Inactive)
REMARK    1  A    between atoms: C_2  and  O_3 
REMARK    2  A    between atoms: C_2  and  C_4 
REMARK    3  A    between atoms: C_6  and  N_7 
REMARK       I    between atoms: N_7  and  C_8 
REMARK    4  A    between atoms: C_8  and  C_9 
REMARK    5  A    between atoms: C_12  and  C_13 
REMARK    6  A    between atoms: C_18  and  C_19 
ROOT
HETATM    1  C   UNL     1     -42.331  57.762 -55.026  1.00  0.00     0.096 C 
HETATM    2  C   UNL     1     -42.989  58.113 -56.190  1.00  0.00     0.138 C 
HETATM    3  N   UNL     1     -42.623  59.413 -56.457  1.00  0.00    -0.240 N 
HETATM    4  C   UNL     1     -43.141  60.199 -57.563  1.00  0.00     0.221 C 
HETATM    5  C   UNL     1     -43.809  59.287 -58.609  1.00  0.00     0.067 C 
HETATM    6  C   UNL     1     -44.693  58.237 -57.924  1.00  0.00     0.125 C 
HETATM    7  N   UNL     1     -43.862  57.448 -56.999  1.00  0.00    -0.365 N 
HETATM    8  N   UNL     1     -41.910  59.975 -55.470  1.00  0.00    -0.181 NA
HETATM    9  C   UNL     1     -41.706  58.965 -54.619  1.00  0.00     0.160 C 
HETATM   10  H   UNL     1     -44.406  56.689 -56.582  1.00  0.00     0.162 HD
ENDROOT
BRANCH   1  11
HETATM   11  C   UNL     1     -42.314  56.490 -54.324  1.00  0.00     0.261 C 
HETATM   12  N   UNL     1     -41.069  55.891 -54.314  1.00  0.00    -0.323 N 
HETATM   13  H   UNL     1     -40.309  56.466 -54.661  1.00  0.00     0.169 HD
HETATM   14  O   UNL     1     -43.330  56.059 -53.792  1.00  0.00    -0.267 OA
BRANCH  12  15
HETATM   15  C   UNL     1     -40.724  54.614 -53.832  1.00  0.00     0.035 A 
HETATM   16  C   UNL     1     -40.785  54.250 -52.485  1.00  0.00     0.039 A 
HETATM   17  C   UNL     1     -40.460  52.945 -52.068  1.00  0.00    -0.028 A 
HETATM   18  C   UNL     1     -40.071  52.006 -53.033  1.00  0.00     0.010 A 
HETATM   19  C   UNL     1     -40.003  52.362 -54.379  1.00  0.00     0.003 A 
HETATM   20  C   UNL     1     -40.331  53.659 -54.776  1.00  0.00     0.029 A 
BRANCH  17  21
HETATM   21  C   UNL     1     -40.581  52.581 -50.604  1.00  0.00     0.147 C 
HETATM   22  C   UNL     1     -40.141  51.144 -50.352  1.00  0.00     0.044 C 
BRANCH  21  23
HETATM   23  O   UNL     1     -39.786  53.455 -49.803  1.00  0.00    -0.391 OA
HETATM   24  H   UNL     1     -39.458  52.928 -49.054  1.00  0.00     0.210 HD
ENDBRANCH  21  23
ENDBRANCH  17  21
ENDBRANCH  12  15
ENDBRANCH   1  11
BRANCH   4  25
HETATM   25  C   UNL     1     -42.057  61.021 -58.226  1.00  0.00     0.409 C 
HETATM   26  F   UNL     1     -41.833  62.190 -57.585  1.00  0.00    -0.169 F 
HETATM   27  F   UNL     1     -40.883  60.333 -58.194  1.00  0.00    -0.169 F 
HETATM   28  F   UNL     1     -42.296  61.287 -59.526  1.00  0.00    -0.169 F 
ENDBRANCH   4  25
BRANCH   6  29
HETATM   29  C   UNL     1     -45.376  57.373 -58.956  1.00  0.00     0.005 A 
HETATM   30  S   UNL     1     -44.469  56.230 -59.859  1.00  0.00    -0.104 SA
HETATM   31  C   UNL     1     -45.852  55.714 -60.720  1.00  0.00     0.050 A 
HETATM   32  C   UNL     1     -46.986  56.394 -60.333  1.00  0.00     0.008 A 
HETATM   33  C   UNL     1     -46.711  57.351 -59.316  1.00  0.00     0.017 A 
ENDBRANCH   6  29
TORSDOF 6
ENDMDL
MODEL 5
REMARK VINA RESULT:      -8.1      2.455      3.511
REMARK  6 active torsions:
REMARK  status: ('A' for Active; 'I' for Inactive)
REMARK    1  A    between atoms: C_2  and  O_3 
REMARK    2  A    between atoms: C_2  and  C_4 
REMARK    3  A    between atoms: C_6  and  N_7 
REMARK       I    between atoms: N_7  and  C_8 
REMARK    4  A    between atoms: C_8  and  C_9 
REMARK    5  A    between atoms: C_12  and  C_13 
REMARK    6  A    between atoms: C_18  and  C_19 
ROOT
HETATM    1  C   UNL     1     -42.607  58.760 -56.240  1.00  0.00     0.096 C 
HETATM    2  C   UNL     1     -42.047  57.998 -55.230  1.00  0.00     0.138 C 
HETATM    3  N   UNL     1     -41.900  58.844 -54.154  1.00  0.00    -0.240 N 
HETATM    4  C   UNL     1     -41.285  58.466 -52.894  1.00  0.00     0.221 C 
HETATM    5  C   UNL     1     -41.203  56.933 -52.769  1.00  0.00     0.067 C 
HETATM    6  C   UNL     1     -40.719  56.309 -54.086  1.00  0.00     0.125 C 
HETATM    7  N   UNL     1     -41.647  56.697 -55.163  1.00  0.00    -0.365 N 
HETATM    8  N   UNL     1     -42.171  60.125 -54.446  1.00  0.00    -0.181 NA
HETATM    9  C   UNL     1     -42.631  60.068 -55.699  1.00  0.00     0.160 C 
HETATM   10  H   UNL     1     -41.395  56.236 -56.040  1.00  0.00     0.162 HD
ENDROOT
BRANCH   1  11
HETATM   11  C   UNL     1     -43.024  58.359 -57.573  1.00  0.00     0.261 C 
HETATM   12  N   UNL     1     -43.971  57.353 -57.566  1.00  0.00    -0.323 N 
HETATM   13  H   UNL     1     -44.355  57.126 -56.656  1.00  0.00     0.169 HD
HETATM   14  O   UNL     1     -42.566  58.916 -58.563  1.00  0.00    -0.267 OA
BRANCH  12  15
HETATM   15  C   UNL     1     -44.502  56.653 -58.667  1.00  0.00     0.035 A 
HETATM   16  C   UNL     1     -45.694  57.002 -59.307  1.00  0.00     0.039 A 
HETATM   17  C   UNL     1     -46.156  56.283 -60.426  1.00  0.00    -0.028 A 
HETATM   18  C   UNL     1     -45.395  55.204 -60.895  1.00  0.00     0.010 A 
HETATM   19  C   UNL     1     -44.208  54.846 -60.260  1.00  0.00     0.003 A 
HETATM   20  C   UNL     1     -43.762  55.570 -59.153  1.00  0.00     0.029 A 
BRANCH  17  21
HETATM   21  C   UNL     1     -47.431  56.720 -61.115  1.00  0.00     0.147 C 
HETATM   22  C   UNL     1     -47.571  58.238 -61.110  1.00  0.00     0.044 C 
BRANCH  21  23
HETATM   23  O   UNL     1     -47.454  56.259 -62.465  1.00  0.00    -0.391 OA
HETATM   24  H   UNL     1     -46.645  56.591 -62.890  1.00  0.00     0.210 HD
ENDBRANCH  21  23
ENDBRANCH  17  21
ENDBRANCH  12  15
ENDBRANCH   1  11
BRANCH   4  25
HETATM   25  C   UNL     1     -42.038  59.030 -51.708  1.00  0.00     0.409 C 
HETATM   26  F   UNL     1     -41.820  58.322 -50.577  1.00  0.00    -0.169 F 
HETATM   27  F   UNL     1     -41.606  60.297 -51.460  1.00  0.00    -0.169 F 
HETATM   28  F   UNL     1     -43.368  59.122 -51.903  1.00  0.00    -0.169 F 
ENDBRANCH   4  25
BRANCH   6  29
HETATM   29  C   UNL     1     -40.603  54.812 -53.945  1.00  0.00     0.005 A 
HETATM   30  S   UNL     1     -40.844  54.069 -52.418  1.00  0.00    -0.104 SA
HETATM   31  C   UNL     1     -40.564  52.509 -53.058  1.00  0.00     0.050 A 
HETATM   32  C   UNL     1     -40.292  52.545 -54.407  1.00  0.00     0.008 A 
HETATM   33  C   UNL     1     -40.313  53.874 -54.919  1.00  0.00     0.017 A 
ENDBRANCH   6  29
TORSDOF 6
ENDMDL
MODEL 6
REMARK VINA RESULT:      -8.1      2.698      4.690
REMARK  6 active torsions:
REMARK  status: ('A' for Active; 'I' for Inactive)
REMARK    1  A    between atoms: C_2  and  O_3 
REMARK    2  A    between atoms: C_2  and  C_4 
REMARK    3  A    between atoms: C_6  and  N_7 
REMARK       I    between atoms: N_7  and  C_8 
REMARK    4  A    between atoms: C_8  and  C_9 
REMARK    5  A    between atoms: C_12  and  C_13 
REMARK    6  A    between atoms: C_18  and  C_19 
ROOT
HETATM    1  C   UNL     1     -41.115  54.317 -53.663  1.00  0.00     0.096 C 
HETATM    2  C   UNL     1     -41.330  55.101 -52.544  1.00  0.00     0.138 C 
HETATM    3  N   UNL     1     -41.142  54.275 -51.460  1.00  0.00    -0.240 N 
HETATM    4  C   UNL     1     -41.334  54.680 -50.078  1.00  0.00     0.221 C 
HETATM    5  C   UNL     1     -41.364  56.215 -49.963  1.00  0.00     0.067 C 
HETATM    6  C   UNL     1     -42.228  56.823 -51.076  1.00  0.00     0.125 C 
HETATM    7  N   UNL     1     -41.683  56.408 -52.380  1.00  0.00    -0.365 N 
HETATM    8  N   UNL     1     -40.982  52.986 -51.797  1.00  0.00    -0.181 NA
HETATM    9  C   UNL     1     -40.933  53.018 -53.132  1.00  0.00     0.160 C 
HETATM   10  H   UNL     1     -42.191  56.857 -53.145  1.00  0.00     0.162 HD
ENDROOT
BRANCH   1  11
HETATM   11  C   UNL     1     -41.130  54.692 -55.067  1.00  0.00     0.261 C 
HETATM   12  N   UNL     1     -42.142  55.577 -55.383  1.00  0.00    -0.323 N 
HETATM   13  H   UNL     1     -42.647  55.958 -54.591  1.00  0.00     0.169 HD
HETATM   14  O   UNL     1     -40.283  54.254 -55.837  1.00  0.00    -0.267 OA
BRANCH  12  15
HETATM   15  C   UNL     1     -42.516  56.050 -56.655  1.00  0.00     0.035 A 
HETATM   16  C   UNL     1     -43.288  55.317 -57.560  1.00  0.00     0.039 A 
HETATM   17  C   UNL     1     -43.660  55.859 -58.805  1.00  0.00    -0.028 A 
HETATM   18  C   UNL     1     -43.242  57.157 -59.127  1.00  0.00     0.010 A 
HETATM   19  C   UNL     1     -42.467  57.893 -58.233  1.00  0.00     0.003 A 
HETATM   20  C   UNL     1     -42.110  57.343 -57.001  1.00  0.00     0.029 A 
BRANCH  17  21
HETATM   21  C   UNL     1     -44.533  55.047 -59.738  1.00  0.00     0.147 C 
HETATM   22  C   UNL     1     -44.468  53.561 -59.405  1.00  0.00     0.044 C 
BRANCH  21  23
HETATM   23  O   UNL     1     -45.890  55.479 -59.657  1.00  0.00    -0.391 OA
HETATM   24  H   UNL     1     -46.319  54.931 -58.978  1.00  0.00     0.210 HD
ENDBRANCH  21  23
ENDBRANCH  17  21
ENDBRANCH  12  15
ENDBRANCH   1  11
BRANCH   4  25
HETATM   25  C   UNL     1     -40.254  54.126 -49.173  1.00  0.00     0.409 C 
HETATM   26  F   UNL     1     -40.302  54.657 -47.931  1.00  0.00    -0.169 F 
HETATM   27  F   UNL     1     -40.431  52.784 -49.026  1.00  0.00    -0.169 F 
HETATM   28  F   UNL     1     -39.006  54.286 -49.656  1.00  0.00    -0.169 F 
ENDBRANCH   4  25
BRANCH   6  29
HETATM   29  C   UNL     1     -42.287  58.324 -50.935  1.00  0.00     0.005 A 
HETATM   30  S   UNL     1     -43.723  59.172 -51.337  1.00  0.00    -0.104 SA
HETATM   31  C   UNL     1     -43.025  60.679 -50.933  1.00  0.00     0.050 A 
HETATM   32  C   UNL     1     -41.725  60.547 -50.499  1.00  0.00     0.008 A 
HETATM   33  C   UNL     1     -41.298  59.189 -50.501  1.00  0.00     0.017 A 
ENDBRANCH   6  29
TORSDOF 6
ENDMDL
MODEL 7
REMARK VINA RESULT:      -7.9      4.631      8.861
REMARK  6 active torsions:
REMARK  status: ('A' for Active; 'I' for Inactive)
REMARK    1  A    between atoms: C_2  and  O_3 
REMARK    2  A    between atoms: C_2  and  C_4 
REMARK    3  A    between atoms: C_6  and  N_7 
REMARK       I    between atoms: N_7  and  C_8 
REMARK    4  A    between atoms: C_8  and  C_9 
REMARK    5  A    between atoms: C_12  and  C_13 
REMARK    6  A    between atoms: C_18  and  C_19 
ROOT
HETATM    1  C   UNL     1     -42.929  55.709 -56.644  1.00  0.00     0.096 C 
HETATM    2  C   UNL     1     -42.989  57.089 -56.721  1.00  0.00     0.138 C 
HETATM    3  N   UNL     1     -43.206  57.386 -58.047  1.00  0.00    -0.240 N 
HETATM    4  C   UNL     1     -43.270  58.733 -58.585  1.00  0.00     0.221 C 
HETATM    5  C   UNL     1     -43.479  59.758 -57.454  1.00  0.00     0.067 C 
HETATM    6  C   UNL     1     -42.565  59.441 -56.263  1.00  0.00     0.125 C 
HETATM    7  N   UNL     1     -42.856  58.076 -55.791  1.00  0.00    -0.365 N 
HETATM    8  N   UNL     1     -43.129  56.314 -58.850  1.00  0.00    -0.181 NA
HETATM    9  C   UNL     1     -42.993  55.295 -57.996  1.00  0.00     0.160 C 
HETATM   10  H   UNL     1     -42.316  57.861 -54.949  1.00  0.00     0.162 HD
ENDROOT
BRANCH   1  11
HETATM   11  C   UNL     1     -42.773  54.857 -55.476  1.00  0.00     0.261 C 
HETATM   12  N   UNL     1     -41.451  54.610 -55.157  1.00  0.00    -0.323 N 
HETATM   13  H   UNL     1     -40.771  55.156 -55.674  1.00  0.00     0.169 HD
HETATM   14  O   UNL     1     -43.754  54.455 -54.863  1.00  0.00    -0.267 OA
BRANCH  12  15
HETATM   15  C   UNL     1     -40.944  53.742 -54.172  1.00  0.00     0.035 A 
HETATM   16  C   UNL     1     -40.541  52.429 -54.427  1.00  0.00     0.039 A 
HETATM   17  C   UNL     1     -40.009  51.620 -53.405  1.00  0.00    -0.028 A 
HETATM   18  C   UNL     1     -39.885  52.155 -52.116  1.00  0.00     0.010 A 
HETATM   19  C   UNL     1     -40.289  53.462 -51.852  1.00  0.00     0.003 A 
HETATM   20  C   UNL     1     -40.813  54.253 -52.876  1.00  0.00     0.029 A 
BRANCH  17  21
HETATM   21  C   UNL     1     -39.545  50.217 -53.735  1.00  0.00     0.147 C 
HETATM   22  C   UNL     1     -39.540  49.329 -52.495  1.00  0.00     0.044 C 
BRANCH  21  23
HETATM   23  O   UNL     1     -40.392  49.628 -54.721  1.00  0.00    -0.391 OA
HETATM   24  H   UNL     1     -40.094  49.963 -55.583  1.00  0.00     0.210 HD
ENDBRANCH  21  23
ENDBRANCH  17  21
ENDBRANCH  12  15
ENDBRANCH   1  11
BRANCH   4  25
HETATM   25  C   UNL     1     -44.374  58.879 -59.610  1.00  0.00     0.409 C 
HETATM   26  F   UNL     1     -44.017  58.397 -60.822  1.00  0.00    -0.169 F 
HETATM   27  F   UNL     1     -45.459  58.160 -59.213  1.00  0.00    -0.169 F 
HETATM   28  F   UNL     1     -44.805  60.147 -59.766  1.00  0.00    -0.169 F 
ENDBRANCH   4  25
BRANCH   6  29
HETATM   29  C   UNL     1     -42.745  60.471 -55.175  1.00  0.00     0.005 A 
HETATM   30  S   UNL     1     -43.452  61.992 -55.537  1.00  0.00    -0.104 SA
HETATM   31  C   UNL     1     -43.308  62.519 -53.918  1.00  0.00     0.050 A 
HETATM   32  C   UNL     1     -42.735  61.561 -53.111  1.00  0.00     0.008 A 
HETATM   33  C   UNL     1     -42.409  60.380 -53.836  1.00  0.00     0.017 A 
ENDBRANCH   6  29
TORSDOF 6
ENDMDL
MODEL 8
REMARK VINA RESULT:      -7.8      3.789      7.657
REMARK  6 active torsions:
REMARK  status: ('A' for Active; 'I' for Inactive)
REMARK    1  A    between atoms: C_2  and  O_3 
REMARK    2  A    between atoms: C_2  and  C_4 
REMARK    3  A    between atoms: C_6  and  N_7 
REMARK       I    between atoms: N_7  and  C_8 
REMARK    4  A    between atoms: C_8  and  C_9 
REMARK    5  A    between atoms: C_12  and  C_13 
REMARK    6  A    between atoms: C_18  and  C_19 
ROOT
HETATM    1  C   UNL     1     -43.216  56.977 -52.729  1.00  0.00     0.096 C 
HETATM    2  C   UNL     1     -43.293  57.533 -53.993  1.00  0.00     0.138 C 
HETATM    3  N   UNL     1     -43.599  58.862 -53.804  1.00  0.00    -0.240 N 
HETATM    4  C   UNL     1     -43.838  59.808 -54.880  1.00  0.00     0.221 C 
HETATM    5  C   UNL     1     -43.309  59.254 -56.215  1.00  0.00     0.067 C 
HETATM    6  C   UNL     1     -43.698  57.778 -56.380  1.00  0.00     0.125 C 
HETATM    7  N   UNL     1     -43.152  57.015 -55.245  1.00  0.00    -0.365 N 
HETATM    8  N   UNL     1     -43.883  59.165 -52.528  1.00  0.00    -0.181 NA
HETATM    9  C   UNL     1     -43.619  58.030 -51.873  1.00  0.00     0.160 C 
HETATM   10  H   UNL     1     -43.329  56.014 -55.363  1.00  0.00     0.162 HD
ENDROOT
BRANCH   1  11
HETATM   11  C   UNL     1     -42.870  55.620 -52.339  1.00  0.00     0.261 C 
HETATM   12  N   UNL     1     -41.558  55.292 -52.619  1.00  0.00    -0.323 N 
HETATM   13  H   UNL     1     -40.973  56.064 -52.920  1.00  0.00     0.169 HD
HETATM   14  O   UNL     1     -43.697  54.898 -51.795  1.00  0.00    -0.267 OA
BRANCH  12  15
HETATM   15  C   UNL     1     -40.928  54.040 -52.484  1.00  0.00     0.035 A 
HETATM   16  C   UNL     1     -40.895  53.075 -53.494  1.00  0.00     0.039 A 
HETATM   17  C   UNL     1     -40.218  51.854 -53.312  1.00  0.00    -0.028 A 
HETATM   18  C   UNL     1     -39.570  51.618 -52.092  1.00  0.00     0.010 A 
HETATM   19  C   UNL     1     -39.602  52.573 -51.078  1.00  0.00     0.003 A 
HETATM   20  C   UNL     1     -40.275  53.780 -51.275  1.00  0.00     0.029 A 
BRANCH  17  21
HETATM   21  C   UNL     1     -40.171  50.854 -54.447  1.00  0.00     0.147 C 
HETATM   22  C   UNL     1     -39.113  49.784 -54.200  1.00  0.00     0.044 C 
BRANCH  21  23
HETATM   23  O   UNL     1     -41.440  50.220 -54.609  1.00  0.00    -0.391 OA
HETATM   24  H   UNL     1     -41.480  49.904 -55.527  1.00  0.00     0.210 HD
ENDBRANCH  21  23
ENDBRANCH  17  21
ENDBRANCH  12  15
ENDBRANCH   1  11
BRANCH   4  25
HETATM   25  C   UNL     1     -43.200  61.152 -54.601  1.00  0.00     0.409 C 
HETATM   26  F   UNL     1     -42.873  61.811 -55.735  1.00  0.00    -0.169 F 
HETATM   27  F   UNL     1     -44.084  61.943 -53.934  1.00  0.00    -0.169 F 
HETATM   28  F   UNL     1     -42.103  61.080 -53.820  1.00  0.00    -0.169 F 
ENDBRANCH   4  25
BRANCH   6  29
HETATM   29  C   UNL     1     -43.212  57.253 -57.708  1.00  0.00     0.005 A 
HETATM   30  S   UNL     1     -42.290  58.259 -58.747  1.00  0.00    -0.104 SA
HETATM   31  C   UNL     1     -42.148  57.027 -59.924  1.00  0.00     0.050 A 
HETATM   32  C   UNL     1     -42.788  55.870 -59.540  1.00  0.00     0.008 A 
HETATM   33  C   UNL     1     -43.402  56.000 -58.262  1.00  0.00     0.017 A 
ENDBRANCH   6  29
TORSDOF 6
ENDMDL
MODEL 9
REMARK VINA RESULT:      -7.8      5.251      7.946
REMARK  6 active torsions:
REMARK  status: ('A' for Active; 'I' for Inactive)
REMARK    1  A    between atoms: C_2  and  O_3 
REMARK    2  A    between atoms: C_2  and  C_4 
REMARK    3  A    between atoms: C_6  and  N_7 
REMARK       I    between atoms: N_7  and  C_8 
REMARK    4  A    between atoms: C_8  and  C_9 
REMARK    5  A    between atoms: C_12  and  C_13 
REMARK    6  A    between atoms: C_18  and  C_19 
ROOT
HETATM    1  C   UNL     1     -44.026  58.147 -53.249  1.00  0.00     0.096 C 
HETATM    2  C   UNL     1     -43.496  56.991 -53.793  1.00  0.00     0.138 C 
HETATM    3  N   UNL     1     -43.861  56.993 -55.120  1.00  0.00    -0.240 N 
HETATM    4  C   UNL     1     -43.564  55.920 -56.053  1.00  0.00     0.221 C 
HETATM    5  C   UNL     1     -42.461  55.004 -55.491  1.00  0.00     0.067 C 
HETATM    6  C   UNL     1     -42.718  54.694 -54.010  1.00  0.00     0.125 C 
HETATM    7  N   UNL     1     -42.774  55.963 -53.263  1.00  0.00    -0.365 N 
HETATM    8  N   UNL     1     -44.718  57.976 -55.432  1.00  0.00    -0.181 NA
HETATM    9  C   UNL     1     -44.792  58.693 -54.307  1.00  0.00     0.160 C 
HETATM   10  H   UNL     1     -42.869  55.788 -52.260  1.00  0.00     0.162 HD
ENDROOT
BRANCH   1  11
HETATM   11  C   UNL     1     -43.901  58.672 -51.900  1.00  0.00     0.261 C 
HETATM   12  N   UNL     1     -44.728  59.752 -51.658  1.00  0.00    -0.323 N 
HETATM   13  H   UNL     1     -45.408  59.948 -52.385  1.00  0.00     0.169 HD
HETATM   14  O   UNL     1     -43.141  58.147 -51.095  1.00  0.00    -0.267 OA
BRANCH  12  15
HETATM   15  C   UNL     1     -44.778  60.568 -50.512  1.00  0.00     0.035 A 
HETATM   16  C   UNL     1     -45.413  60.199 -49.324  1.00  0.00     0.039 A 
HETATM   17  C   UNL     1     -45.399  61.045 -48.199  1.00  0.00    -0.028 A 
HETATM   18  C   UNL     1     -44.730  62.274 -48.287  1.00  0.00     0.010 A 
HETATM   19  C   UNL     1     -44.099  62.652 -49.470  1.00  0.00     0.003 A 
HETATM   20  C   UNL     1     -44.119  61.801 -50.576  1.00  0.00     0.029 A 
BRANCH  17  21
HETATM   21  C   UNL     1     -46.063  60.589 -46.917  1.00  0.00     0.147 C 
HETATM   22  C   UNL     1     -45.188  60.881 -45.704  1.00  0.00     0.044 C 
BRANCH  21  23
HETATM   23  O   UNL     1     -47.322  61.239 -46.746  1.00  0.00    -0.391 OA
HETATM   24  H   UNL     1     -47.426  61.403 -45.794  1.00  0.00     0.210 HD
ENDBRANCH  21  23
ENDBRANCH  17  21
ENDBRANCH  12  15
ENDBRANCH   1  11
BRANCH   4  25
HETATM   25  C   UNL     1     -43.141  56.451 -57.406  1.00  0.00     0.409 C 
HETATM   26  F   UNL     1     -42.191  57.408 -57.309  1.00  0.00    -0.169 F 
HETATM   27  F   UNL     1     -42.599  55.440 -58.139  1.00  0.00    -0.169 F 
HETATM   28  F   UNL     1     -44.161  56.937 -58.141  1.00  0.00    -0.169 F 
ENDBRANCH   4  25
BRANCH   6  29
HETATM   29  C   UNL     1     -41.656  53.764 -53.477  1.00  0.00     0.005 A 
HETATM   30  S   UNL     1     -41.178  53.858 -51.832  1.00  0.00    -0.104 SA
HETATM   31  C   UNL     1     -40.048  52.590 -52.020  1.00  0.00     0.050 A 
HETATM   32  C   UNL     1     -40.031  52.099 -53.306  1.00  0.00     0.008 A 
HETATM   33  C   UNL     1     -40.958  52.777 -54.147  1.00  0.00     0.017 A 
ENDBRANCH   6  29
TORSDOF 6
ENDMDL
MODEL 10
REMARK VINA RESULT:      -7.8      3.410      5.423
REMARK  6 active torsions:
REMARK  status: ('A' for Active; 'I' for Inactive)
REMARK    1  A    between atoms: C_2  and  O_3 
REMARK    2  A    between atoms: C_2  and  C_4 
REMARK    3  A    between atoms: C_6  and  N_7 
REMARK       I    between atoms: N_7  and  C_8 
REMARK    4  A    between atoms: C_8  and  C_9 
REMARK    5  A    between atoms: C_12  and  C_13 
REMARK    6  A    between atoms: C_18  and  C_19 
ROOT
HETATM    1  C   UNL     1     -42.800  56.141 -56.119  1.00  0.00     0.096 C 
HETATM    2  C   UNL     1     -42.422  56.198 -54.790  1.00  0.00     0.138 C 
HETATM    3  N   UNL     1     -42.167  54.900 -54.412  1.00  0.00    -0.240 N 
HETATM    4  C   UNL     1     -41.800  54.496 -53.066  1.00  0.00     0.221 C 
HETATM    5  C   UNL     1     -41.337  55.712 -52.243  1.00  0.00     0.067 C 
HETATM    6  C   UNL     1     -42.278  56.904 -52.465  1.00  0.00     0.125 C 
HETATM    7  N   UNL     1     -42.304  57.226 -53.902  1.00  0.00    -0.365 N 
HETATM    8  N   UNL     1     -42.507  53.999 -55.346  1.00  0.00    -0.181 NA
HETATM    9  C   UNL     1     -42.859  54.753 -56.391  1.00  0.00     0.160 C 
HETATM   10  H   UNL     1     -42.863  58.064 -54.076  1.00  0.00     0.162 HD
ENDROOT
BRANCH   1  11
HETATM   11  C   UNL     1     -43.129  57.224 -57.031  1.00  0.00     0.261 C 
HETATM   12  N   UNL     1     -42.073  57.588 -57.845  1.00  0.00    -0.323 N 
HETATM   13  H   UNL     1     -41.267  56.975 -57.808  1.00  0.00     0.169 HD
HETATM   14  O   UNL     1     -44.256  57.704 -57.047  1.00  0.00    -0.267 OA
BRANCH  12  15
HETATM   15  C   UNL     1     -42.006  58.664 -58.751  1.00  0.00     0.035 A 
HETATM   16  C   UNL     1     -41.788  59.989 -58.366  1.00  0.00     0.039 A 
HETATM   17  C   UNL     1     -41.697  61.018 -59.323  1.00  0.00    -0.028 A 
HETATM   18  C   UNL     1     -41.827  60.692 -60.679  1.00  0.00     0.010 A 
HETATM   19  C   UNL     1     -42.049  59.373 -61.071  1.00  0.00     0.003 A 
HETATM   20  C   UNL     1     -42.135  58.364 -60.111  1.00  0.00     0.029 A 
BRANCH  17  21
HETATM   21  C   UNL     1     -41.417  62.434 -58.866  1.00  0.00     0.147 C 
HETATM   22  C   UNL     1     -42.708  63.177 -58.541  1.00  0.00     0.044 C 
BRANCH  21  23
HETATM   23  O   UNL     1     -40.582  62.432 -57.709  1.00  0.00    -0.391 OA
HETATM   24  H   UNL     1     -39.671  62.571 -58.020  1.00  0.00     0.210 HD
ENDBRANCH  21  23
ENDBRANCH  17  21
ENDBRANCH  12  15
ENDBRANCH   1  11
BRANCH   4  25
HETATM   25  C   UNL     1     -40.712  53.443 -53.069  1.00  0.00     0.409 C 
HETATM   26  F   UNL     1     -40.075  53.358 -51.880  1.00  0.00    -0.169 F 
HETATM   27  F   UNL     1     -41.266  52.221 -53.300  1.00  0.00    -0.169 F 
HETATM   28  F   UNL     1     -39.789  53.621 -54.035  1.00  0.00    -0.169 F 
ENDBRANCH   4  25
BRANCH   6  29
HETATM   29  C   UNL     1     -41.842  58.080 -51.625  1.00  0.00     0.005 A 
HETATM   30  S   UNL     1     -42.744  59.539 -51.653  1.00  0.00    -0.104 SA
HETATM   31  C   UNL     1     -41.689  60.290 -50.538  1.00  0.00     0.050 A 
HETATM   32  C   UNL     1     -40.668  59.452 -50.147  1.00  0.00     0.008 A 
HETATM   33  C   UNL     1     -40.756  58.177 -50.775  1.00  0.00     0.017 A 
ENDBRANCH   6  29
TORSDOF 6
ENDMDL
