MODEL 1
REMARK VINA RESULT:      -8.3      0.000      0.000
REMARK  7 active torsions:
REMARK  status: ('A' for Active; 'I' for Inactive)
REMARK    1  A    between atoms: O_2  and  C_3 
REMARK    2  A    between atoms: C_3  and  C_4 
REMARK    3  A    between atoms: C_4  and  N_5 
REMARK    4  A    between atoms: C_4  and  C_21 
REMARK    5  A    between atoms: N_5  and  C_6 
REMARK    6  A    between atoms: C_21  and  C_22 
REMARK    7  A    between atoms: C_25  and  O_26 
ROOT
HETATM    1  N   UNL     1     -41.716  54.596 -53.315  1.00  0.00    -0.277 NA
HETATM    2  H   UNL     1     -42.710  54.342 -53.329  1.00  0.00     0.128 HD
ENDROOT
BRANCH   1   3
HETATM    3  C   UNL     1     -41.296  55.032 -54.677  1.00  0.00     0.164 C 
BRANCH   3   4
HETATM    4  C   UNL     1     -42.437  54.842 -55.696  1.00  0.00     0.276 C 
HETATM    5  O   UNL     1     -43.231  53.912 -55.670  1.00  0.00    -0.263 OA
BRANCH   4   6
HETATM    6  O   UNL     1     -42.446  55.855 -56.615  1.00  0.00    -0.325 OA
HETATM    7  C   UNL     1     -43.189  55.567 -57.802  1.00  0.00     0.213 C 
ENDBRANCH   4   6
ENDBRANCH   3   4
BRANCH   3   8
HETATM    8  C   UNL     1     -40.991  56.543 -54.691  1.00  0.00     0.068 C 
BRANCH   8   9
HETATM    9  C   UNL     1     -41.504  57.326 -53.505  1.00  0.00    -0.056 A 
HETATM   10  C   UNL     1     -40.628  58.039 -52.675  1.00  0.00     0.010 A 
HETATM   11  C   UNL     1     -41.119  58.807 -51.616  1.00  0.00     0.037 A 
HETATM   12  C   UNL     1     -42.490  58.864 -51.390  1.00  0.00     0.065 A 
HETATM   13  C   UNL     1     -43.374  58.167 -52.202  1.00  0.00     0.037 A 
HETATM   14  C   UNL     1     -42.884  57.406 -53.264  1.00  0.00     0.010 A 
BRANCH  12  15
HETATM   15  O   UNL     1     -43.016  59.608 -50.376  1.00  0.00    -0.361 OA
HETATM   16  H   UNL     1     -42.929  59.110 -49.545  1.00  0.00     0.217 HD
ENDBRANCH  12  15
ENDBRANCH   8   9
ENDBRANCH   3   8
ENDBRANCH   1   3
BRANCH   1  17
HETATM   17  C   UNL     1     -40.987  53.701 -52.510  1.00  0.00     0.034 A 
HETATM   18  C   UNL     1     -40.930  54.024 -51.119  1.00  0.00     0.013 A 
HETATM   19  C   UNL     1     -40.380  53.097 -50.214  1.00  0.00     0.044 A 
HETATM   20  C   UNL     1     -41.392  55.244 -50.576  1.00  0.00     0.015 A 
HETATM   21  C   UNL     1     -40.309  53.371 -48.837  1.00  0.00     0.030 A 
HETATM   22  N   UNL     1     -39.932  51.923 -50.674  1.00  0.00    -0.355 N 
HETATM   23  C   UNL     1     -40.775  54.583 -48.337  1.00  0.00     0.002 A 
HETATM   24  C   UNL     1     -41.311  55.521 -49.207  1.00  0.00     0.001 A 
HETATM   25  H   UNL     1     -39.549  51.268 -49.997  1.00  0.00     0.166 HD
HETATM   26  C   UNL     1     -39.973  51.545 -51.959  1.00  0.00     0.044 A 
HETATM   27  C   UNL     1     -40.506  52.419 -52.938  1.00  0.00     0.013 A 
HETATM   28  C   UNL     1     -39.499  50.258 -52.286  1.00  0.00     0.030 A 
HETATM   29  C   UNL     1     -40.525  51.903 -54.259  1.00  0.00     0.015 A 
HETATM   30  C   UNL     1     -40.046  50.628 -54.583  1.00  0.00     0.001 A 
HETATM   31  C   UNL     1     -39.536  49.802 -53.598  1.00  0.00     0.002 A 
ENDBRANCH   1  17
TORSDOF 7
ENDMDL
MODEL 2
REMARK VINA RESULT:      -8.3      1.974      5.852
REMARK  7 active torsions:
REMARK  status: ('A' for Active; 'I' for Inactive)
REMARK    1  A    between atoms: O_2  and  C_3 
REMARK    2  A    between atoms: C_3  and  C_4 
REMARK    3  A    between atoms: C_4  and  N_5 
REMARK    4  A    between atoms: C_4  and  C_21 
REMARK    5  A    between atoms: N_5  and  C_6 
REMARK    6  A    between atoms: C_21  and  C_22 
REMARK    7  A    between atoms: C_25  and  O_26 
ROOT
HETATM    1  N   UNL     1     -41.150  55.184 -55.188  1.00  0.00    -0.277 NA
HETATM    2  H   UNL     1     -40.668  56.075 -55.353  1.00  0.00     0.128 HD
ENDROOT
BRANCH   1   3
HETATM    3  C   UNL     1     -42.421  55.156 -55.967  1.00  0.00     0.164 C 
BRANCH   3   4
HETATM    4  C   UNL     1     -43.633  55.450 -55.061  1.00  0.00     0.276 C 
HETATM    5  O   UNL     1     -44.171  54.617 -54.345  1.00  0.00    -0.263 OA
BRANCH   4   6
HETATM    6  O   UNL     1     -44.010  56.761 -55.158  1.00  0.00    -0.325 OA
HETATM    7  C   UNL     1     -44.875  57.204 -54.110  1.00  0.00     0.213 C 
ENDBRANCH   4   6
ENDBRANCH   3   4
BRANCH   3   8
HETATM    8  C   UNL     1     -42.430  56.275 -57.027  1.00  0.00     0.068 C 
BRANCH   8   9
HETATM    9  C   UNL     1     -43.133  55.946 -58.323  1.00  0.00    -0.056 A 
HETATM   10  C   UNL     1     -43.725  54.691 -58.526  1.00  0.00     0.010 A 
HETATM   11  C   UNL     1     -44.423  54.417 -59.705  1.00  0.00     0.037 A 
HETATM   12  C   UNL     1     -44.530  55.402 -60.681  1.00  0.00     0.065 A 
HETATM   13  C   UNL     1     -43.953  56.651 -60.498  1.00  0.00     0.037 A 
HETATM   14  C   UNL     1     -43.263  56.926 -59.318  1.00  0.00     0.010 A 
BRANCH  12  15
HETATM   15  O   UNL     1     -45.209  55.183 -61.843  1.00  0.00    -0.361 OA
HETATM   16  H   UNL     1     -44.835  54.402 -62.282  1.00  0.00     0.217 HD
ENDBRANCH  12  15
ENDBRANCH   8   9
ENDBRANCH   3   8
ENDBRANCH   1   3
BRANCH   1  17
HETATM   17  C   UNL     1     -41.040  54.804 -53.838  1.00  0.00     0.034 A 
HETATM   18  C   UNL     1     -40.593  53.466 -53.606  1.00  0.00     0.013 A 
HETATM   19  C   UNL     1     -40.282  53.057 -52.295  1.00  0.00     0.044 A 
HETATM   20  C   UNL     1     -40.446  52.498 -54.625  1.00  0.00     0.015 A 
HETATM   21  C   UNL     1     -39.834  51.754 -52.021  1.00  0.00     0.030 A 
HETATM   22  N   UNL     1     -40.399  53.935 -51.293  1.00  0.00    -0.355 N 
HETATM   23  C   UNL     1     -39.698  50.826 -53.050  1.00  0.00     0.002 A 
HETATM   24  C   UNL     1     -40.010  51.197 -54.351  1.00  0.00     0.001 A 
HETATM   25  H   UNL     1     -40.158  53.616 -50.358  1.00  0.00     0.166 HD
HETATM   26  C   UNL     1     -40.791  55.208 -51.440  1.00  0.00     0.044 A 
HETATM   27  C   UNL     1     -41.129  55.702 -52.724  1.00  0.00     0.013 A 
HETATM   28  C   UNL     1     -40.828  56.027 -50.292  1.00  0.00     0.030 A 
HETATM   29  C   UNL     1     -41.502  57.070 -52.764  1.00  0.00     0.015 A 
HETATM   30  C   UNL     1     -41.545  57.879 -51.622  1.00  0.00     0.001 A 
HETATM   31  C   UNL     1     -41.205  57.361 -50.385  1.00  0.00     0.002 A 
ENDBRANCH   1  17
TORSDOF 7
ENDMDL
MODEL 3
REMARK VINA RESULT:      -8.2      1.986      4.993
REMARK  7 active torsions:
REMARK  status: ('A' for Active; 'I' for Inactive)
REMARK    1  A    between atoms: O_2  and  C_3 
REMARK    2  A    between atoms: C_3  and  C_4 
REMARK    3  A    between atoms: C_4  and  N_5 
REMARK    4  A    between atoms: C_4  and  C_21 
REMARK    5  A    between atoms: N_5  and  C_6 
REMARK    6  A    between atoms: C_21  and  C_22 
REMARK    7  A    between atoms: C_25  and  O_26 
ROOT
HETATM    1  N   UNL     1     -41.120  55.853 -55.244  1.00  0.00    -0.277 NA
HETATM    2  H   UNL     1     -40.915  56.858 -55.289  1.00  0.00     0.128 HD
ENDROOT
BRANCH   1   3
HETATM    3  C   UNL     1     -42.391  55.573 -55.971  1.00  0.00     0.164 C 
BRANCH   3   4
HETATM    4  C   UNL     1     -43.597  55.599 -55.011  1.00  0.00     0.276 C 
HETATM    5  O   UNL     1     -43.973  54.637 -54.358  1.00  0.00    -0.263 OA
BRANCH   4   6
HETATM    6  O   UNL     1     -44.171  56.840 -54.981  1.00  0.00    -0.325 OA
HETATM    7  C   UNL     1     -44.726  57.202 -53.714  1.00  0.00     0.213 C 
ENDBRANCH   4   6
ENDBRANCH   3   4
BRANCH   3   8
HETATM    8  C   UNL     1     -42.676  56.679 -57.006  1.00  0.00     0.068 C 
BRANCH   8   9
HETATM    9  C   UNL     1     -43.284  56.217 -58.310  1.00  0.00    -0.056 A 
HETATM   10  C   UNL     1     -43.707  54.891 -58.480  1.00  0.00     0.010 A 
HETATM   11  C   UNL     1     -44.321  54.488 -59.670  1.00  0.00     0.037 A 
HETATM   12  C   UNL     1     -44.514  55.415 -60.688  1.00  0.00     0.065 A 
HETATM   13  C   UNL     1     -44.103  56.732 -60.538  1.00  0.00     0.037 A 
HETATM   14  C   UNL     1     -43.498  57.136 -59.348  1.00  0.00     0.010 A 
BRANCH  12  15
HETATM   15  O   UNL     1     -45.116  55.071 -61.862  1.00  0.00    -0.361 OA
HETATM   16  H   UNL     1     -45.332  55.881 -62.352  1.00  0.00     0.217 HD
ENDBRANCH  12  15
ENDBRANCH   8   9
ENDBRANCH   3   8
ENDBRANCH   1   3
BRANCH   1  17
HETATM   17  C   UNL     1     -40.806  55.339 -53.973  1.00  0.00     0.034 A 
HETATM   18  C   UNL     1     -41.013  56.232 -52.876  1.00  0.00     0.013 A 
HETATM   19  C   UNL     1     -40.899  55.749 -51.559  1.00  0.00     0.044 A 
HETATM   20  C   UNL     1     -41.325  57.602 -53.025  1.00  0.00     0.015 A 
HETATM   21  C   UNL     1     -41.099  56.590 -50.450  1.00  0.00     0.030 A 
HETATM   22  N   UNL     1     -40.609  54.458 -51.360  1.00  0.00    -0.355 N 
HETATM   23  C   UNL     1     -41.407  57.935 -50.634  1.00  0.00     0.002 A 
HETATM   24  C   UNL     1     -41.514  58.441 -51.922  1.00  0.00     0.001 A 
HETATM   25  H   UNL     1     -40.543  54.135 -50.398  1.00  0.00     0.166 HD
HETATM   26  C   UNL     1     -40.423  53.562 -52.338  1.00  0.00     0.044 A 
HETATM   27  C   UNL     1     -40.515  53.963 -53.694  1.00  0.00     0.013 A 
HETATM   28  C   UNL     1     -40.164  52.226 -51.972  1.00  0.00     0.030 A 
HETATM   29  C   UNL     1     -40.329  52.926 -54.643  1.00  0.00     0.015 A 
HETATM   30  C   UNL     1     -40.063  51.600 -54.277  1.00  0.00     0.001 A 
HETATM   31  C   UNL     1     -39.984  51.247 -52.941  1.00  0.00     0.002 A 
ENDBRANCH   1  17
TORSDOF 7
ENDMDL
MODEL 4
REMARK VINA RESULT:      -8.2      1.746      5.104
REMARK  7 active torsions:
REMARK  status: ('A' for Active; 'I' for Inactive)
REMARK    1  A    between atoms: O_2  and  C_3 
REMARK    2  A    between atoms: C_3  and  C_4 
REMARK    3  A    between atoms: C_4  and  N_5 
REMARK    4  A    between atoms: C_4  and  C_21 
REMARK    5  A    between atoms: N_5  and  C_6 
REMARK    6  A    between atoms: C_21  and  C_22 
REMARK    7  A    between atoms: C_25  and  O_26 
ROOT
HETATM    1  N   UNL     1     -40.800  54.727 -53.607  1.00  0.00    -0.277 NA
HETATM    2  H   UNL     1     -40.299  55.589 -53.364  1.00  0.00     0.128 HD
ENDROOT
BRANCH   1   3
HETATM    3  C   UNL     1     -42.069  55.071 -54.309  1.00  0.00     0.164 C 
BRANCH   3   4
HETATM    4  C   UNL     1     -43.235  55.211 -53.309  1.00  0.00     0.276 C 
HETATM    5  O   UNL     1     -43.813  54.265 -52.795  1.00  0.00    -0.263 OA
BRANCH   4   6
HETATM    6  O   UNL     1     -43.518  56.528 -53.071  1.00  0.00    -0.325 OA
HETATM    7  C   UNL     1     -44.120  56.779 -51.798  1.00  0.00     0.213 C 
ENDBRANCH   4   6
ENDBRANCH   3   4
BRANCH   3   8
HETATM    8  C   UNL     1     -41.954  56.449 -54.989  1.00  0.00     0.068 C 
BRANCH   8   9
HETATM    9  C   UNL     1     -42.393  56.507 -56.434  1.00  0.00    -0.056 A 
HETATM   10  C   UNL     1     -42.252  57.681 -57.186  1.00  0.00     0.010 A 
HETATM   11  C   UNL     1     -42.607  57.706 -58.538  1.00  0.00     0.037 A 
HETATM   12  C   UNL     1     -43.102  56.552 -59.137  1.00  0.00     0.065 A 
HETATM   13  C   UNL     1     -43.248  55.380 -58.408  1.00  0.00     0.037 A 
HETATM   14  C   UNL     1     -42.886  55.353 -57.062  1.00  0.00     0.010 A 
BRANCH  12  15
HETATM   15  O   UNL     1     -43.453  56.526 -60.454  1.00  0.00    -0.361 OA
HETATM   16  H   UNL     1     -42.964  55.811 -60.893  1.00  0.00     0.217 HD
ENDBRANCH  12  15
ENDBRANCH   8   9
ENDBRANCH   3   8
ENDBRANCH   1   3
BRANCH   1  17
HETATM   17  C   UNL     1     -40.701  53.787 -52.565  1.00  0.00     0.034 A 
HETATM   18  C   UNL     1     -40.315  52.467 -52.957  1.00  0.00     0.013 A 
HETATM   19  C   UNL     1     -40.016  51.510 -51.968  1.00  0.00     0.044 A 
HETATM   20  C   UNL     1     -40.218  52.042 -54.301  1.00  0.00     0.015 A 
HETATM   21  C   UNL     1     -39.628  50.203 -52.307  1.00  0.00     0.030 A 
HETATM   22  N   UNL     1     -40.087  51.860 -50.679  1.00  0.00    -0.355 N 
HETATM   23  C   UNL     1     -39.541  49.820 -53.642  1.00  0.00     0.002 A 
HETATM   24  C   UNL     1     -39.842  50.738 -54.639  1.00  0.00     0.001 A 
HETATM   25  H   UNL     1     -39.857  51.153 -49.986  1.00  0.00     0.166 HD
HETATM   26  C   UNL     1     -40.421  53.082 -50.241  1.00  0.00     0.044 A 
HETATM   27  C   UNL     1     -40.742  54.104 -51.168  1.00  0.00     0.013 A 
HETATM   28  C   UNL     1     -40.413  53.312 -48.850  1.00  0.00     0.030 A 
HETATM   29  C   UNL     1     -41.051  55.364 -50.592  1.00  0.00     0.015 A 
HETATM   30  C   UNL     1     -41.050  55.587 -49.210  1.00  0.00     0.001 A 
HETATM   31  C   UNL     1     -40.728  54.564 -48.336  1.00  0.00     0.002 A 
ENDBRANCH   1  17
TORSDOF 7
ENDMDL
MODEL 5
REMARK VINA RESULT:      -8.2      1.424      3.813
REMARK  7 active torsions:
REMARK  status: ('A' for Active; 'I' for Inactive)
REMARK    1  A    between atoms: O_2  and  C_3 
REMARK    2  A    between atoms: C_3  and  C_4 
REMARK    3  A    between atoms: C_4  and  N_5 
REMARK    4  A    between atoms: C_4  and  C_21 
REMARK    5  A    between atoms: N_5  and  C_6 
REMARK    6  A    between atoms: C_21  and  C_22 
REMARK    7  A    between atoms: C_25  and  O_26 
ROOT
HETATM    1  N   UNL     1     -40.732  54.719 -53.680  1.00  0.00    -0.277 NA
HETATM    2  H   UNL     1     -40.027  55.455 -53.557  1.00  0.00     0.128 HD
ENDROOT
BRANCH   1   3
HETATM    3  C   UNL     1     -41.995  55.323 -54.193  1.00  0.00     0.164 C 
BRANCH   3   4
HETATM    4  C   UNL     1     -42.504  54.570 -55.438  1.00  0.00     0.276 C 
HETATM    5  O   UNL     1     -43.196  53.562 -55.393  1.00  0.00    -0.263 OA
BRANCH   4   6
HETATM    6  O   UNL     1     -42.091  55.188 -56.586  1.00  0.00    -0.325 OA
HETATM    7  C   UNL     1     -42.837  56.360 -56.924  1.00  0.00     0.213 C 
ENDBRANCH   4   6
ENDBRANCH   3   4
BRANCH   3   8
HETATM    8  C   UNL     1     -43.122  55.186 -53.150  1.00  0.00     0.068 C 
BRANCH   8   9
HETATM    9  C   UNL     1     -43.787  56.476 -52.730  1.00  0.00    -0.056 A 
HETATM   10  C   UNL     1     -44.061  57.486 -53.663  1.00  0.00     0.010 A 
HETATM   11  C   UNL     1     -44.729  58.650 -53.274  1.00  0.00     0.037 A 
HETATM   12  C   UNL     1     -45.124  58.803 -51.949  1.00  0.00     0.065 A 
HETATM   13  C   UNL     1     -44.862  57.814 -51.011  1.00  0.00     0.037 A 
HETATM   14  C   UNL     1     -44.203  56.649 -51.401  1.00  0.00     0.010 A 
BRANCH  12  15
HETATM   15  O   UNL     1     -45.786  59.917 -51.526  1.00  0.00    -0.361 OA
HETATM   16  H   UNL     1     -46.339  59.681 -50.762  1.00  0.00     0.217 HD
ENDBRANCH  12  15
ENDBRANCH   8   9
ENDBRANCH   3   8
ENDBRANCH   1   3
BRANCH   1  17
HETATM   17  C   UNL     1     -40.670  53.792 -52.623  1.00  0.00     0.034 A 
HETATM   18  C   UNL     1     -40.305  52.460 -52.990  1.00  0.00     0.013 A 
HETATM   19  C   UNL     1     -40.043  51.511 -51.983  1.00  0.00     0.044 A 
HETATM   20  C   UNL     1     -40.195  52.014 -54.326  1.00  0.00     0.015 A 
HETATM   21  C   UNL     1     -39.676  50.191 -52.297  1.00  0.00     0.030 A 
HETATM   22  N   UNL     1     -40.128  51.881 -50.700  1.00  0.00    -0.355 N 
HETATM   23  C   UNL     1     -39.575  49.787 -53.625  1.00  0.00     0.002 A 
HETATM   24  C   UNL     1     -39.840  50.697 -54.639  1.00  0.00     0.001 A 
HETATM   25  H   UNL     1     -39.923  51.179 -49.994  1.00  0.00     0.166 HD
HETATM   26  C   UNL     1     -40.444  53.116 -50.285  1.00  0.00     0.044 A 
HETATM   27  C   UNL     1     -40.728  54.131 -51.231  1.00  0.00     0.013 A 
HETATM   28  C   UNL     1     -40.454  53.365 -48.897  1.00  0.00     0.030 A 
HETATM   29  C   UNL     1     -41.020  55.404 -50.678  1.00  0.00     0.015 A 
HETATM   30  C   UNL     1     -41.038  55.647 -49.300  1.00  0.00     0.001 A 
HETATM   31  C   UNL     1     -40.752  54.630 -48.406  1.00  0.00     0.002 A 
ENDBRANCH   1  17
TORSDOF 7
ENDMDL
MODEL 6
REMARK VINA RESULT:      -8.0      2.372      6.749
REMARK  7 active torsions:
REMARK  status: ('A' for Active; 'I' for Inactive)
REMARK    1  A    between atoms: O_2  and  C_3 
REMARK    2  A    between atoms: C_3  and  C_4 
REMARK    3  A    between atoms: C_4  and  N_5 
REMARK    4  A    between atoms: C_4  and  C_21 
REMARK    5  A    between atoms: N_5  and  C_6 
REMARK    6  A    between atoms: C_21  and  C_22 
REMARK    7  A    between atoms: C_25  and  O_26 
ROOT
HETATM    1  N   UNL     1     -43.079  55.618 -52.487  1.00  0.00    -0.277 NA
HETATM    2  H   UNL     1     -43.548  55.641 -51.574  1.00  0.00     0.128 HD
ENDROOT
BRANCH   1   3
HETATM    3  C   UNL     1     -41.603  55.559 -52.287  1.00  0.00     0.164 C 
BRANCH   3   4
HETATM    4  C   UNL     1     -41.103  56.777 -51.484  1.00  0.00     0.276 C 
HETATM    5  O   UNL     1     -41.030  56.809 -50.264  1.00  0.00    -0.263 OA
BRANCH   4   6
HETATM    6  O   UNL     1     -40.744  57.799 -52.319  1.00  0.00    -0.325 OA
HETATM    7  C   UNL     1     -41.040  59.103 -51.813  1.00  0.00     0.213 C 
ENDBRANCH   4   6
ENDBRANCH   3   4
BRANCH   3   8
HETATM    8  C   UNL     1     -41.223  54.332 -51.436  1.00  0.00     0.068 C 
BRANCH   8   9
HETATM    9  C   UNL     1     -40.679  53.147 -52.199  1.00  0.00    -0.056 A 
HETATM   10  C   UNL     1     -39.933  52.151 -51.553  1.00  0.00     0.010 A 
HETATM   11  C   UNL     1     -39.484  51.030 -52.257  1.00  0.00     0.037 A 
HETATM   12  C   UNL     1     -39.784  50.906 -53.610  1.00  0.00     0.065 A 
HETATM   13  C   UNL     1     -40.522  51.881 -54.267  1.00  0.00     0.037 A 
HETATM   14  C   UNL     1     -40.977  52.995 -53.562  1.00  0.00     0.010 A 
BRANCH  12  15
HETATM   15  O   UNL     1     -39.376  49.827 -54.335  1.00  0.00    -0.361 OA
HETATM   16  H   UNL     1     -38.852  50.138 -55.092  1.00  0.00     0.217 HD
ENDBRANCH  12  15
ENDBRANCH   8   9
ENDBRANCH   3   8
ENDBRANCH   1   3
BRANCH   1  17
HETATM   17  C   UNL     1     -43.721  56.482 -53.394  1.00  0.00     0.034 A 
HETATM   18  C   UNL     1     -44.374  57.613 -52.815  1.00  0.00     0.013 A 
HETATM   19  C   UNL     1     -44.885  58.623 -53.653  1.00  0.00     0.044 A 
HETATM   20  C   UNL     1     -44.555  57.791 -51.425  1.00  0.00     0.015 A 
HETATM   21  C   UNL     1     -45.531  59.755 -53.127  1.00  0.00     0.030 A 
HETATM   22  N   UNL     1     -44.738  58.508 -54.978  1.00  0.00    -0.355 N 
HETATM   23  C   UNL     1     -45.689  59.898 -51.752  1.00  0.00     0.002 A 
HETATM   24  C   UNL     1     -45.206  58.913 -50.901  1.00  0.00     0.001 A 
HETATM   25  H   UNL     1     -45.107  59.255 -55.558  1.00  0.00     0.166 HD
HETATM   26  C   UNL     1     -44.119  57.487 -55.587  1.00  0.00     0.044 A 
HETATM   27  C   UNL     1     -43.579  56.425 -54.820  1.00  0.00     0.013 A 
HETATM   28  C   UNL     1     -44.006  57.525 -56.992  1.00  0.00     0.030 A 
HETATM   29  C   UNL     1     -42.923  55.415 -55.568  1.00  0.00     0.015 A 
HETATM   30  C   UNL     1     -42.818  55.451 -56.964  1.00  0.00     0.001 A 
HETATM   31  C   UNL     1     -43.356  56.507 -57.679  1.00  0.00     0.002 A 
ENDBRANCH   1  17
TORSDOF 7
ENDMDL
MODEL 7
REMARK VINA RESULT:      -7.9      2.447      6.768
REMARK  7 active torsions:
REMARK  status: ('A' for Active; 'I' for Inactive)
REMARK    1  A    between atoms: O_2  and  C_3 
REMARK    2  A    between atoms: C_3  and  C_4 
REMARK    3  A    between atoms: C_4  and  N_5 
REMARK    4  A    between atoms: C_4  and  C_21 
REMARK    5  A    between atoms: N_5  and  C_6 
REMARK    6  A    between atoms: C_21  and  C_22 
REMARK    7  A    between atoms: C_25  and  O_26 
ROOT
HETATM    1  N   UNL     1     -40.689  56.250 -53.421  1.00  0.00    -0.277 NA
HETATM    2  H   UNL     1     -40.060  56.178 -54.230  1.00  0.00     0.128 HD
ENDROOT
BRANCH   1   3
HETATM    3  C   UNL     1     -41.081  54.884 -52.974  1.00  0.00     0.164 C 
BRANCH   3   4
HETATM    4  C   UNL     1     -42.598  54.801 -52.710  1.00  0.00     0.276 C 
HETATM    5  O   UNL     1     -43.415  54.406 -53.530  1.00  0.00    -0.263 OA
BRANCH   4   6
HETATM    6  O   UNL     1     -42.897  55.213 -51.441  1.00  0.00    -0.325 OA
HETATM    7  C   UNL     1     -42.294  54.427 -50.410  1.00  0.00     0.213 C 
ENDBRANCH   4   6
ENDBRANCH   3   4
BRANCH   3   8
HETATM    8  C   UNL     1     -40.809  53.852 -54.086  1.00  0.00     0.068 C 
BRANCH   8   9
HETATM    9  C   UNL     1     -40.345  52.492 -53.620  1.00  0.00    -0.056 A 
HETATM   10  C   UNL     1     -39.894  52.293 -52.307  1.00  0.00     0.010 A 
HETATM   11  C   UNL     1     -39.522  51.018 -51.870  1.00  0.00     0.037 A 
HETATM   12  C   UNL     1     -39.603  49.942 -52.747  1.00  0.00     0.065 A 
HETATM   13  C   UNL     1     -40.049  50.120 -54.050  1.00  0.00     0.037 A 
HETATM   14  C   UNL     1     -40.428  51.390 -54.483  1.00  0.00     0.010 A 
BRANCH  12  15
HETATM   15  O   UNL     1     -39.261  48.680 -52.362  1.00  0.00    -0.361 OA
HETATM   16  H   UNL     1     -39.224  48.648 -51.391  1.00  0.00     0.217 HD
ENDBRANCH  12  15
ENDBRANCH   8   9
ENDBRANCH   3   8
ENDBRANCH   1   3
BRANCH   1  17
HETATM   17  C   UNL     1     -41.589  57.318 -53.588  1.00  0.00     0.034 A 
HETATM   18  C   UNL     1     -41.599  58.289 -52.539  1.00  0.00     0.013 A 
HETATM   19  C   UNL     1     -42.333  59.480 -52.704  1.00  0.00     0.044 A 
HETATM   20  C   UNL     1     -40.914  58.131 -51.313  1.00  0.00     0.015 A 
HETATM   21  C   UNL     1     -42.367  60.464 -51.701  1.00  0.00     0.030 A 
HETATM   22  N   UNL     1     -42.997  59.684 -53.847  1.00  0.00    -0.355 N 
HETATM   23  C   UNL     1     -41.678  60.275 -50.507  1.00  0.00     0.002 A 
HETATM   24  C   UNL     1     -40.956  59.105 -50.311  1.00  0.00     0.001 A 
HETATM   25  H   UNL     1     -43.510  60.556 -53.943  1.00  0.00     0.166 HD
HETATM   26  C   UNL     1     -43.015  58.828 -54.878  1.00  0.00     0.044 A 
HETATM   27  C   UNL     1     -42.307  57.604 -54.796  1.00  0.00     0.013 A 
HETATM   28  C   UNL     1     -43.729  59.201 -56.036  1.00  0.00     0.030 A 
HETATM   29  C   UNL     1     -42.373  56.791 -55.956  1.00  0.00     0.015 A 
HETATM   30  C   UNL     1     -43.089  57.160 -57.102  1.00  0.00     0.001 A 
HETATM   31  C   UNL     1     -43.765  58.366 -57.145  1.00  0.00     0.002 A 
ENDBRANCH   1  17
TORSDOF 7
ENDMDL
MODEL 8
REMARK VINA RESULT:      -7.9     14.316     17.027
REMARK  7 active torsions:
REMARK  status: ('A' for Active; 'I' for Inactive)
REMARK    1  A    between atoms: O_2  and  C_3 
REMARK    2  A    between atoms: C_3  and  C_4 
REMARK    3  A    between atoms: C_4  and  N_5 
REMARK    4  A    between atoms: C_4  and  C_21 
REMARK    5  A    between atoms: N_5  and  C_6 
REMARK    6  A    between atoms: C_21  and  C_22 
REMARK    7  A    between atoms: C_25  and  O_26 
ROOT
HETATM    1  N   UNL     1     -33.945  41.478 -54.736  1.00  0.00    -0.277 NA
HETATM    2  H   UNL     1     -33.815  42.353 -54.215  1.00  0.00     0.128 HD
ENDROOT
BRANCH   1   3
HETATM    3  C   UNL     1     -35.361  41.379 -55.193  1.00  0.00     0.164 C 
BRANCH   3   4
HETATM    4  C   UNL     1     -36.333  41.847 -54.091  1.00  0.00     0.276 C 
HETATM    5  O   UNL     1     -36.094  42.755 -53.308  1.00  0.00    -0.263 OA
BRANCH   4   6
HETATM    6  O   UNL     1     -37.493  41.123 -54.122  1.00  0.00    -0.325 OA
HETATM    7  C   UNL     1     -38.026  40.811 -52.833  1.00  0.00     0.213 C 
ENDBRANCH   4   6
ENDBRANCH   3   4
BRANCH   3   8
HETATM    8  C   UNL     1     -35.613  42.326 -56.382  1.00  0.00     0.068 C 
BRANCH   8   9
HETATM    9  C   UNL     1     -36.073  41.666 -57.661  1.00  0.00    -0.056 A 
HETATM   10  C   UNL     1     -35.786  40.319 -57.923  1.00  0.00     0.010 A 
HETATM   11  C   UNL     1     -36.266  39.703 -59.082  1.00  0.00     0.037 A 
HETATM   12  C   UNL     1     -37.035  40.437 -59.979  1.00  0.00     0.065 A 
HETATM   13  C   UNL     1     -37.331  41.771 -59.736  1.00  0.00     0.037 A 
HETATM   14  C   UNL     1     -36.858  42.383 -58.575  1.00  0.00     0.010 A 
BRANCH  12  15
HETATM   15  O   UNL     1     -37.533  39.876 -61.117  1.00  0.00    -0.361 OA
HETATM   16  H   UNL     1     -38.500  39.973 -61.117  1.00  0.00     0.217 HD
ENDBRANCH  12  15
ENDBRANCH   8   9
ENDBRANCH   3   8
ENDBRANCH   1   3
BRANCH   1  17
HETATM   17  C   UNL     1     -33.234  40.428 -54.127  1.00  0.00     0.034 A 
HETATM   18  C   UNL     1     -32.442  39.625 -55.006  1.00  0.00     0.013 A 
HETATM   19  C   UNL     1     -31.560  38.670 -54.465  1.00  0.00     0.044 A 
HETATM   20  C   UNL     1     -32.490  39.719 -56.415  1.00  0.00     0.015 A 
HETATM   21  C   UNL     1     -30.759  37.862 -55.291  1.00  0.00     0.030 A 
HETATM   22  N   UNL     1     -31.472  38.542 -53.137  1.00  0.00    -0.355 N 
HETATM   23  C   UNL     1     -30.831  37.984 -56.675  1.00  0.00     0.002 A 
HETATM   24  C   UNL     1     -31.701  38.908 -57.237  1.00  0.00     0.001 A 
HETATM   25  H   UNL     1     -30.819  37.852 -52.773  1.00  0.00     0.166 HD
HETATM   26  C   UNL     1     -32.167  39.274 -52.255  1.00  0.00     0.044 A 
HETATM   27  C   UNL     1     -33.081  40.254 -52.712  1.00  0.00     0.013 A 
HETATM   28  C   UNL     1     -31.936  39.051 -50.882  1.00  0.00     0.030 A 
HETATM   29  C   UNL     1     -33.738  40.988 -51.691  1.00  0.00     0.015 A 
HETATM   30  C   UNL     1     -33.513  40.759 -50.328  1.00  0.00     0.001 A 
HETATM   31  C   UNL     1     -32.609  39.794 -49.920  1.00  0.00     0.002 A 
ENDBRANCH   1  17
TORSDOF 7
ENDMDL
MODEL 9
REMARK VINA RESULT:      -7.7      2.438      7.503
REMARK  7 active torsions:
REMARK  status: ('A' for Active; 'I' for Inactive)
REMARK    1  A    between atoms: O_2  and  C_3 
REMARK    2  A    between atoms: C_3  and  C_4 
REMARK    3  A    between atoms: C_4  and  N_5 
REMARK    4  A    between atoms: C_4  and  C_21 
REMARK    5  A    between atoms: N_5  and  C_6 
REMARK    6  A    between atoms: C_21  and  C_22 
REMARK    7  A    between atoms: C_25  and  O_26 
ROOT
HETATM    1  N   UNL     1     -41.164  55.774 -55.416  1.00  0.00    -0.277 NA
HETATM    2  H   UNL     1     -40.927  55.457 -56.363  1.00  0.00     0.128 HD
ENDROOT
BRANCH   1   3
HETATM    3  C   UNL     1     -41.376  54.591 -54.535  1.00  0.00     0.164 C 
BRANCH   3   4
HETATM    4  C   UNL     1     -42.843  54.117 -54.586  1.00  0.00     0.276 C 
HETATM    5  O   UNL     1     -43.298  53.393 -55.459  1.00  0.00    -0.263 OA
BRANCH   4   6
HETATM    6  O   UNL     1     -43.551  54.604 -53.522  1.00  0.00    -0.325 OA
HETATM    7  C   UNL     1     -43.041  54.209 -52.245  1.00  0.00     0.213 C 
ENDBRANCH   4   6
ENDBRANCH   3   4
BRANCH   3   8
HETATM    8  C   UNL     1     -40.548  53.390 -55.034  1.00  0.00     0.068 C 
BRANCH   8   9
HETATM    9  C   UNL     1     -40.244  52.329 -54.002  1.00  0.00    -0.056 A 
HETATM   10  C   UNL     1     -40.144  50.978 -54.362  1.00  0.00     0.010 A 
HETATM   11  C   UNL     1     -39.805  50.012 -53.410  1.00  0.00     0.037 A 
HETATM   12  C   UNL     1     -39.564  50.401 -52.097  1.00  0.00     0.065 A 
HETATM   13  C   UNL     1     -39.656  51.734 -51.721  1.00  0.00     0.037 A 
HETATM   14  C   UNL     1     -39.986  52.698 -52.673  1.00  0.00     0.010 A 
BRANCH  12  15
HETATM   15  O   UNL     1     -39.221  49.496 -51.137  1.00  0.00    -0.361 OA
HETATM   16  H   UNL     1     -38.273  49.299 -51.217  1.00  0.00     0.217 HD
ENDBRANCH  12  15
ENDBRANCH   8   9
ENDBRANCH   3   8
ENDBRANCH   1   3
BRANCH   1  17
HETATM   17  C   UNL     1     -42.022  56.888 -55.467  1.00  0.00     0.034 A 
HETATM   18  C   UNL     1     -42.897  56.944 -56.595  1.00  0.00     0.013 A 
HETATM   19  C   UNL     1     -43.911  57.920 -56.639  1.00  0.00     0.044 A 
HETATM   20  C   UNL     1     -42.809  56.071 -57.704  1.00  0.00     0.015 A 
HETATM   21  C   UNL     1     -44.796  58.009 -57.726  1.00  0.00     0.030 A 
HETATM   22  N   UNL     1     -44.043  58.769 -55.614  1.00  0.00    -0.355 N 
HETATM   23  C   UNL     1     -44.681  57.131 -58.800  1.00  0.00     0.002 A 
HETATM   24  C   UNL     1     -43.683  56.166 -58.791  1.00  0.00     0.001 A 
HETATM   25  H   UNL     1     -44.789  59.457 -55.666  1.00  0.00     0.166 HD
HETATM   26  C   UNL     1     -43.273  58.761 -54.516  1.00  0.00     0.044 A 
HETATM   27  C   UNL     1     -42.226  57.815 -54.392  1.00  0.00     0.013 A 
HETATM   28  C   UNL     1     -43.560  59.695 -53.499  1.00  0.00     0.030 A 
HETATM   29  C   UNL     1     -41.497  57.880 -53.177  1.00  0.00     0.015 A 
HETATM   30  C   UNL     1     -41.778  58.814 -52.172  1.00  0.00     0.001 A 
HETATM   31  C   UNL     1     -42.811  59.720 -52.329  1.00  0.00     0.002 A 
ENDBRANCH   1  17
TORSDOF 7
ENDMDL
MODEL 10
REMARK VINA RESULT:      -7.7      2.413      7.655
REMARK  7 active torsions:
REMARK  status: ('A' for Active; 'I' for Inactive)
REMARK    1  A    between atoms: O_2  and  C_3 
REMARK    2  A    between atoms: C_3  and  C_4 
REMARK    3  A    between atoms: C_4  and  N_5 
REMARK    4  A    between atoms: C_4  and  C_21 
REMARK    5  A    between atoms: N_5  and  C_6 
REMARK    6  A    between atoms: C_21  and  C_22 
REMARK    7  A    between atoms: C_25  and  O_26 
ROOT
HETATM    1  N   UNL     1     -43.117  55.816 -52.464  1.00  0.00    -0.277 NA
HETATM    2  H   UNL     1     -43.717  55.635 -51.651  1.00  0.00     0.128 HD
ENDROOT
BRANCH   1   3
HETATM    3  C   UNL     1     -41.689  55.635 -52.077  1.00  0.00     0.164 C 
BRANCH   3   4
HETATM    4  C   UNL     1     -41.245  56.719 -51.075  1.00  0.00     0.276 C 
HETATM    5  O   UNL     1     -41.352  56.615 -49.861  1.00  0.00    -0.263 OA
BRANCH   4   6
HETATM    6  O   UNL     1     -40.706  57.795 -51.725  1.00  0.00    -0.325 OA
HETATM    7  C   UNL     1     -40.963  59.053 -51.095  1.00  0.00     0.213 C 
ENDBRANCH   4   6
ENDBRANCH   3   4
BRANCH   3   8
HETATM    8  C   UNL     1     -41.495  54.297 -51.337  1.00  0.00     0.068 C 
BRANCH   8   9
HETATM    9  C   UNL     1     -40.825  53.200 -52.130  1.00  0.00    -0.056 A 
HETATM   10  C   UNL     1     -39.983  52.268 -51.506  1.00  0.00     0.010 A 
HETATM   11  C   UNL     1     -39.415  51.222 -52.239  1.00  0.00     0.037 A 
HETATM   12  C   UNL     1     -39.692  51.108 -53.597  1.00  0.00     0.065 A 
HETATM   13  C   UNL     1     -40.524  52.020 -54.232  1.00  0.00     0.037 A 
HETATM   14  C   UNL     1     -41.097  53.059 -53.499  1.00  0.00     0.010 A 
BRANCH  12  15
HETATM   15  O   UNL     1     -39.169  50.100 -54.350  1.00  0.00    -0.361 OA
HETATM   16  H   UNL     1     -39.681  50.024 -55.172  1.00  0.00     0.217 HD
ENDBRANCH  12  15
ENDBRANCH   8   9
ENDBRANCH   3   8
ENDBRANCH   1   3
BRANCH   1  17
HETATM   17  C   UNL     1     -43.605  56.907 -53.207  1.00  0.00     0.034 A 
HETATM   18  C   UNL     1     -43.518  56.777 -54.627  1.00  0.00     0.013 A 
HETATM   19  C   UNL     1     -44.142  57.734 -55.450  1.00  0.00     0.044 A 
HETATM   20  C   UNL     1     -42.826  55.733 -55.281  1.00  0.00     0.015 A 
HETATM   21  C   UNL     1     -44.087  57.644 -56.851  1.00  0.00     0.030 A 
HETATM   22  N   UNL     1     -44.816  58.742 -54.884  1.00  0.00    -0.355 N 
HETATM   23  C   UNL     1     -43.398  56.600 -57.461  1.00  0.00     0.002 A 
HETATM   24  C   UNL     1     -42.762  55.648 -56.676  1.00  0.00     0.001 A 
HETATM   25  H   UNL     1     -45.265  59.413 -55.501  1.00  0.00     0.166 HD
HETATM   26  C   UNL     1     -44.955  58.914 -53.562  1.00  0.00     0.044 A 
HETATM   27  C   UNL     1     -44.356  58.000 -52.661  1.00  0.00     0.013 A 
HETATM   28  C   UNL     1     -45.730  60.003 -53.114  1.00  0.00     0.030 A 
HETATM   29  C   UNL     1     -44.594  58.264 -51.288  1.00  0.00     0.015 A 
HETATM   30  C   UNL     1     -45.357  59.352 -50.845  1.00  0.00     0.001 A 
HETATM   31  C   UNL     1     -45.930  60.221 -51.757  1.00  0.00     0.002 A 
ENDBRANCH   1  17
TORSDOF 7
ENDMDL
