MODEL 1
REMARK VINA RESULT:      -9.2      0.000      0.000
REMARK  8 active torsions:
REMARK  status: ('A' for Active; 'I' for Inactive)
REMARK    1  A    between atoms: C_2  and  C_3 
REMARK    2  A    between atoms: C_3  and  C_4 
REMARK    3  A    between atoms: C_7  and  N_8 
REMARK       I    between atoms: N_8  and  C_9 
REMARK    4  A    between atoms: C_9  and  C_10 
REMARK    5  A    between atoms: C_13  and  N_14 
REMARK       I    between atoms: N_14  and  C_15 
REMARK    6  A    between atoms: C_15  and  C_16 
REMARK    7  A    between atoms: C_16  and  C_17 
REMARK    8  A    between atoms: C_19  and  N_20 
ROOT
HETATM    1  C   UNL     1     -42.427  58.812 -51.140  1.00  0.00     0.032 A 
HETATM    2  C   UNL     1     -41.962  60.000 -50.562  1.00  0.00     0.019 A 
HETATM    3  C   UNL     1     -42.869  60.938 -50.044  1.00  0.00     0.030 A 
HETATM    4  C   UNL     1     -44.243  60.711 -50.114  1.00  0.00     0.034 A 
HETATM    5  C   UNL     1     -44.706  59.541 -50.725  1.00  0.00     0.030 A 
HETATM    6  C   UNL     1     -43.807  58.600 -51.233  1.00  0.00     0.019 A 
ENDROOT
BRANCH   4   7
HETATM    7  N   UNL     1     -45.223  61.583 -49.602  1.00  0.00    -0.327 N 
HETATM    8  C   UNL     1     -45.978  61.437 -48.456  1.00  0.00     0.223 C 
HETATM    9  O   UNL     1     -45.901  60.521 -47.644  1.00  0.00    -0.273 OA
HETATM   10  H   UNL     1     -45.350  62.447 -50.133  1.00  0.00     0.169 HD
BRANCH   8  11
HETATM   11  C   UNL     1     -46.968  62.569 -48.240  1.00  0.00     0.128 C 
BRANCH  11  12
HETATM   12  C   UNL     1     -46.366  63.614 -47.315  1.00  0.00     0.158 C 
HETATM   13  S   UNL     1     -45.235  62.872 -46.097  1.00  0.00    -0.077 SA
HETATM   14  C   UNL     1     -45.882  63.917 -44.839  1.00  0.00     0.168 C 
HETATM   15  N   UNL     1     -46.968  64.547 -45.153  1.00  0.00    -0.189 NA
HETATM   16  C   UNL     1     -47.414  64.252 -46.417  1.00  0.00     0.260 C 
HETATM   17  O   UNL     1     -48.551  64.498 -46.810  1.00  0.00    -0.270 OA
BRANCH  14  18
HETATM   18  N   UNL     1     -45.204  64.058 -43.650  1.00  0.00    -0.360 N 
HETATM   19  C   UNL     1     -45.850  64.413 -42.383  1.00  0.00     0.125 C 
HETATM   20  C   UNL     1     -45.213  63.624 -41.240  1.00  0.00     0.020 C 
HETATM   21  C   UNL     1     -43.701  63.831 -41.198  1.00  0.00     0.003 C 
HETATM   22  C   UNL     1     -43.075  63.538 -42.558  1.00  0.00     0.020 C 
HETATM   23  C   UNL     1     -43.761  64.333 -43.670  1.00  0.00     0.125 C 
ENDBRANCH  14  18
ENDBRANCH  11  12
ENDBRANCH   8  11
ENDBRANCH   4   7
BRANCH   1  24
HETATM   24  C   UNL     1     -41.527  57.739 -51.665  1.00  0.00     0.256 C 
HETATM   25  N   UNL     1     -41.834  56.447 -51.278  1.00  0.00    -0.323 N 
HETATM   26  H   UNL     1     -42.603  56.315 -50.639  1.00  0.00     0.169 HD
HETATM   27  O   UNL     1     -40.618  58.076 -52.418  1.00  0.00    -0.267 OA
BRANCH  25  28
HETATM   28  C   UNL     1     -41.246  55.255 -51.758  1.00  0.00     0.035 A 
HETATM   29  C   UNL     1     -41.296  54.840 -53.088  1.00  0.00     0.030 A 
HETATM   30  C   UNL     1     -40.746  53.612 -53.474  1.00  0.00     0.010 A 
HETATM   31  C   UNL     1     -40.116  52.779 -52.543  1.00  0.00    -0.054 A 
HETATM   32  C   UNL     1     -40.053  53.205 -51.210  1.00  0.00     0.010 A 
HETATM   33  C   UNL     1     -40.615  54.427 -50.822  1.00  0.00     0.030 A 
BRANCH  31  34
HETATM   34  C   UNL     1     -39.550  51.423 -52.932  1.00  0.00     0.014 C 
HETATM   35  C   UNL     1     -39.536  50.500 -51.707  1.00  0.00     0.015 C 
BRANCH  34  36
HETATM   36  C   UNL     1     -40.290  50.742 -54.102  1.00  0.00     0.004 C 
HETATM   37  C   UNL     1     -39.503  49.592 -54.718  1.00  0.00     0.006 C 
ENDBRANCH  34  36
ENDBRANCH  31  34
ENDBRANCH  25  28
ENDBRANCH   1  24
TORSDOF 8
ENDMDL
MODEL 2
REMARK VINA RESULT:      -9.0      4.157      6.207
REMARK  8 active torsions:
REMARK  status: ('A' for Active; 'I' for Inactive)
REMARK    1  A    between atoms: C_2  and  C_3 
REMARK    2  A    between atoms: C_3  and  C_4 
REMARK    3  A    between atoms: C_7  and  N_8 
REMARK       I    between atoms: N_8  and  C_9 
REMARK    4  A    between atoms: C_9  and  C_10 
REMARK    5  A    between atoms: C_13  and  N_14 
REMARK       I    between atoms: N_14  and  C_15 
REMARK    6  A    between atoms: C_15  and  C_16 
REMARK    7  A    between atoms: C_16  and  C_17 
REMARK    8  A    between atoms: C_19  and  N_20 
ROOT
HETATM    1  C   UNL     1     -42.323  59.166 -51.063  1.00  0.00     0.032 A 
HETATM    2  C   UNL     1     -41.922  60.362 -50.456  1.00  0.00     0.019 A 
HETATM    3  C   UNL     1     -42.852  61.391 -50.236  1.00  0.00     0.030 A 
HETATM    4  C   UNL     1     -44.180  61.245 -50.634  1.00  0.00     0.034 A 
HETATM    5  C   UNL     1     -44.569  60.063 -51.273  1.00  0.00     0.030 A 
HETATM    6  C   UNL     1     -43.650  59.033 -51.486  1.00  0.00     0.019 A 
ENDROOT
BRANCH   4   7
HETATM    7  N   UNL     1     -45.184  62.212 -50.433  1.00  0.00    -0.327 N 
HETATM    8  C   UNL     1     -45.304  63.451 -51.028  1.00  0.00     0.223 C 
HETATM    9  O   UNL     1     -44.562  63.923 -51.883  1.00  0.00    -0.273 OA
HETATM   10  H   UNL     1     -45.932  61.929 -49.797  1.00  0.00     0.169 HD
BRANCH   8  11
HETATM   11  C   UNL     1     -46.505  64.240 -50.538  1.00  0.00     0.128 C 
BRANCH  11  12
HETATM   12  C   UNL     1     -47.742  63.358 -50.541  1.00  0.00     0.158 C 
HETATM   13  S   UNL     1     -48.349  63.048 -52.229  1.00  0.00    -0.077 SA
HETATM   14  C   UNL     1     -50.008  63.257 -51.685  1.00  0.00     0.168 C 
HETATM   15  N   UNL     1     -50.139  63.758 -50.499  1.00  0.00    -0.189 NA
HETATM   16  C   UNL     1     -48.937  64.049 -49.903  1.00  0.00     0.260 C 
HETATM   17  O   UNL     1     -48.824  64.782 -48.924  1.00  0.00    -0.270 OA
BRANCH  14  18
HETATM   18  N   UNL     1     -51.049  62.843 -52.484  1.00  0.00    -0.360 N 
HETATM   19  C   UNL     1     -52.462  62.988 -52.120  1.00  0.00     0.125 C 
HETATM   20  C   UNL     1     -53.277  63.366 -53.356  1.00  0.00     0.020 C 
HETATM   21  C   UNL     1     -53.070  62.363 -54.487  1.00  0.00     0.003 C 
HETATM   22  C   UNL     1     -51.584  62.172 -54.777  1.00  0.00     0.020 C 
HETATM   23  C   UNL     1     -50.809  61.817 -53.508  1.00  0.00     0.125 C 
ENDBRANCH  14  18
ENDBRANCH  11  12
ENDBRANCH   8  11
ENDBRANCH   4   7
BRANCH   1  24
HETATM   24  C   UNL     1     -41.408  58.002 -51.284  1.00  0.00     0.256 C 
HETATM   25  N   UNL     1     -42.022  56.781 -51.496  1.00  0.00    -0.323 N 
HETATM   26  H   UNL     1     -43.028  56.742 -51.443  1.00  0.00     0.169 HD
HETATM   27  O   UNL     1     -40.201  58.221 -51.297  1.00  0.00    -0.267 OA
BRANCH  25  28
HETATM   28  C   UNL     1     -41.397  55.574 -51.884  1.00  0.00     0.035 A 
HETATM   29  C   UNL     1     -41.134  55.221 -53.206  1.00  0.00     0.030 A 
HETATM   30  C   UNL     1     -40.572  53.975 -53.514  1.00  0.00     0.010 A 
HETATM   31  C   UNL     1     -40.241  53.063 -52.506  1.00  0.00    -0.054 A 
HETATM   32  C   UNL     1     -40.492  53.427 -51.177  1.00  0.00     0.010 A 
HETATM   33  C   UNL     1     -41.067  54.667 -50.870  1.00  0.00     0.030 A 
BRANCH  31  34
HETATM   34  C   UNL     1     -39.670  51.690 -52.820  1.00  0.00     0.014 C 
HETATM   35  C   UNL     1     -39.740  50.804 -51.571  1.00  0.00     0.015 C 
BRANCH  34  36
HETATM   36  C   UNL     1     -40.347  50.982 -54.012  1.00  0.00     0.004 C 
HETATM   37  C   UNL     1     -39.526  49.823 -54.564  1.00  0.00     0.006 C 
ENDBRANCH  34  36
ENDBRANCH  31  34
ENDBRANCH  25  28
ENDBRANCH   1  24
TORSDOF 8
ENDMDL
MODEL 3
REMARK VINA RESULT:      -8.5      5.677      8.039
REMARK  8 active torsions:
REMARK  status: ('A' for Active; 'I' for Inactive)
REMARK    1  A    between atoms: C_2  and  C_3 
REMARK    2  A    between atoms: C_3  and  C_4 
REMARK    3  A    between atoms: C_7  and  N_8 
REMARK       I    between atoms: N_8  and  C_9 
REMARK    4  A    between atoms: C_9  and  C_10 
REMARK    5  A    between atoms: C_13  and  N_14 
REMARK       I    between atoms: N_14  and  C_15 
REMARK    6  A    between atoms: C_15  and  C_16 
REMARK    7  A    between atoms: C_16  and  C_17 
REMARK    8  A    between atoms: C_19  and  N_20 
ROOT
HETATM    1  C   UNL     1     -44.067  58.596 -52.970  1.00  0.00     0.032 A 
HETATM    2  C   UNL     1     -44.440  59.277 -54.135  1.00  0.00     0.019 A 
HETATM    3  C   UNL     1     -45.480  60.219 -54.102  1.00  0.00     0.030 A 
HETATM    4  C   UNL     1     -46.167  60.477 -52.916  1.00  0.00     0.034 A 
HETATM    5  C   UNL     1     -45.817  59.768 -51.763  1.00  0.00     0.030 A 
HETATM    6  C   UNL     1     -44.776  58.836 -51.788  1.00  0.00     0.019 A 
ENDROOT
BRANCH   4   7
HETATM    7  N   UNL     1     -47.206  61.419 -52.784  1.00  0.00    -0.327 N 
HETATM    8  C   UNL     1     -47.142  62.787 -52.958  1.00  0.00     0.223 C 
HETATM    9  O   UNL     1     -46.159  63.433 -53.303  1.00  0.00    -0.273 OA
HETATM   10  H   UNL     1     -48.123  61.021 -52.574  1.00  0.00     0.169 HD
BRANCH   8  11
HETATM   11  C   UNL     1     -48.464  63.488 -52.695  1.00  0.00     0.128 C 
BRANCH  11  12
HETATM   12  C   UNL     1     -49.608  62.494 -52.801  1.00  0.00     0.158 C 
HETATM   13  S   UNL     1     -50.281  62.411 -54.490  1.00  0.00    -0.077 SA
HETATM   14  C   UNL     1     -51.917  62.351 -53.850  1.00  0.00     0.168 C 
HETATM   15  N   UNL     1     -52.026  62.629 -52.591  1.00  0.00    -0.189 NA
HETATM   16  C   UNL     1     -50.825  62.939 -52.004  1.00  0.00     0.260 C 
HETATM   17  O   UNL     1     -50.726  63.505 -50.918  1.00  0.00    -0.270 OA
BRANCH  14  18
HETATM   18  N   UNL     1     -52.958  61.971 -54.666  1.00  0.00    -0.360 N 
HETATM   19  C   UNL     1     -54.291  62.582 -54.623  1.00  0.00     0.125 C 
HETATM   20  C   UNL     1     -54.842  62.718 -56.041  1.00  0.00     0.020 C 
HETATM   21  C   UNL     1     -54.843  61.377 -56.769  1.00  0.00     0.003 C 
HETATM   22  C   UNL     1     -53.462  60.730 -56.716  1.00  0.00     0.020 C 
HETATM   23  C   UNL     1     -52.945  60.637 -55.280  1.00  0.00     0.125 C 
ENDBRANCH  14  18
ENDBRANCH  11  12
ENDBRANCH   8  11
ENDBRANCH   4   7
BRANCH   1  24
HETATM   24  C   UNL     1     -42.936  57.618 -52.910  1.00  0.00     0.256 C 
HETATM   25  N   UNL     1     -43.287  56.297 -52.700  1.00  0.00    -0.323 N 
HETATM   26  H   UNL     1     -44.262  56.084 -52.556  1.00  0.00     0.169 HD
HETATM   27  O   UNL     1     -41.800  58.050 -53.085  1.00  0.00    -0.267 OA
BRANCH  25  28
HETATM   28  C   UNL     1     -42.434  55.172 -52.761  1.00  0.00     0.035 A 
HETATM   29  C   UNL     1     -41.681  54.704 -51.686  1.00  0.00     0.030 A 
HETATM   30  C   UNL     1     -40.806  53.621 -51.844  1.00  0.00     0.010 A 
HETATM   31  C   UNL     1     -40.680  52.970 -53.076  1.00  0.00    -0.054 A 
HETATM   32  C   UNL     1     -41.449  53.432 -54.151  1.00  0.00     0.010 A 
HETATM   33  C   UNL     1     -42.313  54.523 -53.996  1.00  0.00     0.030 A 
BRANCH  31  34
HETATM   34  C   UNL     1     -39.706  51.821 -53.280  1.00  0.00     0.014 C 
HETATM   35  C   UNL     1     -39.433  51.131 -51.938  1.00  0.00     0.015 C 
BRANCH  34  36
HETATM   36  C   UNL     1     -40.162  50.784 -54.328  1.00  0.00     0.004 C 
HETATM   37  C   UNL     1     -39.355  49.494 -54.283  1.00  0.00     0.006 C 
ENDBRANCH  34  36
ENDBRANCH  31  34
ENDBRANCH  25  28
ENDBRANCH   1  24
TORSDOF 8
ENDMDL
MODEL 4
REMARK VINA RESULT:      -8.4      6.928     12.083
REMARK  8 active torsions:
REMARK  status: ('A' for Active; 'I' for Inactive)
REMARK    1  A    between atoms: C_2  and  C_3 
REMARK    2  A    between atoms: C_3  and  C_4 
REMARK    3  A    between atoms: C_7  and  N_8 
REMARK       I    between atoms: N_8  and  C_9 
REMARK    4  A    between atoms: C_9  and  C_10 
REMARK    5  A    between atoms: C_13  and  N_14 
REMARK       I    between atoms: N_14  and  C_15 
REMARK    6  A    between atoms: C_15  and  C_16 
REMARK    7  A    between atoms: C_16  and  C_17 
REMARK    8  A    between atoms: C_19  and  N_20 
ROOT
HETATM    1  C   UNL     1     -44.568  57.743 -55.655  1.00  0.00     0.032 A 
HETATM    2  C   UNL     1     -45.105  58.288 -54.482  1.00  0.00     0.019 A 
HETATM    3  C   UNL     1     -44.644  57.862 -53.227  1.00  0.00     0.030 A 
HETATM    4  C   UNL     1     -43.659  56.879 -53.128  1.00  0.00     0.034 A 
HETATM    5  C   UNL     1     -43.151  56.310 -54.300  1.00  0.00     0.030 A 
HETATM    6  C   UNL     1     -43.600  56.737 -55.552  1.00  0.00     0.019 A 
ENDROOT
BRANCH   4   7
HETATM    7  N   UNL     1     -43.121  56.408 -51.915  1.00  0.00    -0.327 N 
HETATM    8  C   UNL     1     -42.033  56.895 -51.220  1.00  0.00     0.223 C 
HETATM    9  O   UNL     1     -41.352  57.870 -51.522  1.00  0.00    -0.273 OA
HETATM   10  H   UNL     1     -43.635  55.635 -51.488  1.00  0.00     0.169 HD
BRANCH   8  11
HETATM   11  C   UNL     1     -41.722  56.106 -49.960  1.00  0.00     0.128 C 
BRANCH  11  12
HETATM   12  C   UNL     1     -40.593  55.125 -50.228  1.00  0.00     0.158 C 
HETATM   13  S   UNL     1     -40.712  54.391 -51.889  1.00  0.00    -0.077 SA
HETATM   14  C   UNL     1     -40.274  52.817 -51.240  1.00  0.00     0.168 C 
HETATM   15  N   UNL     1     -40.296  52.729 -49.950  1.00  0.00    -0.189 NA
HETATM   16  C   UNL     1     -40.683  53.895 -49.338  1.00  0.00     0.260 C 
HETATM   17  O   UNL     1     -41.050  53.958 -48.168  1.00  0.00    -0.270 OA
BRANCH  14  18
HETATM   18  N   UNL     1     -39.887  51.808 -52.093  1.00  0.00    -0.360 N 
HETATM   19  C   UNL     1     -39.216  50.582 -51.650  1.00  0.00     0.125 C 
HETATM   20  C   UNL     1     -39.741  49.390 -52.448  1.00  0.00     0.020 C 
HETATM   21  C   UNL     1     -39.596  49.619 -53.950  1.00  0.00     0.003 C 
HETATM   22  C   UNL     1     -40.228  50.947 -54.359  1.00  0.00     0.020 C 
HETATM   23  C   UNL     1     -39.688  52.103 -53.518  1.00  0.00     0.125 C 
ENDBRANCH  14  18
ENDBRANCH  11  12
ENDBRANCH   8  11
ENDBRANCH   4   7
BRANCH   1  24
HETATM   24  C   UNL     1     -44.966  58.180 -57.029  1.00  0.00     0.256 C 
HETATM   25  N   UNL     1     -45.940  57.418 -57.649  1.00  0.00    -0.323 N 
HETATM   26  H   UNL     1     -46.281  56.602 -57.165  1.00  0.00     0.169 HD
HETATM   27  O   UNL     1     -44.434  59.188 -57.482  1.00  0.00    -0.267 OA
BRANCH  25  28
HETATM   28  C   UNL     1     -46.597  57.709 -58.866  1.00  0.00     0.035 A 
HETATM   29  C   UNL     1     -46.743  56.799 -59.911  1.00  0.00     0.030 A 
HETATM   30  C   UNL     1     -47.350  57.183 -61.114  1.00  0.00     0.010 A 
HETATM   31  C   UNL     1     -47.843  58.481 -61.291  1.00  0.00    -0.054 A 
HETATM   32  C   UNL     1     -47.710  59.389 -60.233  1.00  0.00     0.010 A 
HETATM   33  C   UNL     1     -47.091  59.008 -59.036  1.00  0.00     0.030 A 
BRANCH  31  34
HETATM   34  C   UNL     1     -48.466  58.931 -62.601  1.00  0.00     0.014 C 
HETATM   35  C   UNL     1     -49.961  58.589 -62.606  1.00  0.00     0.015 C 
BRANCH  34  36
HETATM   36  C   UNL     1     -48.263  60.427 -62.917  1.00  0.00     0.004 C 
HETATM   37  C   UNL     1     -46.934  60.719 -63.601  1.00  0.00     0.006 C 
ENDBRANCH  34  36
ENDBRANCH  31  34
ENDBRANCH  25  28
ENDBRANCH   1  24
TORSDOF 8
ENDMDL
MODEL 5
REMARK VINA RESULT:      -8.4      2.214      2.907
REMARK  8 active torsions:
REMARK  status: ('A' for Active; 'I' for Inactive)
REMARK    1  A    between atoms: C_2  and  C_3 
REMARK    2  A    between atoms: C_3  and  C_4 
REMARK    3  A    between atoms: C_7  and  N_8 
REMARK       I    between atoms: N_8  and  C_9 
REMARK    4  A    between atoms: C_9  and  C_10 
REMARK    5  A    between atoms: C_13  and  N_14 
REMARK       I    between atoms: N_14  and  C_15 
REMARK    6  A    between atoms: C_15  and  C_16 
REMARK    7  A    between atoms: C_16  and  C_17 
REMARK    8  A    between atoms: C_19  and  N_20 
ROOT
HETATM    1  C   UNL     1     -43.984  58.626 -52.436  1.00  0.00     0.032 A 
HETATM    2  C   UNL     1     -44.430  59.439 -53.485  1.00  0.00     0.019 A 
HETATM    3  C   UNL     1     -45.482  60.346 -53.281  1.00  0.00     0.030 A 
HETATM    4  C   UNL     1     -46.109  60.438 -52.038  1.00  0.00     0.034 A 
HETATM    5  C   UNL     1     -45.686  59.598 -51.003  1.00  0.00     0.030 A 
HETATM    6  C   UNL     1     -44.633  58.700 -51.199  1.00  0.00     0.019 A 
ENDROOT
BRANCH   4   7
HETATM    7  N   UNL     1     -47.154  61.332 -51.736  1.00  0.00    -0.327 N 
HETATM    8  C   UNL     1     -47.181  62.700 -51.912  1.00  0.00     0.223 C 
HETATM    9  O   UNL     1     -46.297  63.389 -52.410  1.00  0.00    -0.273 OA
HETATM   10  H   UNL     1     -48.005  60.893 -51.380  1.00  0.00     0.169 HD
BRANCH   8  11
HETATM   11  C   UNL     1     -48.473  63.342 -51.435  1.00  0.00     0.128 C 
BRANCH  11  12
HETATM   12  C   UNL     1     -48.201  64.213 -50.220  1.00  0.00     0.158 C 
HETATM   13  S   UNL     1     -46.701  63.691 -49.332  1.00  0.00    -0.077 SA
HETATM   14  C   UNL     1     -47.512  63.935 -47.791  1.00  0.00     0.168 C 
HETATM   15  N   UNL     1     -48.792  64.111 -47.865  1.00  0.00    -0.189 NA
HETATM   16  C   UNL     1     -49.269  64.049 -49.150  1.00  0.00     0.260 C 
HETATM   17  O   UNL     1     -50.456  63.898 -49.427  1.00  0.00    -0.270 OA
BRANCH  14  18
HETATM   18  N   UNL     1     -46.775  63.987 -46.630  1.00  0.00    -0.360 N 
HETATM   19  C   UNL     1     -45.319  63.819 -46.583  1.00  0.00     0.125 C 
HETATM   20  C   UNL     1     -44.721  64.782 -45.558  1.00  0.00     0.020 C 
HETATM   21  C   UNL     1     -45.369  64.607 -44.187  1.00  0.00     0.003 C 
HETATM   22  C   UNL     1     -46.889  64.699 -44.290  1.00  0.00     0.020 C 
HETATM   23  C   UNL     1     -47.436  63.734 -45.342  1.00  0.00     0.125 C 
ENDBRANCH  14  18
ENDBRANCH  11  12
ENDBRANCH   8  11
ENDBRANCH   4   7
BRANCH   1  24
HETATM   24  C   UNL     1     -42.836  57.674 -52.557  1.00  0.00     0.256 C 
HETATM   25  N   UNL     1     -43.149  56.331 -52.455  1.00  0.00    -0.323 N 
HETATM   26  H   UNL     1     -44.107  56.082 -52.261  1.00  0.00     0.169 HD
HETATM   27  O   UNL     1     -41.724  58.147 -52.772  1.00  0.00    -0.267 OA
BRANCH  25  28
HETATM   28  C   UNL     1     -42.284  55.238 -52.691  1.00  0.00     0.035 A 
HETATM   29  C   UNL     1     -42.248  54.514 -53.882  1.00  0.00     0.030 A 
HETATM   30  C   UNL     1     -41.410  53.400 -54.016  1.00  0.00     0.010 A 
HETATM   31  C   UNL     1     -40.574  52.997 -52.969  1.00  0.00    -0.054 A 
HETATM   32  C   UNL     1     -40.600  53.735 -51.779  1.00  0.00     0.010 A 
HETATM   33  C   UNL     1     -41.448  54.841 -51.641  1.00  0.00     0.030 A 
BRANCH  31  34
HETATM   34  C   UNL     1     -39.688  51.767 -53.077  1.00  0.00     0.014 C 
HETATM   35  C   UNL     1     -39.586  51.082 -51.709  1.00  0.00     0.015 C 
BRANCH  34  36
HETATM   36  C   UNL     1     -40.143  50.752 -54.147  1.00  0.00     0.004 C 
HETATM   37  C   UNL     1     -39.525  49.372 -53.964  1.00  0.00     0.006 C 
ENDBRANCH  34  36
ENDBRANCH  31  34
ENDBRANCH  25  28
ENDBRANCH   1  24
TORSDOF 8
ENDMDL
MODEL 6
REMARK VINA RESULT:      -8.2      2.277      2.856
REMARK  8 active torsions:
REMARK  status: ('A' for Active; 'I' for Inactive)
REMARK    1  A    between atoms: C_2  and  C_3 
REMARK    2  A    between atoms: C_3  and  C_4 
REMARK    3  A    between atoms: C_7  and  N_8 
REMARK       I    between atoms: N_8  and  C_9 
REMARK    4  A    between atoms: C_9  and  C_10 
REMARK    5  A    between atoms: C_13  and  N_14 
REMARK       I    between atoms: N_14  and  C_15 
REMARK    6  A    between atoms: C_15  and  C_16 
REMARK    7  A    between atoms: C_16  and  C_17 
REMARK    8  A    between atoms: C_19  and  N_20 
ROOT
HETATM    1  C   UNL     1     -43.835  57.300 -53.507  1.00  0.00     0.032 A 
HETATM    2  C   UNL     1     -44.507  58.123 -54.419  1.00  0.00     0.019 A 
HETATM    3  C   UNL     1     -45.206  59.255 -53.971  1.00  0.00     0.030 A 
HETATM    4  C   UNL     1     -45.257  59.567 -52.613  1.00  0.00     0.034 A 
HETATM    5  C   UNL     1     -44.615  58.723 -51.700  1.00  0.00     0.030 A 
HETATM    6  C   UNL     1     -43.911  57.600 -52.142  1.00  0.00     0.019 A 
ENDROOT
BRANCH   4   7
HETATM    7  N   UNL     1     -45.912  60.691 -52.076  1.00  0.00    -0.327 N 
HETATM    8  C   UNL     1     -45.387  61.941 -51.818  1.00  0.00     0.223 C 
HETATM    9  O   UNL     1     -44.242  62.312 -52.052  1.00  0.00    -0.273 OA
HETATM   10  H   UNL     1     -46.911  60.563 -51.899  1.00  0.00     0.169 HD
BRANCH   8  11
HETATM   11  C   UNL     1     -46.391  62.899 -51.201  1.00  0.00     0.128 C 
BRANCH  11  12
HETATM   12  C   UNL     1     -45.828  63.482 -49.916  1.00  0.00     0.158 C 
HETATM   13  S   UNL     1     -45.194  62.189 -48.803  1.00  0.00    -0.077 SA
HETATM   14  C   UNL     1     -45.898  63.015 -47.420  1.00  0.00     0.168 C 
HETATM   15  N   UNL     1     -46.727  63.965 -47.710  1.00  0.00    -0.189 NA
HETATM   16  C   UNL     1     -46.909  64.125 -49.060  1.00  0.00     0.260 C 
HETATM   17  O   UNL     1     -47.846  64.751 -49.549  1.00  0.00    -0.270 OA
BRANCH  14  18
HETATM   18  N   UNL     1     -45.508  62.670 -46.146  1.00  0.00    -0.360 N 
HETATM   19  C   UNL     1     -45.351  61.285 -45.690  1.00  0.00     0.125 C 
HETATM   20  C   UNL     1     -44.134  61.178 -44.773  1.00  0.00     0.020 C 
HETATM   21  C   UNL     1     -44.224  62.163 -43.611  1.00  0.00     0.003 C 
HETATM   22  C   UNL     1     -44.477  63.580 -44.120  1.00  0.00     0.020 C 
HETATM   23  C   UNL     1     -45.689  63.631 -45.049  1.00  0.00     0.125 C 
ENDBRANCH  14  18
ENDBRANCH  11  12
ENDBRANCH   8  11
ENDBRANCH   4   7
BRANCH   1  24
HETATM   24  C   UNL     1     -43.024  56.109 -53.908  1.00  0.00     0.256 C 
HETATM   25  N   UNL     1     -42.060  55.700 -53.005  1.00  0.00    -0.323 N 
HETATM   26  H   UNL     1     -41.932  56.249 -52.168  1.00  0.00     0.169 HD
HETATM   27  O   UNL     1     -43.296  55.568 -54.975  1.00  0.00    -0.267 OA
BRANCH  25  28
HETATM   28  C   UNL     1     -41.280  54.523 -53.070  1.00  0.00     0.035 A 
HETATM   29  C   UNL     1     -40.664  54.058 -54.231  1.00  0.00     0.030 A 
HETATM   30  C   UNL     1     -39.963  52.846 -54.231  1.00  0.00     0.010 A 
HETATM   31  C   UNL     1     -39.843  52.082 -53.065  1.00  0.00    -0.054 A 
HETATM   32  C   UNL     1     -40.449  52.559 -51.896  1.00  0.00     0.010 A 
HETATM   33  C   UNL     1     -41.162  53.764 -51.900  1.00  0.00     0.030 A 
BRANCH  31  34
HETATM   34  C   UNL     1     -39.123  50.743 -53.052  1.00  0.00     0.014 C 
HETATM   35  C   UNL     1     -39.428  50.006 -51.743  1.00  0.00     0.015 C 
BRANCH  34  36
HETATM   36  C   UNL     1     -39.447  49.840 -54.259  1.00  0.00     0.004 C 
HETATM   37  C   UNL     1     -40.930  49.815 -54.607  1.00  0.00     0.006 C 
ENDBRANCH  34  36
ENDBRANCH  31  34
ENDBRANCH  25  28
ENDBRANCH   1  24
TORSDOF 8
ENDMDL
MODEL 7
REMARK VINA RESULT:      -8.0      4.287      6.243
REMARK  8 active torsions:
REMARK  status: ('A' for Active; 'I' for Inactive)
REMARK    1  A    between atoms: C_2  and  C_3 
REMARK    2  A    between atoms: C_3  and  C_4 
REMARK    3  A    between atoms: C_7  and  N_8 
REMARK       I    between atoms: N_8  and  C_9 
REMARK    4  A    between atoms: C_9  and  C_10 
REMARK    5  A    between atoms: C_13  and  N_14 
REMARK       I    between atoms: N_14  and  C_15 
REMARK    6  A    between atoms: C_15  and  C_16 
REMARK    7  A    between atoms: C_16  and  C_17 
REMARK    8  A    between atoms: C_19  and  N_20 
ROOT
HETATM    1  C   UNL     1     -43.514  57.701 -52.303  1.00  0.00     0.032 A 
HETATM    2  C   UNL     1     -44.657  58.289 -52.859  1.00  0.00     0.019 A 
HETATM    3  C   UNL     1     -45.007  59.608 -52.529  1.00  0.00     0.030 A 
HETATM    4  C   UNL     1     -44.235  60.344 -51.631  1.00  0.00     0.034 A 
HETATM    5  C   UNL     1     -43.115  59.742 -51.049  1.00  0.00     0.030 A 
HETATM    6  C   UNL     1     -42.757  58.433 -51.381  1.00  0.00     0.019 A 
ENDROOT
BRANCH   4   7
HETATM    7  N   UNL     1     -44.497  61.677 -51.260  1.00  0.00    -0.327 N 
HETATM    8  C   UNL     1     -45.588  62.172 -50.575  1.00  0.00     0.223 C 
HETATM    9  O   UNL     1     -46.524  61.519 -50.126  1.00  0.00    -0.273 OA
HETATM   10  H   UNL     1     -43.758  62.342 -51.497  1.00  0.00     0.169 HD
BRANCH   8  11
HETATM   11  C   UNL     1     -45.545  63.678 -50.384  1.00  0.00     0.128 C 
BRANCH  11  12
HETATM   12  C   UNL     1     -46.605  64.341 -51.248  1.00  0.00     0.158 C 
HETATM   13  S   UNL     1     -48.287  63.977 -50.658  1.00  0.00    -0.077 SA
HETATM   14  C   UNL     1     -48.834  63.756 -52.314  1.00  0.00     0.168 C 
HETATM   15  N   UNL     1     -47.893  63.678 -53.199  1.00  0.00    -0.189 NA
HETATM   16  C   UNL     1     -46.636  63.764 -52.654  1.00  0.00     0.260 C 
HETATM   17  O   UNL     1     -45.615  63.429 -53.249  1.00  0.00    -0.270 OA
BRANCH  14  18
HETATM   18  N   UNL     1     -50.182  63.736 -52.593  1.00  0.00    -0.360 N 
HETATM   19  C   UNL     1     -50.814  64.581 -53.611  1.00  0.00     0.125 C 
HETATM   20  C   UNL     1     -51.898  63.789 -54.340  1.00  0.00     0.020 C 
HETATM   21  C   UNL     1     -52.912  63.204 -53.361  1.00  0.00     0.003 C 
HETATM   22  C   UNL     1     -52.211  62.406 -52.266  1.00  0.00     0.020 C 
HETATM   23  C   UNL     1     -51.122  63.233 -51.583  1.00  0.00     0.125 C 
ENDBRANCH  14  18
ENDBRANCH  11  12
ENDBRANCH   8  11
ENDBRANCH   4   7
BRANCH   1  24
HETATM   24  C   UNL     1     -43.043  56.323 -52.644  1.00  0.00     0.256 C 
HETATM   25  N   UNL     1     -41.758  56.005 -52.243  1.00  0.00    -0.323 N 
HETATM   26  H   UNL     1     -41.211  56.725 -51.795  1.00  0.00     0.169 HD
HETATM   27  O   UNL     1     -43.832  55.576 -53.213  1.00  0.00    -0.267 OA
BRANCH  25  28
HETATM   28  C   UNL     1     -41.141  54.735 -52.299  1.00  0.00     0.035 A 
HETATM   29  C   UNL     1     -40.740  54.114 -53.481  1.00  0.00     0.030 A 
HETATM   30  C   UNL     1     -40.196  52.824 -53.460  1.00  0.00     0.010 A 
HETATM   31  C   UNL     1     -40.021  52.133 -52.256  1.00  0.00    -0.054 A 
HETATM   32  C   UNL     1     -40.409  52.766 -51.068  1.00  0.00     0.010 A 
HETATM   33  C   UNL     1     -40.966  54.051 -51.091  1.00  0.00     0.030 A 
BRANCH  31  34
HETATM   34  C   UNL     1     -39.471  50.717 -52.214  1.00  0.00     0.014 C 
HETATM   35  C   UNL     1     -39.661  50.131 -50.810  1.00  0.00     0.015 C 
BRANCH  34  36
HETATM   36  C   UNL     1     -40.080  49.772 -53.270  1.00  0.00     0.004 C 
HETATM   37  C   UNL     1     -39.380  49.854 -54.621  1.00  0.00     0.006 C 
ENDBRANCH  34  36
ENDBRANCH  31  34
ENDBRANCH  25  28
ENDBRANCH   1  24
TORSDOF 8
ENDMDL
MODEL 8
REMARK VINA RESULT:      -8.0      8.361      9.766
REMARK  8 active torsions:
REMARK  status: ('A' for Active; 'I' for Inactive)
REMARK    1  A    between atoms: C_2  and  C_3 
REMARK    2  A    between atoms: C_3  and  C_4 
REMARK    3  A    between atoms: C_7  and  N_8 
REMARK       I    between atoms: N_8  and  C_9 
REMARK    4  A    between atoms: C_9  and  C_10 
REMARK    5  A    between atoms: C_13  and  N_14 
REMARK       I    between atoms: N_14  and  C_15 
REMARK    6  A    between atoms: C_15  and  C_16 
REMARK    7  A    between atoms: C_16  and  C_17 
REMARK    8  A    between atoms: C_19  and  N_20 
ROOT
HETATM    1  C   UNL     1     -44.781  57.378 -58.264  1.00  0.00     0.032 A 
HETATM    2  C   UNL     1     -45.136  57.510 -59.612  1.00  0.00     0.019 A 
HETATM    3  C   UNL     1     -46.201  58.346 -59.985  1.00  0.00     0.030 A 
HETATM    4  C   UNL     1     -46.930  59.041 -59.021  1.00  0.00     0.034 A 
HETATM    5  C   UNL     1     -46.596  58.878 -57.672  1.00  0.00     0.030 A 
HETATM    6  C   UNL     1     -45.531  58.055 -57.297  1.00  0.00     0.019 A 
ENDROOT
BRANCH   4   7
HETATM    7  N   UNL     1     -47.996  59.917 -59.303  1.00  0.00    -0.327 N 
HETATM    8  C   UNL     1     -47.999  61.296 -59.259  1.00  0.00     0.223 C 
HETATM    9  O   UNL     1     -47.043  62.019 -58.999  1.00  0.00    -0.273 OA
HETATM   10  H   UNL     1     -48.855  59.461 -59.618  1.00  0.00     0.169 HD
BRANCH   8  11
HETATM   11  C   UNL     1     -49.349  61.905 -59.596  1.00  0.00     0.128 C 
BRANCH  11  12
HETATM   12  C   UNL     1     -49.831  62.767 -58.441  1.00  0.00     0.158 C 
HETATM   13  S   UNL     1     -50.034  61.802 -56.912  1.00  0.00    -0.077 SA
HETATM   14  C   UNL     1     -51.532  62.652 -56.557  1.00  0.00     0.168 C 
HETATM   15  N   UNL     1     -52.005  63.361 -57.531  1.00  0.00    -0.189 NA
HETATM   16  C   UNL     1     -51.242  63.288 -58.669  1.00  0.00     0.260 C 
HETATM   17  O   UNL     1     -51.643  63.632 -59.778  1.00  0.00    -0.270 OA
BRANCH  14  18
HETATM   18  N   UNL     1     -52.079  62.579 -55.297  1.00  0.00    -0.360 N 
HETATM   19  C   UNL     1     -51.958  61.406 -54.425  1.00  0.00     0.125 C 
HETATM   20  C   UNL     1     -51.757  61.855 -52.979  1.00  0.00     0.020 C 
HETATM   21  C   UNL     1     -52.870  62.799 -52.530  1.00  0.00     0.003 C 
HETATM   22  C   UNL     1     -53.025  63.958 -53.510  1.00  0.00     0.020 C 
HETATM   23  C   UNL     1     -53.201  63.458 -54.943  1.00  0.00     0.125 C 
ENDBRANCH  14  18
ENDBRANCH  11  12
ENDBRANCH   8  11
ENDBRANCH   4   7
BRANCH   1  24
HETATM   24  C   UNL     1     -43.627  56.552 -57.790  1.00  0.00     0.256 C 
HETATM   25  N   UNL     1     -43.589  56.287 -56.433  1.00  0.00    -0.323 N 
HETATM   26  H   UNL     1     -44.302  56.699 -55.850  1.00  0.00     0.169 HD
HETATM   27  O   UNL     1     -42.833  56.146 -58.632  1.00  0.00    -0.267 OA
BRANCH  25  28
HETATM   28  C   UNL     1     -42.707  55.409 -55.764  1.00  0.00     0.035 A 
HETATM   29  C   UNL     1     -41.373  55.704 -55.487  1.00  0.00     0.030 A 
HETATM   30  C   UNL     1     -40.543  54.754 -54.879  1.00  0.00     0.010 A 
HETATM   31  C   UNL     1     -41.032  53.494 -54.516  1.00  0.00    -0.054 A 
HETATM   32  C   UNL     1     -42.377  53.206 -54.780  1.00  0.00     0.010 A 
HETATM   33  C   UNL     1     -43.203  54.152 -55.401  1.00  0.00     0.030 A 
BRANCH  31  34
HETATM   34  C   UNL     1     -40.139  52.434 -53.894  1.00  0.00     0.014 C 
HETATM   35  C   UNL     1     -40.085  52.631 -52.374  1.00  0.00     0.015 C 
BRANCH  34  36
HETATM   36  C   UNL     1     -40.552  50.985 -54.227  1.00  0.00     0.004 C 
HETATM   37  C   UNL     1     -39.363  50.047 -54.392  1.00  0.00     0.006 C 
ENDBRANCH  34  36
ENDBRANCH  31  34
ENDBRANCH  25  28
ENDBRANCH   1  24
TORSDOF 8
ENDMDL
MODEL 9
REMARK VINA RESULT:      -7.9      1.953      2.477
REMARK  8 active torsions:
REMARK  status: ('A' for Active; 'I' for Inactive)
REMARK    1  A    between atoms: C_2  and  C_3 
REMARK    2  A    between atoms: C_3  and  C_4 
REMARK    3  A    between atoms: C_7  and  N_8 
REMARK       I    between atoms: N_8  and  C_9 
REMARK    4  A    between atoms: C_9  and  C_10 
REMARK    5  A    between atoms: C_13  and  N_14 
REMARK       I    between atoms: N_14  and  C_15 
REMARK    6  A    between atoms: C_15  and  C_16 
REMARK    7  A    between atoms: C_16  and  C_17 
REMARK    8  A    between atoms: C_19  and  N_20 
ROOT
HETATM    1  C   UNL     1     -42.020  58.736 -51.205  1.00  0.00     0.032 A 
HETATM    2  C   UNL     1     -41.655  59.862 -50.456  1.00  0.00     0.019 A 
HETATM    3  C   UNL     1     -42.506  60.976 -50.391  1.00  0.00     0.030 A 
HETATM    4  C   UNL     1     -43.717  60.986 -51.083  1.00  0.00     0.034 A 
HETATM    5  C   UNL     1     -44.062  59.875 -51.859  1.00  0.00     0.030 A 
HETATM    6  C   UNL     1     -43.222  58.760 -51.920  1.00  0.00     0.019 A 
ENDROOT
BRANCH   4   7
HETATM    7  N   UNL     1     -44.643  62.047 -51.057  1.00  0.00    -0.327 N 
HETATM    8  C   UNL     1     -44.395  63.396 -51.206  1.00  0.00     0.223 C 
HETATM    9  O   UNL     1     -43.308  63.918 -51.431  1.00  0.00    -0.273 OA
HETATM   10  H   UNL     1     -45.619  61.763 -50.955  1.00  0.00     0.169 HD
BRANCH   8  11
HETATM   11  C   UNL     1     -45.644  64.253 -51.084  1.00  0.00     0.128 C 
BRANCH  11  12
HETATM   12  C   UNL     1     -46.231  64.119 -49.690  1.00  0.00     0.158 C 
HETATM   13  S   UNL     1     -44.941  64.112 -48.407  1.00  0.00    -0.077 SA
HETATM   14  C   UNL     1     -45.781  62.828 -47.548  1.00  0.00     0.168 C 
HETATM   15  N   UNL     1     -46.735  62.258 -48.210  1.00  0.00    -0.189 NA
HETATM   16  C   UNL     1     -46.888  62.763 -49.477  1.00  0.00     0.260 C 
HETATM   17  O   UNL     1     -47.517  62.193 -50.364  1.00  0.00    -0.270 OA
BRANCH  14  18
HETATM   18  N   UNL     1     -45.442  62.539 -46.246  1.00  0.00    -0.360 N 
HETATM   19  C   UNL     1     -45.258  61.177 -45.737  1.00  0.00     0.125 C 
HETATM   20  C   UNL     1     -44.084  61.144 -44.760  1.00  0.00     0.020 C 
HETATM   21  C   UNL     1     -44.266  62.162 -43.638  1.00  0.00     0.003 C 
HETATM   22  C   UNL     1     -44.543  63.551 -44.206  1.00  0.00     0.020 C 
HETATM   23  C   UNL     1     -45.710  63.528 -45.193  1.00  0.00     0.125 C 
ENDBRANCH  14  18
ENDBRANCH  11  12
ENDBRANCH   8  11
ENDBRANCH   4   7
BRANCH   1  24
HETATM   24  C   UNL     1     -41.196  57.490 -51.282  1.00  0.00     0.256 C 
HETATM   25  N   UNL     1     -41.762  56.430 -51.965  1.00  0.00    -0.323 N 
HETATM   26  H   UNL     1     -42.699  56.544 -52.322  1.00  0.00     0.169 HD
HETATM   27  O   UNL     1     -40.080  57.513 -50.772  1.00  0.00    -0.267 OA
BRANCH  25  28
HETATM   28  C   UNL     1     -41.135  55.213 -52.315  1.00  0.00     0.035 A 
HETATM   29  C   UNL     1     -40.870  54.820 -53.626  1.00  0.00     0.030 A 
HETATM   30  C   UNL     1     -40.304  53.567 -53.895  1.00  0.00     0.010 A 
HETATM   31  C   UNL     1     -39.972  52.687 -52.859  1.00  0.00    -0.054 A 
HETATM   32  C   UNL     1     -40.224  53.091 -51.542  1.00  0.00     0.010 A 
HETATM   33  C   UNL     1     -40.802  54.338 -51.274  1.00  0.00     0.030 A 
BRANCH  31  34
HETATM   34  C   UNL     1     -39.397  51.307 -53.131  1.00  0.00     0.014 C 
HETATM   35  C   UNL     1     -39.746  50.366 -51.972  1.00  0.00     0.015 C 
BRANCH  34  36
HETATM   36  C   UNL     1     -39.844  50.689 -54.472  1.00  0.00     0.004 C 
HETATM   37  C   UNL     1     -41.241  50.084 -54.415  1.00  0.00     0.006 C 
ENDBRANCH  34  36
ENDBRANCH  31  34
ENDBRANCH  25  28
ENDBRANCH   1  24
TORSDOF 8
ENDMDL
MODEL 10
REMARK VINA RESULT:      -7.8      3.023     12.497
REMARK  8 active torsions:
REMARK  status: ('A' for Active; 'I' for Inactive)
REMARK    1  A    between atoms: C_2  and  C_3 
REMARK    2  A    between atoms: C_3  and  C_4 
REMARK    3  A    between atoms: C_7  and  N_8 
REMARK       I    between atoms: N_8  and  C_9 
REMARK    4  A    between atoms: C_9  and  C_10 
REMARK    5  A    between atoms: C_13  and  N_14 
REMARK       I    between atoms: N_14  and  C_15 
REMARK    6  A    between atoms: C_15  and  C_16 
REMARK    7  A    between atoms: C_16  and  C_17 
REMARK    8  A    between atoms: C_19  and  N_20 
ROOT
HETATM    1  C   UNL     1     -44.635  62.734 -48.342  1.00  0.00     0.032 A 
HETATM    2  C   UNL     1     -44.944  61.376 -48.490  1.00  0.00     0.019 A 
HETATM    3  C   UNL     1     -44.781  60.744 -49.732  1.00  0.00     0.030 A 
HETATM    4  C   UNL     1     -44.327  61.460 -50.840  1.00  0.00     0.034 A 
HETATM    5  C   UNL     1     -44.054  62.824 -50.698  1.00  0.00     0.030 A 
HETATM    6  C   UNL     1     -44.206  63.456 -49.461  1.00  0.00     0.019 A 
ENDROOT
BRANCH   4   7
HETATM    7  N   UNL     1     -44.112  60.905 -52.116  1.00  0.00    -0.327 N 
HETATM    8  C   UNL     1     -45.041  60.345 -52.968  1.00  0.00     0.223 C 
HETATM    9  O   UNL     1     -46.250  60.264 -52.777  1.00  0.00    -0.273 OA
HETATM   10  H   UNL     1     -43.151  60.970 -52.457  1.00  0.00     0.169 HD
BRANCH   8  11
HETATM   11  C   UNL     1     -44.433  59.814 -54.255  1.00  0.00     0.128 C 
BRANCH  11  12
HETATM   12  C   UNL     1     -44.551  58.300 -54.298  1.00  0.00     0.158 C 
HETATM   13  S   UNL     1     -43.277  57.491 -53.280  1.00  0.00    -0.077 SA
HETATM   14  C   UNL     1     -43.033  56.276 -54.528  1.00  0.00     0.168 C 
HETATM   15  N   UNL     1     -43.586  56.539 -55.668  1.00  0.00    -0.189 NA
HETATM   16  C   UNL     1     -44.244  57.743 -55.680  1.00  0.00     0.260 C 
HETATM   17  O   UNL     1     -44.584  58.320 -56.709  1.00  0.00    -0.270 OA
BRANCH  14  18
HETATM   18  N   UNL     1     -42.345  55.121 -54.233  1.00  0.00    -0.360 N 
HETATM   19  C   UNL     1     -41.707  54.273 -55.245  1.00  0.00     0.125 C 
HETATM   20  C   UNL     1     -40.375  53.748 -54.714  1.00  0.00     0.020 C 
HETATM   21  C   UNL     1     -40.553  53.025 -53.382  1.00  0.00     0.003 C 
HETATM   22  C   UNL     1     -41.299  53.905 -52.383  1.00  0.00     0.020 C 
HETATM   23  C   UNL     1     -42.613  54.423 -52.969  1.00  0.00     0.125 C 
ENDBRANCH  14  18
ENDBRANCH  11  12
ENDBRANCH   8  11
ENDBRANCH   4   7
BRANCH   1  24
HETATM   24  C   UNL     1     -44.729  63.467 -47.041  1.00  0.00     0.256 C 
HETATM   25  N   UNL     1     -45.002  62.694 -45.928  1.00  0.00    -0.323 N 
HETATM   26  H   UNL     1     -45.164  61.708 -46.065  1.00  0.00     0.169 HD
HETATM   27  O   UNL     1     -44.525  64.677 -47.054  1.00  0.00    -0.267 OA
BRANCH  25  28
HETATM   28  C   UNL     1     -44.983  63.113 -44.578  1.00  0.00     0.035 A 
HETATM   29  C   UNL     1     -44.076  62.648 -43.628  1.00  0.00     0.030 A 
HETATM   30  C   UNL     1     -44.164  63.061 -42.293  1.00  0.00     0.010 A 
HETATM   31  C   UNL     1     -45.149  63.965 -41.881  1.00  0.00    -0.054 A 
HETATM   32  C   UNL     1     -46.050  64.444 -42.841  1.00  0.00     0.010 A 
HETATM   33  C   UNL     1     -45.970  64.020 -44.173  1.00  0.00     0.030 A 
BRANCH  31  34
HETATM   34  C   UNL     1     -45.289  64.394 -40.430  1.00  0.00     0.014 C 
HETATM   35  C   UNL     1     -46.294  63.481 -39.717  1.00  0.00     0.015 C 
BRANCH  34  36
HETATM   36  C   UNL     1     -43.959  64.430 -39.650  1.00  0.00     0.004 C 
HETATM   37  C   UNL     1     -44.106  64.005 -38.195  1.00  0.00     0.006 C 
ENDBRANCH  34  36
ENDBRANCH  31  34
ENDBRANCH  25  28
ENDBRANCH   1  24
TORSDOF 8
ENDMDL
