MODEL 1
REMARK VINA RESULT:      -8.2      0.000      0.000
REMARK  10 active torsions:
REMARK  status: ('A' for Active; 'I' for Inactive)
REMARK    1  A    between atoms: C_2  and  C_3 
REMARK    2  A    between atoms: C_3  and  C_4 
REMARK    3  A    between atoms: N_7  and  C_9 
REMARK    4  A    between atoms: C_9  and  C_10 
REMARK    5  A    between atoms: C_11  and  O_12 
REMARK    6  A    between atoms: C_13  and  O_14 
REMARK    7  A    between atoms: O_14  and  C_15 
REMARK    8  A    between atoms: N_25  and  C_26 
REMARK    9  A    between atoms: C_26  and  C_27 
REMARK   10  A    between atoms: C_27  and  C_28 
ROOT
HETATM    1  C   UNL     1     -43.117  57.876 -53.296  1.00  0.00     0.026 C 
HETATM    2  C   UNL     1     -44.094  56.909 -53.998  1.00  0.00     0.035 C 
HETATM    3  C   UNL     1     -43.710  56.555 -55.425  1.00  0.00     0.235 C 
HETATM    4  N   UNL     1     -43.454  57.786 -56.247  1.00  0.00    -0.067 N 
HETATM    5  H   UNL     1     -44.376  58.201 -56.473  1.00  0.00     0.280 HD
HETATM    6  C   UNL     1     -42.621  58.861 -55.615  1.00  0.00     0.235 C 
HETATM    7  C   UNL     1     -43.033  59.135 -54.175  1.00  0.00     0.035 C 
ENDROOT
BRANCH   1   8
HETATM    8  C   UNL     1     -41.734  57.271 -52.861  1.00  0.00     0.119 A 
HETATM    9  N   UNL     1     -40.944  56.807 -53.977  1.00  0.00    -0.324 N 
HETATM   10  C   UNL     1     -40.686  55.454 -53.909  1.00  0.00     0.326 A 
HETATM   11  H   UNL     1     -40.257  57.362 -54.474  1.00  0.00     0.165 HD
HETATM   12  O   UNL     1     -39.994  54.899 -54.742  1.00  0.00    -0.247 OA
HETATM   13  N   UNL     1     -41.340  54.930 -52.841  1.00  0.00    -0.268 N 
HETATM   14  C   UNL     1     -41.963  55.928 -52.137  1.00  0.00     0.256 A 
HETATM   15  O   UNL     1     -42.636  55.791 -51.125  1.00  0.00    -0.270 OA
BRANCH   8  16
HETATM   16  C   UNL     1     -40.928  58.237 -51.965  1.00  0.00     0.037 C 
HETATM   17  C   UNL     1     -41.749  59.009 -50.934  1.00  0.00     0.008 C 
ENDBRANCH   8  16
BRANCH  13  18
HETATM   18  C   UNL     1     -41.450  53.528 -52.456  1.00  0.00     0.142 C 
BRANCH  18  19
HETATM   19  C   UNL     1     -40.168  52.845 -51.977  1.00  0.00     0.068 C 
BRANCH  19  20
HETATM   20  C   UNL     1     -39.945  51.547 -52.692  1.00  0.00     0.010 A 
HETATM   21  S   UNL     1     -40.015  51.472 -54.407  1.00  0.00    -0.085 SA
HETATM   22  C   UNL     1     -39.683  49.795 -54.334  1.00  0.00     0.166 A 
HETATM   23  N   UNL     1     -39.530  49.293 -53.130  1.00  0.00    -0.258 NA
HETATM   24  C   UNL     1     -39.669  50.289 -52.179  1.00  0.00     0.044 A 
HETATM   25  C   UNL     1     -39.518  49.918 -50.746  1.00  0.00     0.071 C 
ENDBRANCH  19  20
ENDBRANCH  18  19
ENDBRANCH  13  18
ENDBRANCH   1   8
BRANCH   4  26
HETATM   26  C   UNL     1     -42.884  57.419 -57.608  1.00  0.00     0.276 C 
BRANCH  26  27
HETATM   27  C   UNL     1     -43.831  56.673 -58.499  1.00  0.00     0.004 A 
HETATM   28  C   UNL     1     -44.967  57.299 -59.015  1.00  0.00     0.107 A 
HETATM   29  C   UNL     1     -45.769  56.664 -59.963  1.00  0.00     0.102 A 
HETATM   30  C   UNL     1     -45.506  55.354 -60.341  1.00  0.00     0.039 A 
HETATM   31  C   UNL     1     -44.398  54.697 -59.804  1.00  0.00     0.003 A 
HETATM   32  C   UNL     1     -43.555  55.357 -58.903  1.00  0.00     0.012 A 
BRANCH  28  33
HETATM   33  O   UNL     1     -45.298  58.553 -58.566  1.00  0.00    -0.357 OA
HETATM   34  H   UNL     1     -44.730  58.693 -57.775  1.00  0.00     0.218 HD
ENDBRANCH  28  33
BRANCH  29  35
HETATM   35  O   UNL     1     -46.833  57.338 -60.498  1.00  0.00    -0.349 OA
BRANCH  35  36
HETATM   36  C   UNL     1     -47.621  56.466 -61.327  1.00  0.00     0.171 C 
HETATM   37  C   UNL     1     -48.476  57.288 -62.270  1.00  0.00     0.034 C 
ENDBRANCH  35  36
ENDBRANCH  29  35
ENDBRANCH  26  27
ENDBRANCH   4  26
TORSDOF 10
ENDMDL
MODEL 2
REMARK VINA RESULT:      -8.0      3.853      8.017
REMARK  10 active torsions:
REMARK  status: ('A' for Active; 'I' for Inactive)
REMARK    1  A    between atoms: C_2  and  C_3 
REMARK    2  A    between atoms: C_3  and  C_4 
REMARK    3  A    between atoms: N_7  and  C_9 
REMARK    4  A    between atoms: C_9  and  C_10 
REMARK    5  A    between atoms: C_11  and  O_12 
REMARK    6  A    between atoms: C_13  and  O_14 
REMARK    7  A    between atoms: O_14  and  C_15 
REMARK    8  A    between atoms: N_25  and  C_26 
REMARK    9  A    between atoms: C_26  and  C_27 
REMARK   10  A    between atoms: C_27  and  C_28 
ROOT
HETATM    1  C   UNL     1     -41.031  59.235 -51.624  1.00  0.00     0.026 C 
HETATM    2  C   UNL     1     -40.774  58.552 -52.984  1.00  0.00     0.035 C 
HETATM    3  C   UNL     1     -41.462  57.207 -53.152  1.00  0.00     0.235 C 
HETATM    4  N   UNL     1     -41.164  56.290 -52.000  1.00  0.00    -0.067 N 
HETATM    5  H   UNL     1     -40.196  55.943 -52.126  1.00  0.00     0.280 HD
HETATM    6  C   UNL     1     -41.253  56.880 -50.624  1.00  0.00     0.235 C 
HETATM    7  C   UNL     1     -40.579  58.244 -50.538  1.00  0.00     0.035 C 
ENDROOT
BRANCH   1   8
HETATM    8  C   UNL     1     -42.462  59.849 -51.415  1.00  0.00     0.119 A 
HETATM    9  N   UNL     1     -43.417  58.893 -50.907  1.00  0.00    -0.324 N 
HETATM   10  C   UNL     1     -44.472  58.695 -51.774  1.00  0.00     0.326 A 
HETATM   11  H   UNL     1     -43.620  58.738 -49.926  1.00  0.00     0.165 HD
HETATM   12  O   UNL     1     -45.396  57.958 -51.488  1.00  0.00    -0.247 OA
HETATM   13  N   UNL     1     -44.249  59.401 -52.912  1.00  0.00    -0.268 N 
HETATM   14  C   UNL     1     -43.103  60.143 -52.788  1.00  0.00     0.256 A 
HETATM   15  O   UNL     1     -42.623  60.885 -53.633  1.00  0.00    -0.270 OA
BRANCH   8  16
HETATM   16  C   UNL     1     -42.430  61.127 -50.548  1.00  0.00     0.037 C 
HETATM   17  C   UNL     1     -43.748  61.481 -49.859  1.00  0.00     0.008 C 
ENDBRANCH   8  16
BRANCH  13  18
HETATM   18  C   UNL     1     -45.035  59.394 -54.140  1.00  0.00     0.142 C 
BRANCH  18  19
HETATM   19  C   UNL     1     -44.914  58.154 -55.027  1.00  0.00     0.068 C 
BRANCH  19  20
HETATM   20  C   UNL     1     -43.936  58.376 -56.141  1.00  0.00     0.010 A 
HETATM   21  S   UNL     1     -43.793  59.922 -56.880  1.00  0.00    -0.085 SA
HETATM   22  C   UNL     1     -42.587  59.297 -57.920  1.00  0.00     0.166 A 
HETATM   23  N   UNL     1     -42.291  58.027 -57.758  1.00  0.00    -0.258 NA
HETATM   24  C   UNL     1     -43.052  57.490 -56.734  1.00  0.00     0.044 A 
HETATM   25  C   UNL     1     -42.852  56.056 -56.389  1.00  0.00     0.071 C 
ENDBRANCH  19  20
ENDBRANCH  18  19
ENDBRANCH  13  18
ENDBRANCH   1   8
BRANCH   4  26
HETATM   26  C   UNL     1     -42.008  55.029 -52.080  1.00  0.00     0.276 C 
BRANCH  26  27
HETATM   27  C   UNL     1     -41.327  53.864 -52.734  1.00  0.00     0.004 A 
HETATM   28  C   UNL     1     -40.346  53.140 -52.055  1.00  0.00     0.107 A 
HETATM   29  C   UNL     1     -39.817  51.967 -52.593  1.00  0.00     0.102 A 
HETATM   30  C   UNL     1     -40.190  51.547 -53.864  1.00  0.00     0.039 A 
HETATM   31  C   UNL     1     -41.140  52.282 -54.575  1.00  0.00     0.003 A 
HETATM   32  C   UNL     1     -41.719  53.422 -54.007  1.00  0.00     0.012 A 
BRANCH  28  33
HETATM   33  O   UNL     1     -39.891  53.606 -50.847  1.00  0.00    -0.357 OA
HETATM   34  H   UNL     1     -39.257  52.920 -50.537  1.00  0.00     0.218 HD
ENDBRANCH  28  33
BRANCH  29  35
HETATM   35  O   UNL     1     -38.909  51.247 -51.866  1.00  0.00    -0.349 OA
BRANCH  35  36
HETATM   36  C   UNL     1     -39.464  49.979 -51.475  1.00  0.00     0.171 C 
HETATM   37  C   UNL     1     -40.132  50.107 -50.121  1.00  0.00     0.034 C 
ENDBRANCH  35  36
ENDBRANCH  29  35
ENDBRANCH  26  27
ENDBRANCH   4  26
TORSDOF 10
ENDMDL
MODEL 3
REMARK VINA RESULT:      -7.9      3.050      7.968
REMARK  10 active torsions:
REMARK  status: ('A' for Active; 'I' for Inactive)
REMARK    1  A    between atoms: C_2  and  C_3 
REMARK    2  A    between atoms: C_3  and  C_4 
REMARK    3  A    between atoms: N_7  and  C_9 
REMARK    4  A    between atoms: C_9  and  C_10 
REMARK    5  A    between atoms: C_11  and  O_12 
REMARK    6  A    between atoms: C_13  and  O_14 
REMARK    7  A    between atoms: O_14  and  C_15 
REMARK    8  A    between atoms: N_25  and  C_26 
REMARK    9  A    between atoms: C_26  and  C_27 
REMARK   10  A    between atoms: C_27  and  C_28 
ROOT
HETATM    1  C   UNL     1     -41.267  59.199 -52.528  1.00  0.00     0.026 C 
HETATM    2  C   UNL     1     -40.531  58.221 -53.468  1.00  0.00     0.035 C 
HETATM    3  C   UNL     1     -41.152  56.836 -53.545  1.00  0.00     0.235 C 
HETATM    4  N   UNL     1     -41.359  56.250 -52.178  1.00  0.00    -0.067 N 
HETATM    5  H   UNL     1     -40.432  55.943 -51.832  1.00  0.00     0.280 HD
HETATM    6  C   UNL     1     -41.950  57.152 -51.136  1.00  0.00     0.235 C 
HETATM    7  C   UNL     1     -41.310  58.534 -51.142  1.00  0.00     0.035 C 
ENDROOT
BRANCH   1   8
HETATM    8  C   UNL     1     -42.643  59.756 -53.045  1.00  0.00     0.119 A 
HETATM    9  N   UNL     1     -43.735  58.831 -52.850  1.00  0.00    -0.324 N 
HETATM   10  C   UNL     1     -44.318  58.451 -54.041  1.00  0.00     0.326 A 
HETATM   11  H   UNL     1     -44.340  58.809 -52.037  1.00  0.00     0.165 HD
HETATM   12  O   UNL     1     -45.284  57.712 -54.065  1.00  0.00    -0.247 OA
HETATM   13  N   UNL     1     -43.621  58.995 -55.070  1.00  0.00    -0.268 N 
HETATM   14  C   UNL     1     -42.630  59.811 -54.587  1.00  0.00     0.256 A 
HETATM   15  O   UNL     1     -41.826  60.448 -55.252  1.00  0.00    -0.270 OA
BRANCH   8  16
HETATM   16  C   UNL     1     -42.971  61.145 -52.457  1.00  0.00     0.037 C 
HETATM   17  C   UNL     1     -44.072  61.161 -51.397  1.00  0.00     0.008 C 
ENDBRANCH   8  16
BRANCH  13  18
HETATM   18  C   UNL     1     -43.805  58.767 -56.498  1.00  0.00     0.142 C 
BRANCH  18  19
HETATM   19  C   UNL     1     -43.773  57.312 -56.971  1.00  0.00     0.068 C 
BRANCH  19  20
HETATM   20  C   UNL     1     -43.067  57.185 -58.287  1.00  0.00     0.010 A 
HETATM   21  S   UNL     1     -41.933  58.376 -58.788  1.00  0.00    -0.085 SA
HETATM   22  C   UNL     1     -41.676  57.502 -60.236  1.00  0.00     0.166 A 
HETATM   23  N   UNL     1     -42.373  56.397 -60.371  1.00  0.00    -0.258 NA
HETATM   24  C   UNL     1     -43.169  56.199 -59.255  1.00  0.00     0.044 A 
HETATM   25  C   UNL     1     -44.030  54.987 -59.214  1.00  0.00     0.071 C 
ENDBRANCH  19  20
ENDBRANCH  18  19
ENDBRANCH  13  18
ENDBRANCH   1   8
BRANCH   4  26
HETATM   26  C   UNL     1     -42.155  54.958 -52.258  1.00  0.00     0.276 C 
BRANCH  26  27
HETATM   27  C   UNL     1     -41.401  53.796 -52.833  1.00  0.00     0.004 A 
HETATM   28  C   UNL     1     -40.424  53.139 -52.082  1.00  0.00     0.107 A 
HETATM   29  C   UNL     1     -39.827  51.968 -52.548  1.00  0.00     0.102 A 
HETATM   30  C   UNL     1     -40.125  51.484 -53.816  1.00  0.00     0.039 A 
HETATM   31  C   UNL     1     -41.069  52.151 -54.597  1.00  0.00     0.003 A 
HETATM   32  C   UNL     1     -41.717  53.289 -54.104  1.00  0.00     0.012 A 
BRANCH  28  33
HETATM   33  O   UNL     1     -40.043  53.670 -50.875  1.00  0.00    -0.357 OA
HETATM   34  H   UNL     1     -39.601  52.928 -50.404  1.00  0.00     0.218 HD
ENDBRANCH  28  33
BRANCH  29  35
HETATM   35  O   UNL     1     -38.927  51.315 -51.753  1.00  0.00    -0.349 OA
BRANCH  35  36
HETATM   36  C   UNL     1     -39.446  50.038 -51.341  1.00  0.00     0.171 C 
HETATM   37  C   UNL     1     -40.191  50.186 -50.029  1.00  0.00     0.034 C 
ENDBRANCH  35  36
ENDBRANCH  29  35
ENDBRANCH  26  27
ENDBRANCH   4  26
TORSDOF 10
ENDMDL
MODEL 4
REMARK VINA RESULT:      -7.7      1.778      2.516
REMARK  10 active torsions:
REMARK  status: ('A' for Active; 'I' for Inactive)
REMARK    1  A    between atoms: C_2  and  C_3 
REMARK    2  A    between atoms: C_3  and  C_4 
REMARK    3  A    between atoms: N_7  and  C_9 
REMARK    4  A    between atoms: C_9  and  C_10 
REMARK    5  A    between atoms: C_11  and  O_12 
REMARK    6  A    between atoms: C_13  and  O_14 
REMARK    7  A    between atoms: O_14  and  C_15 
REMARK    8  A    between atoms: N_25  and  C_26 
REMARK    9  A    between atoms: C_26  and  C_27 
REMARK   10  A    between atoms: C_27  and  C_28 
ROOT
HETATM    1  C   UNL     1     -43.954  57.241 -52.743  1.00  0.00     0.026 C 
HETATM    2  C   UNL     1     -44.599  56.767 -54.063  1.00  0.00     0.035 C 
HETATM    3  C   UNL     1     -43.901  57.264 -55.318  1.00  0.00     0.235 C 
HETATM    4  N   UNL     1     -43.715  58.754 -55.290  1.00  0.00    -0.067 N 
HETATM    5  H   UNL     1     -44.637  59.183 -55.491  1.00  0.00     0.280 HD
HETATM    6  C   UNL     1     -43.214  59.351 -54.008  1.00  0.00     0.235 C 
HETATM    7  C   UNL     1     -43.928  58.779 -52.791  1.00  0.00     0.035 C 
ENDROOT
BRANCH   1   8
HETATM    8  C   UNL     1     -42.592  56.562 -52.353  1.00  0.00     0.119 A 
HETATM    9  N   UNL     1     -41.516  56.896 -53.257  1.00  0.00    -0.324 N 
HETATM   10  C   UNL     1     -41.003  55.784 -53.892  1.00  0.00     0.326 A 
HETATM   11  H   UNL     1     -40.872  57.669 -53.134  1.00  0.00     0.165 HD
HETATM   12  O   UNL     1     -40.058  55.871 -54.654  1.00  0.00    -0.247 OA
HETATM   13  N   UNL     1     -41.736  54.696 -53.545  1.00  0.00    -0.268 N 
HETATM   14  C   UNL     1     -42.680  55.043 -52.614  1.00  0.00     0.256 A 
HETATM   15  O   UNL     1     -43.500  54.297 -52.098  1.00  0.00    -0.270 OA
BRANCH   8  16
HETATM   16  C   UNL     1     -42.199  56.837 -50.885  1.00  0.00     0.037 C 
HETATM   17  C   UNL     1     -40.968  56.082 -50.387  1.00  0.00     0.008 C 
ENDBRANCH   8  16
BRANCH  13  18
HETATM   18  C   UNL     1     -41.629  53.339 -54.067  1.00  0.00     0.142 C 
BRANCH  18  19
HETATM   19  C   UNL     1     -40.217  52.771 -54.220  1.00  0.00     0.068 C 
BRANCH  19  20
HETATM   20  C   UNL     1     -39.949  51.703 -53.203  1.00  0.00     0.010 A 
HETATM   21  S   UNL     1     -39.872  52.091 -51.530  1.00  0.00    -0.085 SA
HETATM   22  C   UNL     1     -39.557  50.447 -51.178  1.00  0.00     0.166 A 
HETATM   23  N   UNL     1     -39.501  49.638 -52.212  1.00  0.00    -0.258 NA
HETATM   24  C   UNL     1     -39.733  50.346 -53.379  1.00  0.00     0.044 A 
HETATM   25  C   UNL     1     -39.722  49.599 -54.666  1.00  0.00     0.071 C 
ENDBRANCH  19  20
ENDBRANCH  18  19
ENDBRANCH  13  18
ENDBRANCH   1   8
BRANCH   4  26
HETATM   26  C   UNL     1     -42.847  59.213 -56.450  1.00  0.00     0.276 C 
BRANCH  26  27
HETATM   27  C   UNL     1     -43.455  59.001 -57.805  1.00  0.00     0.004 A 
HETATM   28  C   UNL     1     -43.038  57.944 -58.615  1.00  0.00     0.107 A 
HETATM   29  C   UNL     1     -43.701  57.648 -59.806  1.00  0.00     0.102 A 
HETATM   30  C   UNL     1     -44.732  58.462 -60.258  1.00  0.00     0.039 A 
HETATM   31  C   UNL     1     -45.135  59.548 -59.480  1.00  0.00     0.003 A 
HETATM   32  C   UNL     1     -44.515  59.806 -58.253  1.00  0.00     0.012 A 
BRANCH  28  33
HETATM   33  O   UNL     1     -41.950  57.201 -58.232  1.00  0.00    -0.357 OA
HETATM   34  H   UNL     1     -41.643  56.764 -59.058  1.00  0.00     0.218 HD
ENDBRANCH  28  33
BRANCH  29  35
HETATM   35  O   UNL     1     -43.308  56.561 -60.538  1.00  0.00    -0.349 OA
BRANCH  35  36
HETATM   36  C   UNL     1     -44.025  55.385 -60.125  1.00  0.00     0.171 C 
HETATM   37  C   UNL     1     -44.995  54.967 -61.211  1.00  0.00     0.034 C 
ENDBRANCH  35  36
ENDBRANCH  29  35
ENDBRANCH  26  27
ENDBRANCH   4  26
TORSDOF 10
ENDMDL
MODEL 5
REMARK VINA RESULT:      -7.6      2.761      7.975
REMARK  10 active torsions:
REMARK  status: ('A' for Active; 'I' for Inactive)
REMARK    1  A    between atoms: C_2  and  C_3 
REMARK    2  A    between atoms: C_3  and  C_4 
REMARK    3  A    between atoms: N_7  and  C_9 
REMARK    4  A    between atoms: C_9  and  C_10 
REMARK    5  A    between atoms: C_11  and  O_12 
REMARK    6  A    between atoms: C_13  and  O_14 
REMARK    7  A    between atoms: O_14  and  C_15 
REMARK    8  A    between atoms: N_25  and  C_26 
REMARK    9  A    between atoms: C_26  and  C_27 
REMARK   10  A    between atoms: C_27  and  C_28 
ROOT
HETATM    1  C   UNL     1     -41.840  59.839 -53.328  1.00  0.00     0.026 C 
HETATM    2  C   UNL     1     -40.795  58.713 -53.478  1.00  0.00     0.035 C 
HETATM    3  C   UNL     1     -41.290  57.336 -53.067  1.00  0.00     0.235 C 
HETATM    4  N   UNL     1     -41.896  57.358 -51.693  1.00  0.00    -0.067 N 
HETATM    5  H   UNL     1     -41.115  57.409 -51.014  1.00  0.00     0.280 HD
HETATM    6  C   UNL     1     -42.833  58.487 -51.383  1.00  0.00     0.235 C 
HETATM    7  C   UNL     1     -42.293  59.830 -51.858  1.00  0.00     0.035 C 
ENDROOT
BRANCH   1   8
HETATM    8  C   UNL     1     -43.003  59.852 -54.385  1.00  0.00     0.119 A 
HETATM    9  N   UNL     1     -43.772  58.629 -54.393  1.00  0.00    -0.324 N 
HETATM   10  C   UNL     1     -43.711  57.981 -55.609  1.00  0.00     0.326 A 
HETATM   11  H   UNL     1     -44.612  58.467 -53.849  1.00  0.00     0.165 HD
HETATM   12  O   UNL     1     -44.337  56.958 -55.813  1.00  0.00    -0.247 OA
HETATM   13  N   UNL     1     -42.855  58.647 -56.425  1.00  0.00    -0.268 N 
HETATM   14  C   UNL     1     -42.407  59.787 -55.807  1.00  0.00     0.256 A 
HETATM   15  O   UNL     1     -41.626  60.605 -56.271  1.00  0.00    -0.270 OA
BRANCH   8  16
HETATM   16  C   UNL     1     -43.915  61.089 -54.237  1.00  0.00     0.037 C 
HETATM   17  C   UNL     1     -45.358  60.790 -53.833  1.00  0.00     0.008 C 
ENDBRANCH   8  16
BRANCH  13  18
HETATM   18  C   UNL     1     -42.396  58.258 -57.753  1.00  0.00     0.142 C 
BRANCH  18  19
HETATM   19  C   UNL     1     -43.379  58.459 -58.907  1.00  0.00     0.068 C 
BRANCH  19  20
HETATM   20  C   UNL     1     -44.008  57.162 -59.317  1.00  0.00     0.010 A 
HETATM   21  S   UNL     1     -43.038  55.765 -59.571  1.00  0.00    -0.085 SA
HETATM   22  C   UNL     1     -44.446  54.877 -59.968  1.00  0.00     0.166 A 
HETATM   23  N   UNL     1     -45.576  55.546 -59.929  1.00  0.00    -0.258 NA
HETATM   24  C   UNL     1     -45.339  56.856 -59.548  1.00  0.00     0.044 A 
HETATM   25  C   UNL     1     -46.504  57.775 -59.435  1.00  0.00     0.071 C 
ENDBRANCH  19  20
ENDBRANCH  18  19
ENDBRANCH  13  18
ENDBRANCH   1   8
BRANCH   4  26
HETATM   26  C   UNL     1     -42.561  56.029 -51.373  1.00  0.00     0.276 C 
BRANCH  26  27
HETATM   27  C   UNL     1     -41.643  54.844 -51.430  1.00  0.00     0.004 A 
HETATM   28  C   UNL     1     -41.673  53.972 -52.519  1.00  0.00     0.107 A 
HETATM   29  C   UNL     1     -40.724  52.959 -52.655  1.00  0.00     0.102 A 
HETATM   30  C   UNL     1     -39.784  52.739 -51.655  1.00  0.00     0.039 A 
HETATM   31  C   UNL     1     -39.766  53.576 -50.539  1.00  0.00     0.003 A 
HETATM   32  C   UNL     1     -40.676  54.633 -50.434  1.00  0.00     0.012 A 
BRANCH  28  33
HETATM   33  O   UNL     1     -42.665  54.113 -53.458  1.00  0.00    -0.357 OA
HETATM   34  H   UNL     1     -43.361  54.643 -53.008  1.00  0.00     0.218 HD
ENDBRANCH  28  33
BRANCH  29  35
HETATM   35  O   UNL     1     -40.743  52.169 -53.771  1.00  0.00    -0.349 OA
BRANCH  35  36
HETATM   36  C   UNL     1     -39.616  51.275 -53.780  1.00  0.00     0.171 C 
HETATM   37  C   UNL     1     -40.030  49.934 -54.352  1.00  0.00     0.034 C 
ENDBRANCH  35  36
ENDBRANCH  29  35
ENDBRANCH  26  27
ENDBRANCH   4  26
TORSDOF 10
ENDMDL
MODEL 6
REMARK VINA RESULT:      -7.6      2.934      8.362
REMARK  10 active torsions:
REMARK  status: ('A' for Active; 'I' for Inactive)
REMARK    1  A    between atoms: C_2  and  C_3 
REMARK    2  A    between atoms: C_3  and  C_4 
REMARK    3  A    between atoms: N_7  and  C_9 
REMARK    4  A    between atoms: C_9  and  C_10 
REMARK    5  A    between atoms: C_11  and  O_12 
REMARK    6  A    between atoms: C_13  and  O_14 
REMARK    7  A    between atoms: O_14  and  C_15 
REMARK    8  A    between atoms: N_25  and  C_26 
REMARK    9  A    between atoms: C_26  and  C_27 
REMARK   10  A    between atoms: C_27  and  C_28 
ROOT
HETATM    1  C   UNL     1     -42.572  58.678 -55.965  1.00  0.00     0.026 C 
HETATM    2  C   UNL     1     -42.455  57.298 -56.646  1.00  0.00     0.035 C 
HETATM    3  C   UNL     1     -43.018  56.144 -55.832  1.00  0.00     0.235 C 
HETATM    4  N   UNL     1     -42.457  56.130 -54.439  1.00  0.00    -0.067 N 
HETATM    5  H   UNL     1     -41.489  55.767 -54.501  1.00  0.00     0.280 HD
HETATM    6  C   UNL     1     -42.397  57.445 -53.719  1.00  0.00     0.235 C 
HETATM    7  C   UNL     1     -41.862  58.562 -54.605  1.00  0.00     0.035 C 
ENDROOT
BRANCH   1   8
HETATM    8  C   UNL     1     -44.011  59.307 -55.916  1.00  0.00     0.119 A 
HETATM    9  N   UNL     1     -45.058  58.317 -55.822  1.00  0.00    -0.324 N 
HETATM   10  C   UNL     1     -45.915  58.358 -56.903  1.00  0.00     0.326 A 
HETATM   11  H   UNL     1     -45.457  57.973 -54.957  1.00  0.00     0.165 HD
HETATM   12  O   UNL     1     -46.884  57.626 -56.969  1.00  0.00    -0.247 OA
HETATM   13  N   UNL     1     -45.459  59.272 -57.797  1.00  0.00    -0.268 N 
HETATM   14  C   UNL     1     -44.356  59.912 -57.293  1.00  0.00     0.256 A 
HETATM   15  O   UNL     1     -43.708  60.787 -57.849  1.00  0.00    -0.270 OA
BRANCH   8  16
HETATM   16  C   UNL     1     -44.146  60.374 -54.808  1.00  0.00     0.037 C 
HETATM   17  C   UNL     1     -45.175  60.061 -53.723  1.00  0.00     0.008 C 
ENDBRANCH   8  16
BRANCH  13  18
HETATM   18  C   UNL     1     -45.979  59.560 -59.128  1.00  0.00     0.142 C 
BRANCH  18  19
HETATM   19  C   UNL     1     -45.066  59.227 -60.309  1.00  0.00     0.068 C 
BRANCH  19  20
HETATM   20  C   UNL     1     -44.632  57.793 -60.273  1.00  0.00     0.010 A 
HETATM   21  S   UNL     1     -45.798  56.530 -60.241  1.00  0.00    -0.085 SA
HETATM   22  C   UNL     1     -44.530  55.381 -60.207  1.00  0.00     0.166 A 
HETATM   23  N   UNL     1     -43.311  55.870 -60.213  1.00  0.00    -0.258 NA
HETATM   24  C   UNL     1     -43.356  57.253 -60.260  1.00  0.00     0.044 A 
HETATM   25  C   UNL     1     -42.067  57.996 -60.285  1.00  0.00     0.071 C 
ENDBRANCH  19  20
ENDBRANCH  18  19
ENDBRANCH  13  18
ENDBRANCH   1   8
BRANCH   4  26
HETATM   26  C   UNL     1     -43.169  55.099 -53.579  1.00  0.00     0.276 C 
BRANCH  26  27
HETATM   27  C   UNL     1     -42.258  54.233 -52.762  1.00  0.00     0.004 A 
HETATM   28  C   UNL     1     -41.322  53.402 -53.379  1.00  0.00     0.107 A 
HETATM   29  C   UNL     1     -40.371  52.710 -52.630  1.00  0.00     0.102 A 
HETATM   30  C   UNL     1     -40.398  52.761 -51.241  1.00  0.00     0.039 A 
HETATM   31  C   UNL     1     -41.353  53.554 -50.605  1.00  0.00     0.003 A 
HETATM   32  C   UNL     1     -42.266  54.300 -51.359  1.00  0.00     0.012 A 
BRANCH  28  33
HETATM   33  O   UNL     1     -41.356  53.260 -54.744  1.00  0.00    -0.357 OA
HETATM   34  H   UNL     1     -41.799  52.394 -54.894  1.00  0.00     0.218 HD
ENDBRANCH  28  33
BRANCH  29  35
HETATM   35  O   UNL     1     -39.425  51.962 -53.276  1.00  0.00    -0.349 OA
BRANCH  35  36
HETATM   36  C   UNL     1     -39.713  50.559 -53.147  1.00  0.00     0.171 C 
HETATM   37  C   UNL     1     -39.790  49.923 -54.520  1.00  0.00     0.034 C 
ENDBRANCH  35  36
ENDBRANCH  29  35
ENDBRANCH  26  27
ENDBRANCH   4  26
TORSDOF 10
ENDMDL
MODEL 7
REMARK VINA RESULT:      -7.6      2.618      3.711
REMARK  10 active torsions:
REMARK  status: ('A' for Active; 'I' for Inactive)
REMARK    1  A    between atoms: C_2  and  C_3 
REMARK    2  A    between atoms: C_3  and  C_4 
REMARK    3  A    between atoms: N_7  and  C_9 
REMARK    4  A    between atoms: C_9  and  C_10 
REMARK    5  A    between atoms: C_11  and  O_12 
REMARK    6  A    between atoms: C_13  and  O_14 
REMARK    7  A    between atoms: O_14  and  C_15 
REMARK    8  A    between atoms: N_25  and  C_26 
REMARK    9  A    between atoms: C_26  and  C_27 
REMARK   10  A    between atoms: C_27  and  C_28 
ROOT
HETATM    1  C   UNL     1     -44.937  59.166 -53.100  1.00  0.00     0.026 C 
HETATM    2  C   UNL     1     -44.916  58.036 -54.150  1.00  0.00     0.035 C 
HETATM    3  C   UNL     1     -43.661  57.997 -55.007  1.00  0.00     0.235 C 
HETATM    4  N   UNL     1     -43.373  59.336 -55.621  1.00  0.00    -0.067 N 
HETATM    5  H   UNL     1     -44.043  59.467 -56.401  1.00  0.00     0.280 HD
HETATM    6  C   UNL     1     -43.490  60.533 -54.724  1.00  0.00     0.235 C 
HETATM    7  C   UNL     1     -44.748  60.486 -53.866  1.00  0.00     0.035 C 
ENDROOT
BRANCH   1   8
HETATM    8  C   UNL     1     -43.995  58.976 -51.856  1.00  0.00     0.119 A 
HETATM    9  N   UNL     1     -42.611  58.780 -52.221  1.00  0.00    -0.324 N 
HETATM   10  C   UNL     1     -42.128  57.557 -51.804  1.00  0.00     0.326 A 
HETATM   11  H   UNL     1     -41.923  59.519 -52.307  1.00  0.00     0.165 HD
HETATM   12  O   UNL     1     -40.967  57.241 -51.983  1.00  0.00    -0.247 OA
HETATM   13  N   UNL     1     -43.141  56.846 -51.246  1.00  0.00    -0.268 N 
HETATM   14  C   UNL     1     -44.280  57.609 -51.199  1.00  0.00     0.256 A 
HETATM   15  O   UNL     1     -45.366  57.264 -50.757  1.00  0.00    -0.270 OA
BRANCH   8  16
HETATM   16  C   UNL     1     -44.149  60.114 -50.825  1.00  0.00     0.037 C 
HETATM   17  C   UNL     1     -42.885  60.932 -50.562  1.00  0.00     0.008 C 
ENDBRANCH   8  16
BRANCH  13  18
HETATM   18  C   UNL     1     -43.117  55.465 -50.781  1.00  0.00     0.142 C 
BRANCH  18  19
HETATM   19  C   UNL     1     -43.521  54.392 -51.794  1.00  0.00     0.068 C 
BRANCH  19  20
HETATM   20  C   UNL     1     -42.357  53.982 -52.644  1.00  0.00     0.010 A 
HETATM   21  S   UNL     1     -40.885  53.468 -51.920  1.00  0.00    -0.085 SA
HETATM   22  C   UNL     1     -40.216  53.236 -53.477  1.00  0.00     0.166 A 
HETATM   23  N   UNL     1     -41.006  53.517 -54.489  1.00  0.00    -0.258 NA
HETATM   24  C   UNL     1     -42.240  53.938 -54.024  1.00  0.00     0.044 A 
HETATM   25  C   UNL     1     -43.282  54.294 -55.025  1.00  0.00     0.071 C 
ENDBRANCH  19  20
ENDBRANCH  18  19
ENDBRANCH  13  18
ENDBRANCH   1   8
BRANCH   4  26
HETATM   26  C   UNL     1     -42.019  59.335 -56.311  1.00  0.00     0.276 C 
BRANCH  26  27
HETATM   27  C   UNL     1     -42.080  59.200 -57.803  1.00  0.00     0.004 A 
HETATM   28  C   UNL     1     -42.183  57.943 -58.401  1.00  0.00     0.107 A 
HETATM   29  C   UNL     1     -42.394  57.816 -59.774  1.00  0.00     0.102 A 
HETATM   30  C   UNL     1     -42.409  58.941 -60.589  1.00  0.00     0.039 A 
HETATM   31  C   UNL     1     -42.265  60.204 -60.014  1.00  0.00     0.003 A 
HETATM   32  C   UNL     1     -42.120  60.336 -58.629  1.00  0.00     0.012 A 
BRANCH  28  33
HETATM   33  O   UNL     1     -42.061  56.822 -57.619  1.00  0.00    -0.357 OA
HETATM   34  H   UNL     1     -41.406  57.070 -56.928  1.00  0.00     0.218 HD
ENDBRANCH  28  33
BRANCH  29  35
HETATM   35  O   UNL     1     -42.562  56.570 -60.312  1.00  0.00    -0.349 OA
BRANCH  35  36
HETATM   36  C   UNL     1     -43.960  56.247 -60.419  1.00  0.00     0.171 C 
HETATM   37  C   UNL     1     -44.234  54.920 -59.743  1.00  0.00     0.034 C 
ENDBRANCH  35  36
ENDBRANCH  29  35
ENDBRANCH  26  27
ENDBRANCH   4  26
TORSDOF 10
ENDMDL
MODEL 8
REMARK VINA RESULT:      -7.5      4.078      6.440
REMARK  10 active torsions:
REMARK  status: ('A' for Active; 'I' for Inactive)
REMARK    1  A    between atoms: C_2  and  C_3 
REMARK    2  A    between atoms: C_3  and  C_4 
REMARK    3  A    between atoms: N_7  and  C_9 
REMARK    4  A    between atoms: C_9  and  C_10 
REMARK    5  A    between atoms: C_11  and  O_12 
REMARK    6  A    between atoms: C_13  and  O_14 
REMARK    7  A    between atoms: O_14  and  C_15 
REMARK    8  A    between atoms: N_25  and  C_26 
REMARK    9  A    between atoms: C_26  and  C_27 
REMARK   10  A    between atoms: C_27  and  C_28 
ROOT
HETATM    1  C   UNL     1     -41.900  57.114 -53.645  1.00  0.00     0.026 C 
HETATM    2  C   UNL     1     -40.687  57.996 -53.281  1.00  0.00     0.035 C 
HETATM    3  C   UNL     1     -41.047  59.326 -52.638  1.00  0.00     0.235 C 
HETATM    4  N   UNL     1     -42.060  60.076 -53.456  1.00  0.00    -0.067 N 
HETATM    5  H   UNL     1     -41.562  60.472 -54.273  1.00  0.00     0.280 HD
HETATM    6  C   UNL     1     -43.225  59.289 -53.980  1.00  0.00     0.235 C 
HETATM    7  C   UNL     1     -42.796  57.953 -54.572  1.00  0.00     0.035 C 
ENDROOT
BRANCH   1   8
HETATM    8  C   UNL     1     -42.642  56.425 -52.443  1.00  0.00     0.119 A 
HETATM    9  N   UNL     1     -42.067  56.755 -51.160  1.00  0.00    -0.324 N 
HETATM   10  C   UNL     1     -41.589  55.642 -50.499  1.00  0.00     0.326 A 
HETATM   11  H   UNL     1     -42.364  57.524 -50.570  1.00  0.00     0.165 HD
HETATM   12  O   UNL     1     -41.112  55.726 -49.383  1.00  0.00    -0.247 OA
HETATM   13  N   UNL     1     -41.718  54.558 -51.305  1.00  0.00    -0.268 N 
HETATM   14  C   UNL     1     -42.360  54.908 -52.465  1.00  0.00     0.256 A 
HETATM   15  O   UNL     1     -42.630  54.165 -53.397  1.00  0.00    -0.270 OA
BRANCH   8  16
HETATM   16  C   UNL     1     -44.163  56.692 -52.463  1.00  0.00     0.037 C 
HETATM   17  C   UNL     1     -44.723  57.363 -51.209  1.00  0.00     0.008 C 
ENDBRANCH   8  16
BRANCH  13  18
HETATM   18  C   UNL     1     -41.238  53.202 -51.067  1.00  0.00     0.142 C 
BRANCH  18  19
HETATM   19  C   UNL     1     -39.820  52.882 -51.541  1.00  0.00     0.068 C 
BRANCH  19  20
HETATM   20  C   UNL     1     -39.805  51.683 -52.440  1.00  0.00     0.010 A 
HETATM   21  S   UNL     1     -40.009  51.863 -54.138  1.00  0.00    -0.085 SA
HETATM   22  C   UNL     1     -39.874  50.167 -54.319  1.00  0.00     0.166 A 
HETATM   23  N   UNL     1     -39.693  49.484 -53.212  1.00  0.00    -0.258 NA
HETATM   24  C   UNL     1     -39.644  50.343 -52.128  1.00  0.00     0.044 A 
HETATM   25  C   UNL     1     -39.433  49.756 -50.777  1.00  0.00     0.071 C 
ENDBRANCH  19  20
ENDBRANCH  18  19
ENDBRANCH  13  18
ENDBRANCH   1   8
BRANCH   4  26
HETATM   26  C   UNL     1     -42.556  61.303 -52.710  1.00  0.00     0.276 C 
BRANCH  26  27
HETATM   27  C   UNL     1     -43.965  61.199 -52.207  1.00  0.00     0.004 A 
HETATM   28  C   UNL     1     -44.224  60.806 -50.893  1.00  0.00     0.107 A 
HETATM   29  C   UNL     1     -45.517  60.853 -50.372  1.00  0.00     0.102 A 
HETATM   30  C   UNL     1     -46.590  61.202 -51.183  1.00  0.00     0.039 A 
HETATM   31  C   UNL     1     -46.354  61.558 -52.511  1.00  0.00     0.003 A 
HETATM   32  C   UNL     1     -45.049  61.575 -53.016  1.00  0.00     0.012 A 
BRANCH  28  33
HETATM   33  O   UNL     1     -43.187  60.355 -50.116  1.00  0.00    -0.357 OA
HETATM   34  H   UNL     1     -43.035  59.430 -50.414  1.00  0.00     0.218 HD
ENDBRANCH  28  33
BRANCH  29  35
HETATM   35  O   UNL     1     -45.721  60.528 -49.059  1.00  0.00    -0.349 OA
BRANCH  35  36
HETATM   36  C   UNL     1     -46.122  61.686 -48.305  1.00  0.00     0.171 C 
HETATM   37  C   UNL     1     -44.911  62.318 -47.651  1.00  0.00     0.034 C 
ENDBRANCH  35  36
ENDBRANCH  29  35
ENDBRANCH  26  27
ENDBRANCH   4  26
TORSDOF 10
ENDMDL
MODEL 9
REMARK VINA RESULT:      -7.5      1.530      2.347
REMARK  10 active torsions:
REMARK  status: ('A' for Active; 'I' for Inactive)
REMARK    1  A    between atoms: C_2  and  C_3 
REMARK    2  A    between atoms: C_3  and  C_4 
REMARK    3  A    between atoms: N_7  and  C_9 
REMARK    4  A    between atoms: C_9  and  C_10 
REMARK    5  A    between atoms: C_11  and  O_12 
REMARK    6  A    between atoms: C_13  and  O_14 
REMARK    7  A    between atoms: O_14  and  C_15 
REMARK    8  A    between atoms: N_25  and  C_26 
REMARK    9  A    between atoms: C_26  and  C_27 
REMARK   10  A    between atoms: C_27  and  C_28 
ROOT
HETATM    1  C   UNL     1     -43.319  57.785 -51.379  1.00  0.00     0.026 C 
HETATM    2  C   UNL     1     -44.596  57.260 -52.071  1.00  0.00     0.035 C 
HETATM    3  C   UNL     1     -44.822  57.806 -53.471  1.00  0.00     0.235 C 
HETATM    4  N   UNL     1     -44.750  59.306 -53.494  1.00  0.00    -0.067 N 
HETATM    5  H   UNL     1     -45.632  59.662 -53.085  1.00  0.00     0.280 HD
HETATM    6  C   UNL     1     -43.619  59.942 -52.741  1.00  0.00     0.235 C 
HETATM    7  C   UNL     1     -43.423  59.319 -51.365  1.00  0.00     0.035 C 
ENDROOT
BRANCH   1   8
HETATM    8  C   UNL     1     -41.956  57.212 -51.912  1.00  0.00     0.119 A 
HETATM    9  N   UNL     1     -42.042  56.719 -53.266  1.00  0.00    -0.324 N 
HETATM   10  C   UNL     1     -41.756  55.372 -53.351  1.00  0.00     0.326 A 
HETATM   11  H   UNL     1     -41.844  57.264 -54.097  1.00  0.00     0.165 HD
HETATM   12  O   UNL     1     -41.734  54.796 -54.423  1.00  0.00    -0.247 OA
HETATM   13  N   UNL     1     -41.566  54.878 -52.101  1.00  0.00    -0.268 N 
HETATM   14  C   UNL     1     -41.631  55.892 -51.181  1.00  0.00     0.256 A 
HETATM   15  O   UNL     1     -41.504  55.783 -49.970  1.00  0.00    -0.270 OA
BRANCH   8  16
HETATM   16  C   UNL     1     -40.796  58.218 -51.752  1.00  0.00     0.037 C 
HETATM   17  C   UNL     1     -40.181  58.717 -53.059  1.00  0.00     0.008 C 
ENDBRANCH   8  16
BRANCH  13  18
HETATM   18  C   UNL     1     -41.362  53.489 -51.707  1.00  0.00     0.142 C 
BRANCH  18  19
HETATM   19  C   UNL     1     -39.928  52.959 -51.777  1.00  0.00     0.068 C 
BRANCH  19  20
HETATM   20  C   UNL     1     -39.857  51.689 -52.568  1.00  0.00     0.010 A 
HETATM   21  S   UNL     1     -40.013  51.717 -54.280  1.00  0.00    -0.085 SA
HETATM   22  C   UNL     1     -39.831  50.016 -54.310  1.00  0.00     0.166 A 
HETATM   23  N   UNL     1     -39.668  49.435 -53.143  1.00  0.00    -0.258 NA
HETATM   24  C   UNL     1     -39.673  50.385 -52.136  1.00  0.00     0.044 A 
HETATM   25  C   UNL     1     -39.490  49.922 -50.734  1.00  0.00     0.071 C 
ENDBRANCH  19  20
ENDBRANCH  18  19
ENDBRANCH  13  18
ENDBRANCH   1   8
BRANCH   4  26
HETATM   26  C   UNL     1     -44.781  59.828 -54.921  1.00  0.00     0.276 C 
BRANCH  26  27
HETATM   27  C   UNL     1     -44.189  58.897 -55.937  1.00  0.00     0.004 A 
HETATM   28  C   UNL     1     -45.010  58.165 -56.796  1.00  0.00     0.107 A 
HETATM   29  C   UNL     1     -44.470  57.416 -57.841  1.00  0.00     0.102 A 
HETATM   30  C   UNL     1     -43.093  57.309 -57.989  1.00  0.00     0.039 A 
HETATM   31  C   UNL     1     -42.255  58.001 -57.113  1.00  0.00     0.003 A 
HETATM   32  C   UNL     1     -42.798  58.805 -56.105  1.00  0.00     0.012 A 
BRANCH  28  33
HETATM   33  O   UNL     1     -46.367  58.178 -56.591  1.00  0.00    -0.357 OA
HETATM   34  H   UNL     1     -46.720  57.500 -57.211  1.00  0.00     0.218 HD
ENDBRANCH  28  33
BRANCH  29  35
HETATM   35  O   UNL     1     -45.310  56.770 -58.705  1.00  0.00    -0.349 OA
BRANCH  35  36
HETATM   36  C   UNL     1     -45.638  57.615 -59.823  1.00  0.00     0.171 C 
HETATM   37  C   UNL     1     -46.839  57.054 -60.556  1.00  0.00     0.034 C 
ENDBRANCH  35  36
ENDBRANCH  29  35
ENDBRANCH  26  27
ENDBRANCH   4  26
TORSDOF 10
ENDMDL
MODEL 10
REMARK VINA RESULT:      -7.3      1.886      3.085
REMARK  10 active torsions:
REMARK  status: ('A' for Active; 'I' for Inactive)
REMARK    1  A    between atoms: C_2  and  C_3 
REMARK    2  A    between atoms: C_3  and  C_4 
REMARK    3  A    between atoms: N_7  and  C_9 
REMARK    4  A    between atoms: C_9  and  C_10 
REMARK    5  A    between atoms: C_11  and  O_12 
REMARK    6  A    between atoms: C_13  and  O_14 
REMARK    7  A    between atoms: O_14  and  C_15 
REMARK    8  A    between atoms: N_25  and  C_26 
REMARK    9  A    between atoms: C_26  and  C_27 
REMARK   10  A    between atoms: C_27  and  C_28 
ROOT
HETATM    1  C   UNL     1     -40.909  57.881 -52.085  1.00  0.00     0.026 C 
HETATM    2  C   UNL     1     -41.199  59.397 -52.090  1.00  0.00     0.035 C 
HETATM    3  C   UNL     1     -42.307  59.822 -53.040  1.00  0.00     0.235 C 
HETATM    4  N   UNL     1     -42.076  59.292 -54.426  1.00  0.00    -0.067 N 
HETATM    5  H   UNL     1     -41.328  59.866 -54.854  1.00  0.00     0.280 HD
HETATM    6  C   UNL     1     -41.659  57.855 -54.542  1.00  0.00     0.235 C 
HETATM    7  C   UNL     1     -40.577  57.489 -53.535  1.00  0.00     0.035 C 
ENDROOT
BRANCH   1   8
HETATM    8  C   UNL     1     -41.978  56.972 -51.376  1.00  0.00     0.119 A 
HETATM    9  N   UNL     1     -41.684  56.740 -49.981  1.00  0.00    -0.324 N 
HETATM   10  C   UNL     1     -41.492  55.402 -49.703  1.00  0.00     0.326 A 
HETATM   11  H   UNL     1     -42.028  57.304 -49.212  1.00  0.00     0.165 HD
HETATM   12  O   UNL     1     -41.281  55.016 -48.569  1.00  0.00    -0.247 OA
HETATM   13  N   UNL     1     -41.543  54.696 -50.861  1.00  0.00    -0.268 N 
HETATM   14  C   UNL     1     -41.859  55.527 -51.905  1.00  0.00     0.256 A 
HETATM   15  O   UNL     1     -41.982  55.205 -53.078  1.00  0.00    -0.270 OA
BRANCH   8  16
HETATM   16  C   UNL     1     -43.416  57.501 -51.567  1.00  0.00     0.037 C 
HETATM   17  C   UNL     1     -44.505  56.703 -50.852  1.00  0.00     0.008 C 
ENDBRANCH   8  16
BRANCH  13  18
HETATM   18  C   UNL     1     -41.276  53.276 -51.058  1.00  0.00     0.142 C 
BRANCH  18  19
HETATM   19  C   UNL     1     -39.848  52.894 -51.449  1.00  0.00     0.068 C 
BRANCH  19  20
HETATM   20  C   UNL     1     -39.836  51.723 -52.385  1.00  0.00     0.010 A 
HETATM   21  S   UNL     1     -40.077  51.952 -54.072  1.00  0.00    -0.085 SA
HETATM   22  C   UNL     1     -39.924  50.265 -54.308  1.00  0.00     0.166 A 
HETATM   23  N   UNL     1     -39.712  49.550 -53.226  1.00  0.00    -0.258 NA
HETATM   24  C   UNL     1     -39.651  50.377 -52.117  1.00  0.00     0.044 A 
HETATM   25  C   UNL     1     -39.405  49.751 -50.789  1.00  0.00     0.071 C 
ENDBRANCH  19  20
ENDBRANCH  18  19
ENDBRANCH  13  18
ENDBRANCH   1   8
BRANCH   4  26
HETATM   26  C   UNL     1     -43.281  59.555 -55.314  1.00  0.00     0.276 C 
BRANCH  26  27
HETATM   27  C   UNL     1     -43.113  59.117 -56.738  1.00  0.00     0.004 A 
HETATM   28  C   UNL     1     -43.918  58.110 -57.274  1.00  0.00     0.107 A 
HETATM   29  C   UNL     1     -43.874  57.802 -58.633  1.00  0.00     0.102 A 
HETATM   30  C   UNL     1     -42.955  58.429 -59.466  1.00  0.00     0.039 A 
HETATM   31  C   UNL     1     -42.113  59.408 -58.939  1.00  0.00     0.003 A 
HETATM   32  C   UNL     1     -42.202  59.764 -57.589  1.00  0.00     0.012 A 
BRANCH  28  33
HETATM   33  O   UNL     1     -44.751  57.410 -56.438  1.00  0.00    -0.357 OA
HETATM   34  H   UNL     1     -45.493  58.028 -56.250  1.00  0.00     0.218 HD
ENDBRANCH  28  33
BRANCH  29  35
HETATM   35  O   UNL     1     -44.729  56.859 -59.133  1.00  0.00    -0.349 OA
BRANCH  35  36
HETATM   36  C   UNL     1     -44.086  56.083 -60.159  1.00  0.00     0.171 C 
HETATM   37  C   UNL     1     -44.611  54.662 -60.133  1.00  0.00     0.034 C 
ENDBRANCH  35  36
ENDBRANCH  29  35
ENDBRANCH  26  27
ENDBRANCH   4  26
TORSDOF 10
ENDMDL
