MODEL 1
REMARK VINA RESULT:      -8.8      0.000      0.000
REMARK  5 active torsions:
REMARK  status: ('A' for Active; 'I' for Inactive)
REMARK    1  A    between atoms: C_12  and  C_13 
REMARK    2  A    between atoms: C_13  and  N_14 
REMARK    3  A    between atoms: N_14  and  C_15 
REMARK    4  A    between atoms: C_17  and  O_18 
REMARK    5  A    between atoms: C_19  and  O_20 
ROOT
HETATM    1  C   UNL     1     -39.362  50.273 -54.275  1.00  0.00     0.048 C 
HETATM    2  C   UNL     1     -40.067  51.438 -53.645  1.00  0.00    -0.059 A 
HETATM    3  C   UNL     1     -40.948  52.229 -54.386  1.00  0.00     0.037 A 
HETATM    4  C   UNL     1     -41.572  53.323 -53.785  1.00  0.00     0.046 A 
HETATM    5  C   UNL     1     -41.330  53.657 -52.442  1.00  0.00    -0.003 A 
HETATM    6  C   UNL     1     -40.447  52.863 -51.687  1.00  0.00    -0.049 A 
HETATM    7  C   UNL     1     -40.139  53.153 -50.244  1.00  0.00     0.049 C 
HETATM    8  C   UNL     1     -39.820  51.764 -52.305  1.00  0.00     0.014 A 
HETATM    9  N   UNL     1     -42.459  54.100 -54.541  1.00  0.00    -0.322 N 
HETATM   10  C   UNL     1     -43.131  55.187 -54.055  1.00  0.00     0.253 A 
HETATM   11  O   UNL     1     -43.917  55.812 -54.759  1.00  0.00    -0.268 OA
HETATM   12  C   UNL     1     -42.864  55.569 -52.642  1.00  0.00     0.024 A 
HETATM   13  C   UNL     1     -42.011  54.840 -51.899  1.00  0.00     0.028 A 
HETATM   14  H   UNL     1     -42.650  53.859 -55.505  1.00  0.00     0.169 HD
ENDROOT
BRANCH  12  15
HETATM   15  C   UNL     1     -43.532  56.817 -52.142  1.00  0.00     0.136 C 
BRANCH  15  16
HETATM   16  N   UNL     1     -42.812  57.977 -52.663  1.00  0.00    -0.288 NA
HETATM   17  H   UNL     1     -42.615  57.870 -53.657  1.00  0.00     0.128 HD
BRANCH  16  18
HETATM   18  C   UNL     1     -41.673  58.440 -51.985  1.00  0.00     0.011 A 
HETATM   19  C   UNL     1     -40.491  58.613 -52.727  1.00  0.00     0.062 A 
HETATM   20  C   UNL     1     -39.349  59.134 -52.124  1.00  0.00     0.100 A 
HETATM   21  C   UNL     1     -39.371  59.512 -50.788  1.00  0.00     0.098 A 
HETATM   22  C   UNL     1     -40.531  59.392 -50.045  1.00  0.00     0.041 A 
HETATM   23  C   UNL     1     -41.683  58.873 -50.649  1.00  0.00     0.026 A 
BRANCH  20  24
HETATM   24  O   UNL     1     -38.178  59.299 -52.813  1.00  0.00    -0.358 OA
HETATM   25  H   UNL     1     -38.168  60.203 -53.172  1.00  0.00     0.218 HD
ENDBRANCH  20  24
BRANCH  21  26
HETATM   26  O   UNL     1     -38.249  60.021 -50.202  1.00  0.00    -0.358 OA
HETATM   27  H   UNL     1     -37.778  59.237 -49.857  1.00  0.00     0.218 HD
ENDBRANCH  21  26
ENDBRANCH  16  18
ENDBRANCH  15  16
ENDBRANCH  12  15
TORSDOF 5
ENDMDL
MODEL 2
REMARK VINA RESULT:      -8.2      2.790      4.298
REMARK  5 active torsions:
REMARK  status: ('A' for Active; 'I' for Inactive)
REMARK    1  A    between atoms: C_12  and  C_13 
REMARK    2  A    between atoms: C_13  and  N_14 
REMARK    3  A    between atoms: N_14  and  C_15 
REMARK    4  A    between atoms: C_17  and  O_18 
REMARK    5  A    between atoms: C_19  and  O_20 
ROOT
HETATM    1  C   UNL     1     -39.435  49.684 -53.790  1.00  0.00     0.048 C 
HETATM    2  C   UNL     1     -39.798  51.086 -53.400  1.00  0.00    -0.059 A 
HETATM    3  C   UNL     1     -39.835  51.472 -52.059  1.00  0.00     0.037 A 
HETATM    4  C   UNL     1     -40.200  52.775 -51.719  1.00  0.00     0.046 A 
HETATM    5  C   UNL     1     -40.541  53.719 -52.702  1.00  0.00    -0.003 A 
HETATM    6  C   UNL     1     -40.503  53.340 -54.057  1.00  0.00    -0.049 A 
HETATM    7  C   UNL     1     -40.851  54.293 -55.168  1.00  0.00     0.049 C 
HETATM    8  C   UNL     1     -40.136  52.022 -54.388  1.00  0.00     0.014 A 
HETATM    9  N   UNL     1     -40.223  53.144 -50.368  1.00  0.00    -0.322 N 
HETATM   10  C   UNL     1     -40.557  54.393 -49.922  1.00  0.00     0.253 A 
HETATM   11  O   UNL     1     -40.532  54.666 -48.726  1.00  0.00    -0.268 OA
HETATM   12  C   UNL     1     -40.948  55.396 -50.950  1.00  0.00     0.024 A 
HETATM   13  C   UNL     1     -40.938  55.060 -52.253  1.00  0.00     0.028 A 
HETATM   14  H   UNL     1     -39.967  52.476 -49.655  1.00  0.00     0.169 HD
ENDROOT
BRANCH  12  15
HETATM   15  C   UNL     1     -41.403  56.736 -50.449  1.00  0.00     0.136 C 
BRANCH  15  16
HETATM   16  N   UNL     1     -42.863  56.783 -50.494  1.00  0.00    -0.288 NA
HETATM   17  H   UNL     1     -43.264  55.850 -50.408  1.00  0.00     0.128 HD
BRANCH  16  18
HETATM   18  C   UNL     1     -43.495  57.494 -51.527  1.00  0.00     0.011 A 
HETATM   19  C   UNL     1     -44.062  56.757 -52.581  1.00  0.00     0.062 A 
HETATM   20  C   UNL     1     -44.761  57.401 -53.599  1.00  0.00     0.100 A 
HETATM   21  C   UNL     1     -44.928  58.780 -53.571  1.00  0.00     0.098 A 
HETATM   22  C   UNL     1     -44.416  59.527 -52.525  1.00  0.00     0.041 A 
HETATM   23  C   UNL     1     -43.717  58.880 -51.497  1.00  0.00     0.026 A 
BRANCH  20  24
HETATM   24  O   UNL     1     -45.311  56.715 -54.648  1.00  0.00    -0.358 OA
HETATM   25  H   UNL     1     -45.237  57.274 -55.441  1.00  0.00     0.218 HD
ENDBRANCH  20  24
BRANCH  21  26
HETATM   26  O   UNL     1     -45.613  59.407 -54.571  1.00  0.00    -0.358 OA
HETATM   27  H   UNL     1     -45.013  59.360 -55.341  1.00  0.00     0.218 HD
ENDBRANCH  21  26
ENDBRANCH  16  18
ENDBRANCH  15  16
ENDBRANCH  12  15
TORSDOF 5
ENDMDL
MODEL 3
REMARK VINA RESULT:      -8.2      2.560      3.401
REMARK  5 active torsions:
REMARK  status: ('A' for Active; 'I' for Inactive)
REMARK    1  A    between atoms: C_12  and  C_13 
REMARK    2  A    between atoms: C_13  and  N_14 
REMARK    3  A    between atoms: N_14  and  C_15 
REMARK    4  A    between atoms: C_17  and  O_18 
REMARK    5  A    between atoms: C_19  and  O_20 
ROOT
HETATM    1  C   UNL     1     -39.469  49.798 -53.979  1.00  0.00     0.048 C 
HETATM    2  C   UNL     1     -39.836  51.177 -53.515  1.00  0.00    -0.059 A 
HETATM    3  C   UNL     1     -39.828  51.504 -52.157  1.00  0.00     0.037 A 
HETATM    4  C   UNL     1     -40.198  52.785 -51.748  1.00  0.00     0.046 A 
HETATM    5  C   UNL     1     -40.590  53.765 -52.676  1.00  0.00    -0.003 A 
HETATM    6  C   UNL     1     -40.597  53.446 -54.047  1.00  0.00    -0.049 A 
HETATM    7  C   UNL     1     -41.001  54.440 -55.101  1.00  0.00     0.049 C 
HETATM    8  C   UNL     1     -40.225  52.149 -54.447  1.00  0.00     0.014 A 
HETATM    9  N   UNL     1     -40.175  53.096 -50.383  1.00  0.00    -0.322 N 
HETATM   10  C   UNL     1     -40.509  54.319 -49.870  1.00  0.00     0.253 A 
HETATM   11  O   UNL     1     -40.442  54.541 -48.666  1.00  0.00    -0.268 OA
HETATM   12  C   UNL     1     -40.952  55.359 -50.838  1.00  0.00     0.024 A 
HETATM   13  C   UNL     1     -40.988  55.079 -52.154  1.00  0.00     0.028 A 
HETATM   14  H   UNL     1     -39.882  52.402 -49.709  1.00  0.00     0.169 HD
ENDROOT
BRANCH  12  15
HETATM   15  C   UNL     1     -41.407  56.669 -50.263  1.00  0.00     0.136 C 
BRANCH  15  16
HETATM   16  N   UNL     1     -40.577  57.737 -50.814  1.00  0.00    -0.288 NA
HETATM   17  H   UNL     1     -39.938  58.106 -50.112  1.00  0.00     0.128 HD
BRANCH  16  18
HETATM   18  C   UNL     1     -41.189  58.788 -51.518  1.00  0.00     0.011 A 
HETATM   19  C   UNL     1     -40.990  58.852 -52.908  1.00  0.00     0.062 A 
HETATM   20  C   UNL     1     -41.626  59.830 -53.669  1.00  0.00     0.100 A 
HETATM   21  C   UNL     1     -42.485  60.739 -53.065  1.00  0.00     0.098 A 
HETATM   22  C   UNL     1     -42.732  60.675 -51.706  1.00  0.00     0.041 A 
HETATM   23  C   UNL     1     -42.098  59.689 -50.939  1.00  0.00     0.026 A 
BRANCH  20  24
HETATM   24  O   UNL     1     -41.441  59.931 -55.021  1.00  0.00    -0.358 OA
HETATM   25  H   UNL     1     -41.216  60.855 -55.223  1.00  0.00     0.218 HD
ENDBRANCH  20  24
BRANCH  21  26
HETATM   26  O   UNL     1     -43.106  61.697 -53.814  1.00  0.00    -0.358 OA
HETATM   27  H   UNL     1     -43.024  62.512 -53.281  1.00  0.00     0.218 HD
ENDBRANCH  21  26
ENDBRANCH  16  18
ENDBRANCH  15  16
ENDBRANCH  12  15
TORSDOF 5
ENDMDL
MODEL 4
REMARK VINA RESULT:      -8.1      3.608      6.417
REMARK  5 active torsions:
REMARK  status: ('A' for Active; 'I' for Inactive)
REMARK    1  A    between atoms: C_12  and  C_13 
REMARK    2  A    between atoms: C_13  and  N_14 
REMARK    3  A    between atoms: N_14  and  C_15 
REMARK    4  A    between atoms: C_17  and  O_18 
REMARK    5  A    between atoms: C_19  and  O_20 
ROOT
HETATM    1  C   UNL     1     -39.896  53.932 -48.910  1.00  0.00     0.048 C 
HETATM    2  C   UNL     1     -40.337  53.866 -50.342  1.00  0.00    -0.059 A 
HETATM    3  C   UNL     1     -41.257  54.785 -50.852  1.00  0.00     0.037 A 
HETATM    4  C   UNL     1     -41.672  54.690 -52.181  1.00  0.00     0.046 A 
HETATM    5  C   UNL     1     -41.189  53.678 -53.027  1.00  0.00    -0.003 A 
HETATM    6  C   UNL     1     -40.258  52.750 -52.523  1.00  0.00    -0.049 A 
HETATM    7  C   UNL     1     -39.692  51.641 -53.366  1.00  0.00     0.049 C 
HETATM    8  C   UNL     1     -39.849  52.855 -51.180  1.00  0.00     0.014 A 
HETATM    9  N   UNL     1     -42.589  55.625 -52.676  1.00  0.00    -0.322 N 
HETATM   10  C   UNL     1     -43.058  55.632 -53.960  1.00  0.00     0.253 A 
HETATM   11  O   UNL     1     -43.840  56.496 -54.344  1.00  0.00    -0.268 OA
HETATM   12  C   UNL     1     -42.576  54.550 -54.861  1.00  0.00     0.024 A 
HETATM   13  C   UNL     1     -41.699  53.637 -54.404  1.00  0.00     0.028 A 
HETATM   14  H   UNL     1     -42.932  56.365 -52.078  1.00  0.00     0.169 HD
ENDROOT
BRANCH  12  15
HETATM   15  C   UNL     1     -43.165  54.507 -56.241  1.00  0.00     0.136 C 
BRANCH  15  16
HETATM   16  N   UNL     1     -42.527  55.538 -57.057  1.00  0.00    -0.288 NA
HETATM   17  H   UNL     1     -42.012  56.199 -56.477  1.00  0.00     0.128 HD
BRANCH  16  18
HETATM   18  C   UNL     1     -43.288  56.221 -58.019  1.00  0.00     0.011 A 
HETATM   19  C   UNL     1     -43.531  55.576 -59.244  1.00  0.00     0.062 A 
HETATM   20  C   UNL     1     -44.335  56.174 -60.211  1.00  0.00     0.100 A 
HETATM   21  C   UNL     1     -44.929  57.406 -59.965  1.00  0.00     0.098 A 
HETATM   22  C   UNL     1     -44.741  58.045 -58.753  1.00  0.00     0.041 A 
HETATM   23  C   UNL     1     -43.936  57.443 -57.777  1.00  0.00     0.026 A 
BRANCH  20  24
HETATM   24  O   UNL     1     -44.579  55.581 -61.420  1.00  0.00    -0.358 OA
HETATM   25  H   UNL     1     -45.350  54.997 -61.316  1.00  0.00     0.218 HD
ENDBRANCH  20  24
BRANCH  21  26
HETATM   26  O   UNL     1     -45.716  57.989 -60.916  1.00  0.00    -0.358 OA
HETATM   27  H   UNL     1     -46.457  58.378 -60.411  1.00  0.00     0.218 HD
ENDBRANCH  21  26
ENDBRANCH  16  18
ENDBRANCH  15  16
ENDBRANCH  12  15
TORSDOF 5
ENDMDL
MODEL 5
REMARK VINA RESULT:      -8.1      3.007      7.140
REMARK  5 active torsions:
REMARK  status: ('A' for Active; 'I' for Inactive)
REMARK    1  A    between atoms: C_12  and  C_13 
REMARK    2  A    between atoms: C_13  and  N_14 
REMARK    3  A    between atoms: N_14  and  C_15 
REMARK    4  A    between atoms: C_17  and  O_18 
REMARK    5  A    between atoms: C_19  and  O_20 
ROOT
HETATM    1  C   UNL     1     -43.959  60.834 -52.848  1.00  0.00     0.048 C 
HETATM    2  C   UNL     1     -43.219  59.626 -52.355  1.00  0.00    -0.059 A 
HETATM    3  C   UNL     1     -43.806  58.359 -52.395  1.00  0.00     0.037 A 
HETATM    4  C   UNL     1     -43.108  57.253 -51.907  1.00  0.00     0.046 A 
HETATM    5  C   UNL     1     -41.819  57.384 -51.364  1.00  0.00    -0.003 A 
HETATM    6  C   UNL     1     -41.218  58.656 -51.324  1.00  0.00    -0.049 A 
HETATM    7  C   UNL     1     -39.840  58.876 -50.761  1.00  0.00     0.049 C 
HETATM    8  C   UNL     1     -41.933  59.764 -51.816  1.00  0.00     0.014 A 
HETATM    9  N   UNL     1     -43.710  55.990 -51.964  1.00  0.00    -0.322 N 
HETATM   10  C   UNL     1     -43.118  54.839 -51.523  1.00  0.00     0.253 A 
HETATM   11  O   UNL     1     -43.684  53.756 -51.625  1.00  0.00    -0.268 OA
HETATM   12  C   UNL     1     -41.763  54.965 -50.920  1.00  0.00     0.024 A 
HETATM   13  C   UNL     1     -41.169  56.170 -50.851  1.00  0.00     0.028 A 
HETATM   14  H   UNL     1     -44.632  55.885 -52.365  1.00  0.00     0.169 HD
ENDROOT
BRANCH  12  15
HETATM   15  C   UNL     1     -41.156  53.714 -50.354  1.00  0.00     0.136 C 
BRANCH  15  16
HETATM   16  N   UNL     1     -39.908  53.436 -51.060  1.00  0.00    -0.288 NA
HETATM   17  H   UNL     1     -39.471  54.297 -51.387  1.00  0.00     0.128 HD
BRANCH  16  18
HETATM   18  C   UNL     1     -39.895  52.465 -52.075  1.00  0.00     0.011 A 
HETATM   19  C   UNL     1     -39.577  51.143 -51.717  1.00  0.00     0.062 A 
HETATM   20  C   UNL     1     -39.614  50.125 -52.666  1.00  0.00     0.100 A 
HETATM   21  C   UNL     1     -39.991  50.399 -53.974  1.00  0.00     0.098 A 
HETATM   22  C   UNL     1     -40.348  51.683 -54.346  1.00  0.00     0.041 A 
HETATM   23  C   UNL     1     -40.317  52.708 -53.392  1.00  0.00     0.026 A 
BRANCH  20  24
HETATM   24  O   UNL     1     -39.294  48.831 -52.354  1.00  0.00    -0.358 OA
HETATM   25  H   UNL     1     -38.753  48.844 -51.546  1.00  0.00     0.218 HD
ENDBRANCH  20  24
BRANCH  21  26
HETATM   26  O   UNL     1     -40.025  49.399 -54.902  1.00  0.00    -0.358 OA
HETATM   27  H   UNL     1     -39.103  49.332 -55.221  1.00  0.00     0.218 HD
ENDBRANCH  21  26
ENDBRANCH  16  18
ENDBRANCH  15  16
ENDBRANCH  12  15
TORSDOF 5
ENDMDL
MODEL 6
REMARK VINA RESULT:      -8.0      4.197      7.528
REMARK  5 active torsions:
REMARK  status: ('A' for Active; 'I' for Inactive)
REMARK    1  A    between atoms: C_12  and  C_13 
REMARK    2  A    between atoms: C_13  and  N_14 
REMARK    3  A    between atoms: N_14  and  C_15 
REMARK    4  A    between atoms: C_17  and  O_18 
REMARK    5  A    between atoms: C_19  and  O_20 
ROOT
HETATM    1  C   UNL     1     -42.894  59.302 -60.312  1.00  0.00     0.048 C 
HETATM    2  C   UNL     1     -42.945  58.178 -59.320  1.00  0.00    -0.059 A 
HETATM    3  C   UNL     1     -42.487  58.355 -58.012  1.00  0.00     0.037 A 
HETATM    4  C   UNL     1     -42.521  57.287 -57.113  1.00  0.00     0.046 A 
HETATM    5  C   UNL     1     -43.003  56.024 -57.496  1.00  0.00    -0.003 A 
HETATM    6  C   UNL     1     -43.469  55.839 -58.811  1.00  0.00    -0.049 A 
HETATM    7  C   UNL     1     -44.002  54.518 -59.295  1.00  0.00     0.049 C 
HETATM    8  C   UNL     1     -43.428  56.922 -59.709  1.00  0.00     0.014 A 
HETATM    9  N   UNL     1     -42.066  57.486 -55.804  1.00  0.00    -0.322 N 
HETATM   10  C   UNL     1     -42.060  56.517 -54.840  1.00  0.00     0.253 A 
HETATM   11  O   UNL     1     -41.674  56.759 -53.701  1.00  0.00    -0.268 OA
HETATM   12  C   UNL     1     -42.541  55.166 -55.238  1.00  0.00     0.024 A 
HETATM   13  C   UNL     1     -42.978  54.952 -56.493  1.00  0.00     0.028 A 
HETATM   14  H   UNL     1     -41.730  58.395 -55.516  1.00  0.00     0.169 HD
ENDROOT
BRANCH  12  15
HETATM   15  C   UNL     1     -42.445  54.082 -54.203  1.00  0.00     0.136 C 
BRANCH  15  16
HETATM   16  N   UNL     1     -41.040  53.896 -53.847  1.00  0.00    -0.288 NA
HETATM   17  H   UNL     1     -40.426  54.277 -54.565  1.00  0.00     0.128 HD
BRANCH  16  18
HETATM   18  C   UNL     1     -40.596  52.625 -53.448  1.00  0.00     0.011 A 
HETATM   19  C   UNL     1     -40.563  51.606 -54.415  1.00  0.00     0.062 A 
HETATM   20  C   UNL     1     -40.068  50.344 -54.096  1.00  0.00     0.100 A 
HETATM   21  C   UNL     1     -39.578  50.084 -52.822  1.00  0.00     0.098 A 
HETATM   22  C   UNL     1     -39.561  51.079 -51.862  1.00  0.00     0.041 A 
HETATM   23  C   UNL     1     -40.053  52.351 -52.182  1.00  0.00     0.026 A 
BRANCH  20  24
HETATM   24  O   UNL     1     -40.036  49.325 -55.009  1.00  0.00    -0.358 OA
HETATM   25  H   UNL     1     -40.293  48.506 -54.551  1.00  0.00     0.218 HD
ENDBRANCH  20  24
BRANCH  21  26
HETATM   26  O   UNL     1     -39.095  48.846 -52.513  1.00  0.00    -0.358 OA
HETATM   27  H   UNL     1     -38.222  48.810 -52.951  1.00  0.00     0.218 HD
ENDBRANCH  21  26
ENDBRANCH  16  18
ENDBRANCH  15  16
ENDBRANCH  12  15
TORSDOF 5
ENDMDL
MODEL 7
REMARK VINA RESULT:      -7.9      3.021      3.788
REMARK  5 active torsions:
REMARK  status: ('A' for Active; 'I' for Inactive)
REMARK    1  A    between atoms: C_12  and  C_13 
REMARK    2  A    between atoms: C_13  and  N_14 
REMARK    3  A    between atoms: N_14  and  C_15 
REMARK    4  A    between atoms: C_17  and  O_18 
REMARK    5  A    between atoms: C_19  and  O_20 
ROOT
HETATM    1  C   UNL     1     -39.257  49.785 -53.905  1.00  0.00     0.048 C 
HETATM    2  C   UNL     1     -39.854  51.116 -53.553  1.00  0.00    -0.059 A 
HETATM    3  C   UNL     1     -40.617  51.828 -54.482  1.00  0.00     0.037 A 
HETATM    4  C   UNL     1     -41.141  53.075 -54.141  1.00  0.00     0.046 A 
HETATM    5  C   UNL     1     -40.913  53.643 -52.876  1.00  0.00    -0.003 A 
HETATM    6  C   UNL     1     -40.149  52.931 -51.933  1.00  0.00    -0.049 A 
HETATM    7  C   UNL     1     -39.864  53.470 -50.558  1.00  0.00     0.049 C 
HETATM    8  C   UNL     1     -39.623  51.675 -52.289  1.00  0.00     0.014 A 
HETATM    9  N   UNL     1     -41.911  53.770 -55.082  1.00  0.00    -0.322 N 
HETATM   10  C   UNL     1     -42.478  54.993 -54.854  1.00  0.00     0.253 A 
HETATM   11  O   UNL     1     -43.167  55.541 -55.709  1.00  0.00    -0.268 OA
HETATM   12  C   UNL     1     -42.223  55.620 -53.529  1.00  0.00     0.024 A 
HETATM   13  C   UNL     1     -41.482  54.972 -52.612  1.00  0.00     0.028 A 
HETATM   14  H   UNL     1     -42.091  53.364 -55.990  1.00  0.00     0.169 HD
ENDROOT
BRANCH  12  15
HETATM   15  C   UNL     1     -42.770  57.002 -53.318  1.00  0.00     0.136 C 
BRANCH  15  16
HETATM   16  N   UNL     1     -44.168  56.895 -52.905  1.00  0.00    -0.288 NA
HETATM   17  H   UNL     1     -44.737  56.475 -53.639  1.00  0.00     0.128 HD
BRANCH  16  18
HETATM   18  C   UNL     1     -44.814  58.023 -52.371  1.00  0.00     0.011 A 
HETATM   19  C   UNL     1     -45.093  58.030 -50.993  1.00  0.00     0.062 A 
HETATM   20  C   UNL     1     -45.669  59.147 -50.394  1.00  0.00     0.100 A 
HETATM   21  C   UNL     1     -45.953  60.279 -51.148  1.00  0.00     0.098 A 
HETATM   22  C   UNL     1     -45.651  60.316 -52.497  1.00  0.00     0.041 A 
HETATM   23  C   UNL     1     -45.067  59.195 -53.101  1.00  0.00     0.026 A 
BRANCH  20  24
HETATM   24  O   UNL     1     -45.969  59.180 -49.059  1.00  0.00    -0.358 OA
HETATM   25  H   UNL     1     -46.002  60.113 -48.785  1.00  0.00     0.218 HD
ENDBRANCH  20  24
BRANCH  21  26
HETATM   26  O   UNL     1     -46.519  61.371 -50.557  1.00  0.00    -0.358 OA
HETATM   27  H   UNL     1     -46.960  61.842 -51.291  1.00  0.00     0.218 HD
ENDBRANCH  21  26
ENDBRANCH  16  18
ENDBRANCH  15  16
ENDBRANCH  12  15
TORSDOF 5
ENDMDL
MODEL 8
REMARK VINA RESULT:      -7.6      3.442      7.482
REMARK  5 active torsions:
REMARK  status: ('A' for Active; 'I' for Inactive)
REMARK    1  A    between atoms: C_12  and  C_13 
REMARK    2  A    between atoms: C_13  and  N_14 
REMARK    3  A    between atoms: N_14  and  C_15 
REMARK    4  A    between atoms: C_17  and  O_18 
REMARK    5  A    between atoms: C_19  and  O_20 
ROOT
HETATM    1  C   UNL     1     -46.171  60.418 -51.532  1.00  0.00     0.048 C 
HETATM    2  C   UNL     1     -45.428  59.348 -52.277  1.00  0.00    -0.059 A 
HETATM    3  C   UNL     1     -45.052  58.162 -51.642  1.00  0.00     0.037 A 
HETATM    4  C   UNL     1     -44.339  57.192 -52.348  1.00  0.00     0.046 A 
HETATM    5  C   UNL     1     -43.979  57.382 -53.693  1.00  0.00    -0.003 A 
HETATM    6  C   UNL     1     -44.358  58.573 -54.341  1.00  0.00    -0.049 A 
HETATM    7  C   UNL     1     -44.013  58.849 -55.779  1.00  0.00     0.049 C 
HETATM    8  C   UNL     1     -45.074  59.545 -53.618  1.00  0.00     0.014 A 
HETATM    9  N   UNL     1     -43.979  56.005 -51.697  1.00  0.00    -0.322 N 
HETATM   10  C   UNL     1     -43.288  54.986 -52.291  1.00  0.00     0.253 A 
HETATM   11  O   UNL     1     -43.024  53.957 -51.677  1.00  0.00    -0.268 OA
HETATM   12  C   UNL     1     -42.876  55.184 -53.707  1.00  0.00     0.024 A 
HETATM   13  C   UNL     1     -43.207  56.319 -54.349  1.00  0.00     0.028 A 
HETATM   14  H   UNL     1     -44.244  55.854 -50.734  1.00  0.00     0.169 HD
ENDROOT
BRANCH  12  15
HETATM   15  C   UNL     1     -42.038  54.103 -54.325  1.00  0.00     0.136 C 
BRANCH  15  16
HETATM   16  N   UNL     1     -40.855  53.892 -53.494  1.00  0.00    -0.288 NA
HETATM   17  H   UNL     1     -40.060  54.425 -53.843  1.00  0.00     0.128 HD
BRANCH  16  18
HETATM   18  C   UNL     1     -40.464  52.581 -53.177  1.00  0.00     0.011 A 
HETATM   19  C   UNL     1     -40.455  51.629 -54.211  1.00  0.00     0.062 A 
HETATM   20  C   UNL     1     -40.012  50.330 -53.974  1.00  0.00     0.100 A 
HETATM   21  C   UNL     1     -39.549  49.967 -52.716  1.00  0.00     0.098 A 
HETATM   22  C   UNL     1     -39.507  50.893 -51.690  1.00  0.00     0.041 A 
HETATM   23  C   UNL     1     -39.947  52.201 -51.927  1.00  0.00     0.026 A 
BRANCH  20  24
HETATM   24  O   UNL     1     -40.007  49.375 -54.954  1.00  0.00    -0.358 OA
HETATM   25  H   UNL     1     -40.075  48.505 -54.523  1.00  0.00     0.218 HD
ENDBRANCH  20  24
BRANCH  21  26
HETATM   26  O   UNL     1     -39.116  48.692 -52.487  1.00  0.00    -0.358 OA
HETATM   27  H   UNL     1     -39.919  48.210 -52.207  1.00  0.00     0.218 HD
ENDBRANCH  21  26
ENDBRANCH  16  18
ENDBRANCH  15  16
ENDBRANCH  12  15
TORSDOF 5
ENDMDL
MODEL 9
REMARK VINA RESULT:      -7.6      3.013      6.784
REMARK  5 active torsions:
REMARK  status: ('A' for Active; 'I' for Inactive)
REMARK    1  A    between atoms: C_12  and  C_13 
REMARK    2  A    between atoms: C_13  and  N_14 
REMARK    3  A    between atoms: N_14  and  C_15 
REMARK    4  A    between atoms: C_17  and  O_18 
REMARK    5  A    between atoms: C_19  and  O_20 
ROOT
HETATM    1  C   UNL     1     -45.578  59.690 -51.460  1.00  0.00     0.048 C 
HETATM    2  C   UNL     1     -44.425  58.846 -51.916  1.00  0.00    -0.059 A 
HETATM    3  C   UNL     1     -44.511  58.085 -53.084  1.00  0.00     0.037 A 
HETATM    4  C   UNL     1     -43.435  57.287 -53.475  1.00  0.00     0.046 A 
HETATM    5  C   UNL     1     -42.257  57.224 -52.712  1.00  0.00    -0.003 A 
HETATM    6  C   UNL     1     -42.160  57.990 -51.536  1.00  0.00    -0.049 A 
HETATM    7  C   UNL     1     -40.932  57.978 -50.668  1.00  0.00     0.049 C 
HETATM    8  C   UNL     1     -43.253  58.789 -51.150  1.00  0.00     0.014 A 
HETATM    9  N   UNL     1     -43.537  56.538 -54.654  1.00  0.00    -0.322 N 
HETATM   10  C   UNL     1     -42.545  55.730 -55.136  1.00  0.00     0.253 A 
HETATM   11  O   UNL     1     -42.681  55.119 -56.191  1.00  0.00    -0.268 OA
HETATM   12  C   UNL     1     -41.301  55.631 -54.325  1.00  0.00     0.024 A 
HETATM   13  C   UNL     1     -41.185  56.338 -53.186  1.00  0.00     0.028 A 
HETATM   14  H   UNL     1     -44.375  56.588 -55.216  1.00  0.00     0.169 HD
ENDROOT
BRANCH  12  15
HETATM   15  C   UNL     1     -40.252  54.672 -54.809  1.00  0.00     0.136 C 
BRANCH  15  16
HETATM   16  N   UNL     1     -40.809  53.321 -54.795  1.00  0.00    -0.288 NA
HETATM   17  H   UNL     1     -41.822  53.340 -54.905  1.00  0.00     0.128 HD
BRANCH  16  18
HETATM   18  C   UNL     1     -40.446  52.439 -53.765  1.00  0.00     0.011 A 
HETATM   19  C   UNL     1     -40.036  51.143 -54.123  1.00  0.00     0.062 A 
HETATM   20  C   UNL     1     -39.599  50.246 -53.151  1.00  0.00     0.100 A 
HETATM   21  C   UNL     1     -39.539  50.630 -51.818  1.00  0.00     0.098 A 
HETATM   22  C   UNL     1     -39.897  51.912 -51.441  1.00  0.00     0.041 A 
HETATM   23  C   UNL     1     -40.332  52.818 -52.417  1.00  0.00     0.026 A 
BRANCH  20  24
HETATM   24  O   UNL     1     -39.208  48.972 -53.463  1.00  0.00    -0.358 OA
HETATM   25  H   UNL     1     -39.261  48.872 -54.430  1.00  0.00     0.218 HD
ENDBRANCH  20  24
BRANCH  21  26
HETATM   26  O   UNL     1     -39.111  49.748 -50.869  1.00  0.00    -0.358 OA
HETATM   27  H   UNL     1     -38.694  49.026 -51.379  1.00  0.00     0.218 HD
ENDBRANCH  21  26
ENDBRANCH  16  18
ENDBRANCH  15  16
ENDBRANCH  12  15
TORSDOF 5
ENDMDL
MODEL 10
REMARK VINA RESULT:      -7.3      3.295      7.617
REMARK  5 active torsions:
REMARK  status: ('A' for Active; 'I' for Inactive)
REMARK    1  A    between atoms: C_12  and  C_13 
REMARK    2  A    between atoms: C_13  and  N_14 
REMARK    3  A    between atoms: N_14  and  C_15 
REMARK    4  A    between atoms: C_17  and  O_18 
REMARK    5  A    between atoms: C_19  and  O_20 
ROOT
HETATM    1  C   UNL     1     -43.510  62.290 -51.841  1.00  0.00     0.048 C 
HETATM    2  C   UNL     1     -43.429  60.798 -51.969  1.00  0.00    -0.059 A 
HETATM    3  C   UNL     1     -42.638  60.045 -51.097  1.00  0.00     0.037 A 
HETATM    4  C   UNL     1     -42.558  58.661 -51.251  1.00  0.00     0.046 A 
HETATM    5  C   UNL     1     -43.254  57.997 -52.275  1.00  0.00    -0.003 A 
HETATM    6  C   UNL     1     -44.056  58.747 -53.156  1.00  0.00    -0.049 A 
HETATM    7  C   UNL     1     -44.834  58.109 -54.274  1.00  0.00     0.049 C 
HETATM    8  C   UNL     1     -44.127  60.143 -52.993  1.00  0.00     0.014 A 
HETATM    9  N   UNL     1     -41.767  57.923 -50.361  1.00  0.00    -0.322 N 
HETATM   10  C   UNL     1     -41.622  56.564 -50.413  1.00  0.00     0.253 A 
HETATM   11  O   UNL     1     -40.937  55.969 -49.588  1.00  0.00    -0.268 OA
HETATM   12  C   UNL     1     -42.331  55.850 -51.509  1.00  0.00     0.024 A 
HETATM   13  C   UNL     1     -43.091  56.541 -52.378  1.00  0.00     0.028 A 
HETATM   14  H   UNL     1     -41.273  58.390 -49.613  1.00  0.00     0.169 HD
ENDROOT
BRANCH  12  15
HETATM   15  C   UNL     1     -42.093  54.371 -51.618  1.00  0.00     0.136 C 
BRANCH  15  16
HETATM   16  N   UNL     1     -40.688  54.144 -51.947  1.00  0.00    -0.288 NA
HETATM   17  H   UNL     1     -40.330  54.878 -52.556  1.00  0.00     0.128 HD
BRANCH  16  18
HETATM   18  C   UNL     1     -40.288  52.882 -52.415  1.00  0.00     0.011 A 
HETATM   19  C   UNL     1     -39.875  51.930 -51.467  1.00  0.00     0.062 A 
HETATM   20  C   UNL     1     -39.532  50.640 -51.864  1.00  0.00     0.100 A 
HETATM   21  C   UNL     1     -39.618  50.271 -53.200  1.00  0.00     0.098 A 
HETATM   22  C   UNL     1     -40.060  51.174 -54.149  1.00  0.00     0.041 A 
HETATM   23  C   UNL     1     -40.411  52.471 -53.752  1.00  0.00     0.026 A 
BRANCH  20  24
HETATM   24  O   UNL     1     -39.110  49.694 -50.969  1.00  0.00    -0.358 OA
HETATM   25  H   UNL     1     -38.717  48.960 -51.474  1.00  0.00     0.218 HD
ENDBRANCH  20  24
BRANCH  21  26
HETATM   26  O   UNL     1     -39.280  49.006 -53.585  1.00  0.00    -0.358 OA
HETATM   27  H   UNL     1     -40.081  48.476 -53.404  1.00  0.00     0.218 HD
ENDBRANCH  21  26
ENDBRANCH  16  18
ENDBRANCH  15  16
ENDBRANCH  12  15
TORSDOF 5
ENDMDL
