MODEL 1
REMARK VINA RESULT:      -8.7      0.000      0.000
REMARK  4 active torsions:
REMARK  status: ('A' for Active; 'I' for Inactive)
REMARK    1  A    between atoms: C_9  and  C_10 
REMARK       I    between atoms: C_10  and  N_11 
REMARK    2  A    between atoms: N_11  and  C_12 
REMARK    3  A    between atoms: C_14  and  C_15 
REMARK       I    between atoms: C_15  and  N_16 
REMARK    4  A    between atoms: N_16  and  C_17 
ROOT
HETATM    1  C   UNL     1     -41.193  55.249 -53.494  1.00  0.00     0.277 C 
HETATM    2  N   UNL     1     -42.553  55.499 -53.478  1.00  0.00    -0.322 N 
HETATM    3  O   UNL     1     -40.372  55.761 -54.250  1.00  0.00    -0.266 OA
HETATM    4  H   UNL     1     -43.048  54.959 -52.772  1.00  0.00     0.169 HD
ENDROOT
BRANCH   2   5
HETATM    5  C   UNL     1     -43.295  56.375 -54.288  1.00  0.00     0.036 A 
HETATM    6  C   UNL     1     -43.254  56.365 -55.684  1.00  0.00     0.046 A 
HETATM    7  C   UNL     1     -44.005  57.292 -56.422  1.00  0.00     0.034 A 
HETATM    8  C   UNL     1     -44.838  58.200 -55.758  1.00  0.00     0.017 A 
HETATM    9  C   UNL     1     -44.891  58.208 -54.366  1.00  0.00     0.003 A 
HETATM   10  C   UNL     1     -44.115  57.306 -53.636  1.00  0.00     0.029 A 
BRANCH   7  11
HETATM   11  C   UNL     1     -43.956  57.340 -57.909  1.00  0.00     0.252 C 
HETATM   12  N   UNL     1     -44.767  56.438 -58.574  1.00  0.00    -0.352 N 
HETATM   13  H   UNL     1     -45.284  55.750 -58.040  1.00  0.00     0.163 HD
HETATM   14  O   UNL     1     -43.193  58.120 -58.469  1.00  0.00    -0.268 OA
BRANCH  12  15
HETATM   15  C   UNL     1     -44.806  56.340 -59.999  1.00  0.00     0.084 A 
HETATM   16  C   UNL     1     -44.806  54.993 -60.670  1.00  0.00     0.027 A 
HETATM   17  C   UNL     1     -46.045  55.840 -60.689  1.00  0.00     0.027 A 
ENDBRANCH  12  15
ENDBRANCH   7  11
ENDBRANCH   2   5
BRANCH   1  18
HETATM   18  C   UNL     1     -40.810  54.262 -52.467  1.00  0.00     0.157 A 
HETATM   19  C   UNL     1     -40.408  52.910 -52.668  1.00  0.00     0.029 A 
HETATM   20  C   UNL     1     -40.247  52.052 -53.774  1.00  0.00     0.023 A 
HETATM   21  C   UNL     1     -40.146  52.418 -51.395  1.00  0.00     0.063 A 
HETATM   22  C   UNL     1     -39.834  50.724 -53.566  1.00  0.00    -0.061 A 
HETATM   23  C   UNL     1     -39.665  49.789 -54.729  1.00  0.00     0.048 C 
HETATM   24  C   UNL     1     -39.568  50.273 -52.267  1.00  0.00     0.009 A 
HETATM   25  C   UNL     1     -39.718  51.109 -51.155  1.00  0.00     0.032 A 
HETATM   26  N   UNL     1     -40.398  53.459 -50.546  1.00  0.00    -0.277 N 
HETATM   27  H   UNL     1     -40.308  53.460 -49.536  1.00  0.00     0.189 HD
HETATM   28  N   UNL     1     -40.819  54.585 -51.152  1.00  0.00    -0.168 NA
ENDBRANCH   1  18
TORSDOF 4
ENDMDL
MODEL 2
REMARK VINA RESULT:      -8.4      2.647      3.615
REMARK  4 active torsions:
REMARK  status: ('A' for Active; 'I' for Inactive)
REMARK    1  A    between atoms: C_9  and  C_10 
REMARK       I    between atoms: C_10  and  N_11 
REMARK    2  A    between atoms: N_11  and  C_12 
REMARK    3  A    between atoms: C_14  and  C_15 
REMARK       I    between atoms: C_15  and  N_16 
REMARK    4  A    between atoms: N_16  and  C_17 
ROOT
HETATM    1  C   UNL     1     -42.776  55.160 -54.336  1.00  0.00     0.277 C 
HETATM    2  N   UNL     1     -42.029  55.703 -55.365  1.00  0.00    -0.322 N 
HETATM    3  O   UNL     1     -44.000  55.076 -54.296  1.00  0.00    -0.266 OA
HETATM    4  H   UNL     1     -41.028  55.676 -55.186  1.00  0.00     0.169 HD
ENDROOT
BRANCH   2   5
HETATM    5  C   UNL     1     -42.474  56.260 -56.575  1.00  0.00     0.036 A 
HETATM    6  C   UNL     1     -42.427  57.626 -56.865  1.00  0.00     0.046 A 
HETATM    7  C   UNL     1     -42.918  58.108 -58.087  1.00  0.00     0.034 A 
HETATM    8  C   UNL     1     -43.412  57.212 -59.042  1.00  0.00     0.017 A 
HETATM    9  C   UNL     1     -43.452  55.848 -58.762  1.00  0.00     0.003 A 
HETATM   10  C   UNL     1     -42.994  55.377 -57.531  1.00  0.00     0.029 A 
BRANCH   7  11
HETATM   11  C   UNL     1     -42.923  59.560 -58.416  1.00  0.00     0.252 C 
HETATM   12  N   UNL     1     -41.708  60.212 -58.312  1.00  0.00    -0.352 N 
HETATM   13  H   UNL     1     -40.906  59.710 -57.951  1.00  0.00     0.163 HD
HETATM   14  O   UNL     1     -43.976  60.113 -58.715  1.00  0.00    -0.268 OA
BRANCH  12  15
HETATM   15  C   UNL     1     -41.558  61.611 -58.563  1.00  0.00     0.084 A 
HETATM   16  C   UNL     1     -40.188  62.218 -58.693  1.00  0.00     0.027 A 
HETATM   17  C   UNL     1     -41.068  62.091 -59.901  1.00  0.00     0.027 A 
ENDBRANCH  12  15
ENDBRANCH   7  11
ENDBRANCH   2   5
BRANCH   1  18
HETATM   18  C   UNL     1     -41.918  54.670 -53.240  1.00  0.00     0.157 A 
HETATM   19  C   UNL     1     -41.150  53.470 -53.207  1.00  0.00     0.029 A 
HETATM   20  C   UNL     1     -40.928  52.382 -54.075  1.00  0.00     0.023 A 
HETATM   21  C   UNL     1     -40.517  53.480 -51.970  1.00  0.00     0.063 A 
HETATM   22  C   UNL     1     -40.084  51.334 -53.669  1.00  0.00    -0.061 A 
HETATM   23  C   UNL     1     -39.841  50.159 -54.573  1.00  0.00     0.048 C 
HETATM   24  C   UNL     1     -39.455  51.391 -52.419  1.00  0.00     0.009 A 
HETATM   25  C   UNL     1     -39.658  52.464 -51.543  1.00  0.00     0.032 A 
HETATM   26  N   UNL     1     -40.928  54.634 -51.363  1.00  0.00    -0.277 N 
HETATM   27  H   UNL     1     -40.661  54.970 -50.445  1.00  0.00     0.189 HD
HETATM   28  N   UNL     1     -41.789  55.371 -52.089  1.00  0.00    -0.168 NA
ENDBRANCH   1  18
TORSDOF 4
ENDMDL
MODEL 3
REMARK VINA RESULT:      -8.1      1.451      1.733
REMARK  4 active torsions:
REMARK  status: ('A' for Active; 'I' for Inactive)
REMARK    1  A    between atoms: C_9  and  C_10 
REMARK       I    between atoms: C_10  and  N_11 
REMARK    2  A    between atoms: N_11  and  C_12 
REMARK    3  A    between atoms: C_14  and  C_15 
REMARK       I    between atoms: C_15  and  N_16 
REMARK    4  A    between atoms: N_16  and  C_17 
ROOT
HETATM    1  C   UNL     1     -41.255  55.444 -53.015  1.00  0.00     0.277 C 
HETATM    2  N   UNL     1     -42.474  55.206 -53.623  1.00  0.00    -0.322 N 
HETATM    3  O   UNL     1     -40.522  56.408 -53.216  1.00  0.00    -0.266 OA
HETATM    4  H   UNL     1     -42.910  54.341 -53.312  1.00  0.00     0.169 HD
ENDROOT
BRANCH   2   5
HETATM    5  C   UNL     1     -43.149  55.987 -54.574  1.00  0.00     0.036 A 
HETATM    6  C   UNL     1     -42.843  55.988 -55.938  1.00  0.00     0.046 A 
HETATM    7  C   UNL     1     -43.547  56.819 -56.822  1.00  0.00     0.034 A 
HETATM    8  C   UNL     1     -44.594  57.616 -56.345  1.00  0.00     0.017 A 
HETATM    9  C   UNL     1     -44.910  57.613 -54.988  1.00  0.00     0.003 A 
HETATM   10  C   UNL     1     -44.184  56.809 -54.107  1.00  0.00     0.029 A 
BRANCH   7  11
HETATM   11  C   UNL     1     -43.222  56.878 -58.274  1.00  0.00     0.252 C 
HETATM   12  N   UNL     1     -43.415  58.101 -58.890  1.00  0.00    -0.352 N 
HETATM   13  H   UNL     1     -43.831  58.860 -58.365  1.00  0.00     0.163 HD
HETATM   14  O   UNL     1     -42.851  55.865 -58.857  1.00  0.00    -0.268 OA
BRANCH  12  15
HETATM   15  C   UNL     1     -43.179  58.307 -60.285  1.00  0.00     0.084 A 
HETATM   16  C   UNL     1     -43.323  59.679 -60.886  1.00  0.00     0.027 A 
HETATM   17  C   UNL     1     -41.962  59.064 -60.741  1.00  0.00     0.027 A 
ENDBRANCH  12  15
ENDBRANCH   7  11
ENDBRANCH   2   5
BRANCH   1  18
HETATM   18  C   UNL     1     -40.906  54.375 -52.060  1.00  0.00     0.157 A 
HETATM   19  C   UNL     1     -40.468  53.052 -52.357  1.00  0.00     0.029 A 
HETATM   20  C   UNL     1     -40.233  52.298 -53.524  1.00  0.00     0.023 A 
HETATM   21  C   UNL     1     -40.262  52.453 -51.120  1.00  0.00     0.063 A 
HETATM   22  C   UNL     1     -39.807  50.963 -53.412  1.00  0.00    -0.061 A 
HETATM   23  C   UNL     1     -39.560  50.138 -54.642  1.00  0.00     0.048 C 
HETATM   24  C   UNL     1     -39.598  50.403 -52.146  1.00  0.00     0.009 A 
HETATM   25  C   UNL     1     -39.821  51.135 -50.973  1.00  0.00     0.032 A 
HETATM   26  N   UNL     1     -40.577  53.411 -50.198  1.00  0.00    -0.277 N 
HETATM   27  H   UNL     1     -40.540  53.324 -49.188  1.00  0.00     0.189 HD
HETATM   28  N   UNL     1     -40.988  54.580 -50.724  1.00  0.00    -0.168 NA
ENDBRANCH   1  18
TORSDOF 4
ENDMDL
MODEL 4
REMARK VINA RESULT:      -7.8      4.391      8.595
REMARK  4 active torsions:
REMARK  status: ('A' for Active; 'I' for Inactive)
REMARK    1  A    between atoms: C_9  and  C_10 
REMARK       I    between atoms: C_10  and  N_11 
REMARK    2  A    between atoms: N_11  and  C_12 
REMARK    3  A    between atoms: C_14  and  C_15 
REMARK       I    between atoms: C_15  and  N_16 
REMARK    4  A    between atoms: N_16  and  C_17 
ROOT
HETATM    1  C   UNL     1     -41.471  58.842 -52.104  1.00  0.00     0.277 C 
HETATM    2  N   UNL     1     -42.351  57.780 -52.212  1.00  0.00    -0.322 N 
HETATM    3  O   UNL     1     -40.304  58.780 -51.730  1.00  0.00    -0.266 OA
HETATM    4  H   UNL     1     -43.274  58.059 -52.536  1.00  0.00     0.169 HD
ENDROOT
BRANCH   2   5
HETATM    5  C   UNL     1     -42.124  56.421 -51.940  1.00  0.00     0.036 A 
HETATM    6  C   UNL     1     -41.391  55.572 -52.774  1.00  0.00     0.046 A 
HETATM    7  C   UNL     1     -41.233  54.218 -52.445  1.00  0.00     0.034 A 
HETATM    8  C   UNL     1     -41.770  53.724 -51.251  1.00  0.00     0.017 A 
HETATM    9  C   UNL     1     -42.494  54.567 -50.411  1.00  0.00     0.003 A 
HETATM   10  C   UNL     1     -42.677  55.906 -50.759  1.00  0.00     0.029 A 
BRANCH   7  11
HETATM   11  C   UNL     1     -40.495  53.274 -53.328  1.00  0.00     0.252 C 
HETATM   12  N   UNL     1     -40.185  52.044 -52.779  1.00  0.00    -0.352 N 
HETATM   13  H   UNL     1     -40.395  51.869 -51.804  1.00  0.00     0.163 HD
HETATM   14  O   UNL     1     -40.164  53.627 -54.455  1.00  0.00    -0.268 OA
BRANCH  12  15
HETATM   15  C   UNL     1     -39.452  51.044 -53.490  1.00  0.00     0.084 A 
HETATM   16  C   UNL     1     -39.599  49.590 -53.128  1.00  0.00     0.027 A 
HETATM   17  C   UNL     1     -40.165  50.101 -54.420  1.00  0.00     0.027 A 
ENDBRANCH  12  15
ENDBRANCH   7  11
ENDBRANCH   2   5
BRANCH   1  18
HETATM   18  C   UNL     1     -42.105  60.114 -52.499  1.00  0.00     0.157 A 
HETATM   19  C   UNL     1     -42.875  60.992 -51.682  1.00  0.00     0.029 A 
HETATM   20  C   UNL     1     -43.315  61.010 -50.344  1.00  0.00     0.023 A 
HETATM   21  C   UNL     1     -43.229  62.045 -52.517  1.00  0.00     0.063 A 
HETATM   22  C   UNL     1     -44.104  62.080 -49.888  1.00  0.00    -0.061 A 
HETATM   23  C   UNL     1     -44.593  62.115 -48.468  1.00  0.00     0.048 C 
HETATM   24  C   UNL     1     -44.427  63.128 -50.760  1.00  0.00     0.009 A 
HETATM   25  C   UNL     1     -43.997  63.133 -52.092  1.00  0.00     0.032 A 
HETATM   26  N   UNL     1     -42.676  61.745 -53.731  1.00  0.00    -0.277 N 
HETATM   27  H   UNL     1     -42.730  62.297 -54.580  1.00  0.00     0.189 HD
HETATM   28  N   UNL     1     -42.005  60.579 -53.766  1.00  0.00    -0.168 NA
ENDBRANCH   1  18
TORSDOF 4
ENDMDL
MODEL 5
REMARK VINA RESULT:      -7.7     15.134     19.236
REMARK  4 active torsions:
REMARK  status: ('A' for Active; 'I' for Inactive)
REMARK    1  A    between atoms: C_9  and  C_10 
REMARK       I    between atoms: C_10  and  N_11 
REMARK    2  A    between atoms: N_11  and  C_12 
REMARK    3  A    between atoms: C_14  and  C_15 
REMARK       I    between atoms: C_15  and  N_16 
REMARK    4  A    between atoms: N_16  and  C_17 
ROOT
HETATM    1  C   UNL     1     -34.784  41.471 -51.669  1.00  0.00     0.277 C 
HETATM    2  N   UNL     1     -34.732  40.122 -51.369  1.00  0.00    -0.322 N 
HETATM    3  O   UNL     1     -34.413  42.389 -50.943  1.00  0.00    -0.266 OA
HETATM    4  H   UNL     1     -35.100  39.535 -52.113  1.00  0.00     0.169 HD
ENDROOT
BRANCH   2   5
HETATM    5  C   UNL     1     -34.250  39.499 -50.206  1.00  0.00     0.036 A 
HETATM    6  C   UNL     1     -33.023  39.804 -49.612  1.00  0.00     0.046 A 
HETATM    7  C   UNL     1     -32.600  39.116 -48.466  1.00  0.00     0.034 A 
HETATM    8  C   UNL     1     -33.432  38.153 -47.884  1.00  0.00     0.017 A 
HETATM    9  C   UNL     1     -34.661  37.851 -48.466  1.00  0.00     0.003 A 
HETATM   10  C   UNL     1     -35.063  38.515 -49.626  1.00  0.00     0.029 A 
BRANCH   7  11
HETATM   11  C   UNL     1     -31.281  39.384 -47.828  1.00  0.00     0.252 C 
HETATM   12  N   UNL     1     -31.231  39.246 -46.453  1.00  0.00    -0.352 N 
HETATM   13  H   UNL     1     -32.084  39.053 -45.943  1.00  0.00     0.163 HD
HETATM   14  O   UNL     1     -30.333  39.745 -48.518  1.00  0.00    -0.268 OA
BRANCH  12  15
HETATM   15  C   UNL     1     -30.046  39.499 -45.695  1.00  0.00     0.084 A 
HETATM   16  C   UNL     1     -29.936  40.737 -44.846  1.00  0.00     0.027 A 
HETATM   17  C   UNL     1     -30.071  39.392 -44.195  1.00  0.00     0.027 A 
ENDBRANCH  12  15
ENDBRANCH   7  11
ENDBRANCH   2   5
BRANCH   1  18
HETATM   18  C   UNL     1     -35.356  41.708 -53.008  1.00  0.00     0.157 A 
HETATM   19  C   UNL     1     -34.777  41.388 -54.270  1.00  0.00     0.029 A 
HETATM   20  C   UNL     1     -33.573  40.808 -54.717  1.00  0.00     0.023 A 
HETATM   21  C   UNL     1     -35.712  41.800 -55.212  1.00  0.00     0.063 A 
HETATM   22  C   UNL     1     -33.342  40.667 -56.097  1.00  0.00    -0.061 A 
HETATM   23  C   UNL     1     -32.063  40.060 -56.596  1.00  0.00     0.048 C 
HETATM   24  C   UNL     1     -34.318  41.083 -57.011  1.00  0.00     0.009 A 
HETATM   25  C   UNL     1     -35.522  41.659 -56.589  1.00  0.00     0.032 A 
HETATM   26  N   UNL     1     -36.748  42.322 -54.489  1.00  0.00    -0.277 N 
HETATM   27  H   UNL     1     -37.608  42.716 -54.850  1.00  0.00     0.189 HD
HETATM   28  N   UNL     1     -36.564  42.302 -53.155  1.00  0.00    -0.168 NA
ENDBRANCH   1  18
TORSDOF 4
ENDMDL
MODEL 6
REMARK VINA RESULT:      -7.7      2.426      3.250
REMARK  4 active torsions:
REMARK  status: ('A' for Active; 'I' for Inactive)
REMARK    1  A    between atoms: C_9  and  C_10 
REMARK       I    between atoms: C_10  and  N_11 
REMARK    2  A    between atoms: N_11  and  C_12 
REMARK    3  A    between atoms: C_14  and  C_15 
REMARK       I    between atoms: C_15  and  N_16 
REMARK    4  A    between atoms: N_16  and  C_17 
ROOT
HETATM    1  C   UNL     1     -42.864  54.570 -55.378  1.00  0.00     0.277 C 
HETATM    2  N   UNL     1     -42.612  55.789 -55.981  1.00  0.00    -0.322 N 
HETATM    3  O   UNL     1     -43.645  53.712 -55.779  1.00  0.00    -0.266 OA
HETATM    4  H   UNL     1     -41.932  56.350 -55.474  1.00  0.00     0.169 HD
ENDROOT
BRANCH   2   5
HETATM    5  C   UNL     1     -43.161  56.316 -57.162  1.00  0.00     0.036 A 
HETATM    6  C   UNL     1     -44.119  57.333 -57.187  1.00  0.00     0.046 A 
HETATM    7  C   UNL     1     -44.639  57.786 -58.408  1.00  0.00     0.034 A 
HETATM    8  C   UNL     1     -44.163  57.251 -59.610  1.00  0.00     0.017 A 
HETATM    9  C   UNL     1     -43.201  56.243 -59.592  1.00  0.00     0.003 A 
HETATM   10  C   UNL     1     -42.711  55.772 -58.372  1.00  0.00     0.029 A 
BRANCH   7  11
HETATM   11  C   UNL     1     -45.690  58.839 -58.474  1.00  0.00     0.252 C 
HETATM   12  N   UNL     1     -45.946  59.365 -59.727  1.00  0.00    -0.352 N 
HETATM   13  H   UNL     1     -45.371  59.080 -60.510  1.00  0.00     0.163 HD
HETATM   14  O   UNL     1     -46.240  59.216 -57.444  1.00  0.00    -0.268 OA
BRANCH  12  15
HETATM   15  C   UNL     1     -46.903  60.404 -59.947  1.00  0.00     0.084 A 
HETATM   16  C   UNL     1     -47.404  60.695 -61.336  1.00  0.00     0.027 A 
HETATM   17  C   UNL     1     -48.316  60.061 -60.328  1.00  0.00     0.027 A 
ENDBRANCH  12  15
ENDBRANCH   7  11
ENDBRANCH   2   5
BRANCH   1  18
HETATM   18  C   UNL     1     -42.067  54.396 -54.149  1.00  0.00     0.157 A 
HETATM   19  C   UNL     1     -41.222  53.300 -53.808  1.00  0.00     0.029 A 
HETATM   20  C   UNL     1     -40.853  52.078 -54.405  1.00  0.00     0.023 A 
HETATM   21  C   UNL     1     -40.695  53.623 -52.564  1.00  0.00     0.063 A 
HETATM   22  C   UNL     1     -39.973  51.215 -53.730  1.00  0.00    -0.061 A 
HETATM   23  C   UNL     1     -39.575  49.903 -54.342  1.00  0.00     0.048 C 
HETATM   24  C   UNL     1     -39.456  51.586 -52.482  1.00  0.00     0.009 A 
HETATM   25  C   UNL     1     -39.805  52.797 -51.873  1.00  0.00     0.032 A 
HETATM   26  N   UNL     1     -41.236  54.838 -52.247  1.00  0.00    -0.277 N 
HETATM   27  H   UNL     1     -41.069  55.381 -51.407  1.00  0.00     0.189 HD
HETATM   28  N   UNL     1     -42.083  55.330 -53.169  1.00  0.00    -0.168 NA
ENDBRANCH   1  18
TORSDOF 4
ENDMDL
MODEL 7
REMARK VINA RESULT:      -7.7      2.142      3.777
REMARK  4 active torsions:
REMARK  status: ('A' for Active; 'I' for Inactive)
REMARK    1  A    between atoms: C_9  and  C_10 
REMARK       I    between atoms: C_10  and  N_11 
REMARK    2  A    between atoms: N_11  and  C_12 
REMARK    3  A    between atoms: C_14  and  C_15 
REMARK       I    between atoms: C_15  and  N_16 
REMARK    4  A    between atoms: N_16  and  C_17 
ROOT
HETATM    1  C   UNL     1     -41.221  54.934 -52.437  1.00  0.00     0.277 C 
HETATM    2  N   UNL     1     -41.972  54.549 -53.533  1.00  0.00    -0.322 N 
HETATM    3  O   UNL     1     -40.902  56.083 -52.146  1.00  0.00    -0.266 OA
HETATM    4  H   UNL     1     -42.112  53.543 -53.585  1.00  0.00     0.169 HD
ENDROOT
BRANCH   2   5
HETATM    5  C   UNL     1     -42.541  55.353 -54.534  1.00  0.00     0.036 A 
HETATM    6  C   UNL     1     -43.377  56.441 -54.276  1.00  0.00     0.046 A 
HETATM    7  C   UNL     1     -43.928  57.179 -55.334  1.00  0.00     0.034 A 
HETATM    8  C   UNL     1     -43.600  56.854 -56.655  1.00  0.00     0.017 A 
HETATM    9  C   UNL     1     -42.758  55.776 -56.919  1.00  0.00     0.003 A 
HETATM   10  C   UNL     1     -42.240  55.024 -55.863  1.00  0.00     0.029 A 
BRANCH   7  11
HETATM   11  C   UNL     1     -44.857  58.319 -55.099  1.00  0.00     0.252 C 
HETATM   12  N   UNL     1     -44.656  59.037 -53.935  1.00  0.00    -0.352 N 
HETATM   13  H   UNL     1     -43.960  58.720 -53.271  1.00  0.00     0.163 HD
HETATM   14  O   UNL     1     -45.759  58.544 -55.899  1.00  0.00    -0.268 OA
BRANCH  12  15
HETATM   15  C   UNL     1     -45.485  60.138 -53.554  1.00  0.00     0.084 A 
HETATM   16  C   UNL     1     -46.095  60.192 -52.180  1.00  0.00     0.027 A 
HETATM   17  C   UNL     1     -44.993  61.142 -52.548  1.00  0.00     0.027 A 
ENDBRANCH  12  15
ENDBRANCH   7  11
ENDBRANCH   2   5
BRANCH   1  18
HETATM   18  C   UNL     1     -40.821  53.774 -51.618  1.00  0.00     0.157 A 
HETATM   19  C   UNL     1     -40.390  52.494 -52.074  1.00  0.00     0.029 A 
HETATM   20  C   UNL     1     -40.206  51.871 -53.324  1.00  0.00     0.023 A 
HETATM   21  C   UNL     1     -40.123  51.770 -50.919  1.00  0.00     0.063 A 
HETATM   22  C   UNL     1     -39.767  50.536 -53.375  1.00  0.00    -0.061 A 
HETATM   23  C   UNL     1     -39.573  49.848 -54.695  1.00  0.00     0.048 C 
HETATM   24  C   UNL     1     -39.496  49.847 -52.186  1.00  0.00     0.009 A 
HETATM   25  C   UNL     1     -39.668  50.448 -50.933  1.00  0.00     0.032 A 
HETATM   26  N   UNL     1     -40.400  52.621 -49.886  1.00  0.00    -0.277 N 
HETATM   27  H   UNL     1     -40.315  52.428 -48.895  1.00  0.00     0.189 HD
HETATM   28  N   UNL     1     -40.842  53.835 -50.266  1.00  0.00    -0.168 NA
ENDBRANCH   1  18
TORSDOF 4
ENDMDL
MODEL 8
REMARK VINA RESULT:      -7.6      2.163      2.314
REMARK  4 active torsions:
REMARK  status: ('A' for Active; 'I' for Inactive)
REMARK    1  A    between atoms: C_9  and  C_10 
REMARK       I    between atoms: C_10  and  N_11 
REMARK    2  A    between atoms: N_11  and  C_12 
REMARK    3  A    between atoms: C_14  and  C_15 
REMARK       I    between atoms: C_15  and  N_16 
REMARK    4  A    between atoms: N_16  and  C_17 
ROOT
HETATM    1  C   UNL     1     -41.972  55.298 -52.766  1.00  0.00     0.277 C 
HETATM    2  N   UNL     1     -41.390  56.545 -52.625  1.00  0.00    -0.322 N 
HETATM    3  O   UNL     1     -42.905  55.016 -53.511  1.00  0.00    -0.266 OA
HETATM    4  H   UNL     1     -40.633  56.555 -51.945  1.00  0.00     0.169 HD
ENDROOT
BRANCH   2   5
HETATM    5  C   UNL     1     -41.708  57.743 -53.285  1.00  0.00     0.036 A 
HETATM    6  C   UNL     1     -41.665  57.901 -54.673  1.00  0.00     0.046 A 
HETATM    7  C   UNL     1     -41.972  59.140 -55.255  1.00  0.00     0.034 A 
HETATM    8  C   UNL     1     -42.370  60.210 -54.446  1.00  0.00     0.017 A 
HETATM    9  C   UNL     1     -42.425  60.056 -53.063  1.00  0.00     0.003 A 
HETATM   10  C   UNL     1     -42.086  58.830 -52.486  1.00  0.00     0.029 A 
BRANCH   7  11
HETATM   11  C   UNL     1     -41.897  59.359 -56.726  1.00  0.00     0.252 C 
HETATM   12  N   UNL     1     -42.144  58.253 -57.518  1.00  0.00    -0.352 N 
HETATM   13  H   UNL     1     -42.283  57.351 -57.081  1.00  0.00     0.163 HD
HETATM   14  O   UNL     1     -41.588  60.463 -57.162  1.00  0.00    -0.268 OA
BRANCH  12  15
HETATM   15  C   UNL     1     -42.078  58.297 -58.946  1.00  0.00     0.084 A 
HETATM   16  C   UNL     1     -42.547  57.125 -59.765  1.00  0.00     0.027 A 
HETATM   17  C   UNL     1     -43.340  58.399 -59.758  1.00  0.00     0.027 A 
ENDBRANCH  12  15
ENDBRANCH   7  11
ENDBRANCH   2   5
BRANCH   1  18
HETATM   18  C   UNL     1     -41.332  54.297 -51.891  1.00  0.00     0.157 A 
HETATM   19  C   UNL     1     -40.743  53.057 -52.275  1.00  0.00     0.029 A 
HETATM   20  C   UNL     1     -40.563  52.348 -53.479  1.00  0.00     0.023 A 
HETATM   21  C   UNL     1     -40.275  52.498 -51.092  1.00  0.00     0.063 A 
HETATM   22  C   UNL     1     -39.925  51.095 -53.456  1.00  0.00    -0.061 A 
HETATM   23  C   UNL     1     -39.731  50.317 -54.725  1.00  0.00     0.048 C 
HETATM   24  C   UNL     1     -39.457  50.575 -52.243  1.00  0.00     0.009 A 
HETATM   25  C   UNL     1     -39.621  51.265 -51.036  1.00  0.00     0.032 A 
HETATM   26  N   UNL     1     -40.600  53.397 -50.114  1.00  0.00    -0.277 N 
HETATM   27  H   UNL     1     -40.407  53.318 -49.122  1.00  0.00     0.189 HD
HETATM   28  N   UNL     1     -41.255  54.488 -50.553  1.00  0.00    -0.168 NA
ENDBRANCH   1  18
TORSDOF 4
ENDMDL
MODEL 9
REMARK VINA RESULT:      -7.6      2.853      7.744
REMARK  4 active torsions:
REMARK  status: ('A' for Active; 'I' for Inactive)
REMARK    1  A    between atoms: C_9  and  C_10 
REMARK       I    between atoms: C_10  and  N_11 
REMARK    2  A    between atoms: N_11  and  C_12 
REMARK    3  A    between atoms: C_14  and  C_15 
REMARK       I    between atoms: C_15  and  N_16 
REMARK    4  A    between atoms: N_16  and  C_17 
ROOT
HETATM    1  C   UNL     1     -43.777  56.750 -51.801  1.00  0.00     0.277 C 
HETATM    2  N   UNL     1     -42.486  56.374 -52.127  1.00  0.00    -0.322 N 
HETATM    3  O   UNL     1     -44.405  56.393 -50.809  1.00  0.00    -0.266 OA
HETATM    4  H   UNL     1     -42.161  56.783 -53.000  1.00  0.00     0.169 HD
ENDROOT
BRANCH   2   5
HETATM    5  C   UNL     1     -41.612  55.530 -51.422  1.00  0.00     0.036 A 
HETATM    6  C   UNL     1     -41.309  54.224 -51.812  1.00  0.00     0.046 A 
HETATM    7  C   UNL     1     -40.446  53.434 -51.038  1.00  0.00     0.034 A 
HETATM    8  C   UNL     1     -39.847  53.973 -49.894  1.00  0.00     0.017 A 
HETATM    9  C   UNL     1     -40.138  55.279 -49.504  1.00  0.00     0.003 A 
HETATM   10  C   UNL     1     -41.024  56.049 -50.260  1.00  0.00     0.029 A 
BRANCH   7  11
HETATM   11  C   UNL     1     -40.132  52.024 -51.399  1.00  0.00     0.252 C 
HETATM   12  N   UNL     1     -39.977  51.762 -52.748  1.00  0.00    -0.352 N 
HETATM   13  H   UNL     1     -40.156  52.499 -53.419  1.00  0.00     0.163 HD
HETATM   14  O   UNL     1     -40.067  51.171 -50.521  1.00  0.00    -0.268 OA
BRANCH  12  15
HETATM   15  C   UNL     1     -39.705  50.453 -53.253  1.00  0.00     0.084 A 
HETATM   16  C   UNL     1     -40.527  49.886 -54.379  1.00  0.00     0.027 A 
HETATM   17  C   UNL     1     -39.100  50.281 -54.619  1.00  0.00     0.027 A 
ENDBRANCH  12  15
ENDBRANCH   7  11
ENDBRANCH   2   5
BRANCH   1  18
HETATM   18  C   UNL     1     -44.347  57.663 -52.809  1.00  0.00     0.157 A 
HETATM   19  C   UNL     1     -44.227  57.578 -54.227  1.00  0.00     0.029 A 
HETATM   20  C   UNL     1     -43.588  56.718 -55.142  1.00  0.00     0.023 A 
HETATM   21  C   UNL     1     -44.949  58.659 -54.716  1.00  0.00     0.063 A 
HETATM   22  C   UNL     1     -43.687  56.976 -56.520  1.00  0.00    -0.061 A 
HETATM   23  C   UNL     1     -43.006  56.079 -57.513  1.00  0.00     0.048 C 
HETATM   24  C   UNL     1     -44.436  58.070 -56.971  1.00  0.00     0.009 A 
HETATM   25  C   UNL     1     -45.083  58.935 -56.080  1.00  0.00     0.032 A 
HETATM   26  N   UNL     1     -45.434  59.301 -53.611  1.00  0.00    -0.277 N 
HETATM   27  H   UNL     1     -46.010  60.135 -53.591  1.00  0.00     0.189 HD
HETATM   28  N   UNL     1     -45.077  58.742 -52.439  1.00  0.00    -0.168 NA
ENDBRANCH   1  18
TORSDOF 4
ENDMDL
MODEL 10
REMARK VINA RESULT:      -7.5     15.135     18.506
REMARK  4 active torsions:
REMARK  status: ('A' for Active; 'I' for Inactive)
REMARK    1  A    between atoms: C_9  and  C_10 
REMARK       I    between atoms: C_10  and  N_11 
REMARK    2  A    between atoms: N_11  and  C_12 
REMARK    3  A    between atoms: C_14  and  C_15 
REMARK       I    between atoms: C_15  and  N_16 
REMARK    4  A    between atoms: N_16  and  C_17 
ROOT
HETATM    1  C   UNL     1     -37.289  39.129 -58.893  1.00  0.00     0.277 C 
HETATM    2  N   UNL     1     -36.503  40.261 -58.777  1.00  0.00    -0.322 N 
HETATM    3  O   UNL     1     -37.669  38.414 -57.970  1.00  0.00    -0.266 OA
HETATM    4  H   UNL     1     -36.301  40.698 -59.673  1.00  0.00     0.169 HD
ENDROOT
BRANCH   2   5
HETATM    5  C   UNL     1     -35.977  40.850 -57.615  1.00  0.00     0.036 A 
HETATM    6  C   UNL     1     -34.764  40.474 -57.033  1.00  0.00     0.046 A 
HETATM    7  C   UNL     1     -34.320  41.093 -55.856  1.00  0.00     0.034 A 
HETATM    8  C   UNL     1     -35.071  42.127 -55.287  1.00  0.00     0.017 A 
HETATM    9  C   UNL     1     -36.277  42.514 -55.868  1.00  0.00     0.003 A 
HETATM   10  C   UNL     1     -36.731  41.871 -57.021  1.00  0.00     0.029 A 
BRANCH   7  11
HETATM   11  C   UNL     1     -33.054  40.691 -55.184  1.00  0.00     0.252 C 
HETATM   12  N   UNL     1     -33.100  40.602 -53.805  1.00  0.00    -0.352 N 
HETATM   13  H   UNL     1     -33.942  40.884 -53.318  1.00  0.00     0.163 HD
HETATM   14  O   UNL     1     -32.043  40.500 -55.852  1.00  0.00    -0.268 OA
BRANCH  12  15
HETATM   15  C   UNL     1     -31.958  40.260 -53.015  1.00  0.00     0.084 A 
HETATM   16  C   UNL     1     -31.998  40.404 -51.518  1.00  0.00     0.027 A 
HETATM   17  C   UNL     1     -31.985  39.039 -52.139  1.00  0.00     0.027 A 
ENDBRANCH  12  15
ENDBRANCH   7  11
ENDBRANCH   2   5
BRANCH   1  18
HETATM   18  C   UNL     1     -37.641  38.853 -60.298  1.00  0.00     0.157 A 
HETATM   19  C   UNL     1     -38.842  38.269 -60.796  1.00  0.00     0.029 A 
HETATM   20  C   UNL     1     -40.032  37.762 -60.237  1.00  0.00     0.023 A 
HETATM   21  C   UNL     1     -38.684  38.238 -62.176  1.00  0.00     0.063 A 
HETATM   22  C   UNL     1     -41.023  37.231 -61.082  1.00  0.00    -0.061 A 
HETATM   23  C   UNL     1     -42.294  36.676 -60.508  1.00  0.00     0.048 C 
HETATM   24  C   UNL     1     -40.828  37.232 -62.469  1.00  0.00     0.009 A 
HETATM   25  C   UNL     1     -39.656  37.735 -63.046  1.00  0.00     0.032 A 
HETATM   26  N   UNL     1     -37.450  38.779 -62.411  1.00  0.00    -0.277 N 
HETATM   27  H   UNL     1     -37.005  38.917 -63.311  1.00  0.00     0.189 HD
HETATM   28  N   UNL     1     -36.781  39.144 -61.302  1.00  0.00    -0.168 NA
ENDBRANCH   1  18
TORSDOF 4
ENDMDL
