MODEL 1
REMARK VINA RESULT:      -7.3      0.000      0.000
REMARK  10 active torsions:
REMARK  status: ('A' for Active; 'I' for Inactive)
REMARK    1  A    between atoms: C_2  and  O_3 
REMARK    2  A    between atoms: O_3  and  C_4 
REMARK    3  A    between atoms: C_4  and  C_5 
REMARK    4  A    between atoms: C_6  and  N_7 
REMARK       I    between atoms: N_7  and  C_8 
REMARK    5  A    between atoms: C_14  and  O_15 
REMARK    6  A    between atoms: O_15  and  C_16 
REMARK    7  A    between atoms: C_16  and  C_17 
REMARK    8  A    between atoms: C_17  and  O_18 
REMARK    9  A    between atoms: C_17  and  C_19 
REMARK   10  A    between atoms: C_19  and  N_20 
ROOT
HETATM    1  C   UNL     1     -40.783  53.824 -52.414  1.00  0.00     0.085 A 
HETATM    2  C   UNL     1     -40.508  53.293 -53.666  1.00  0.00     0.094 A 
HETATM    3  S   UNL     1     -41.178  54.214 -54.918  1.00  0.00    -0.068 SA
HETATM    4  C   UNL     1     -41.899  55.359 -53.851  1.00  0.00     0.053 A 
HETATM    5  C   UNL     1     -41.570  55.050 -52.527  1.00  0.00     0.003 A 
HETATM    6  C   UNL     1     -42.720  56.470 -54.219  1.00  0.00     0.104 A 
HETATM    7  C   UNL     1     -43.225  57.261 -53.166  1.00  0.00     0.045 A 
HETATM    8 BR   UNL     1     -44.493  58.670 -53.362  1.00  0.00    -0.048 Br
HETATM    9  C   UNL     1     -42.869  57.003 -51.845  1.00  0.00     0.023 A 
HETATM   10  C   UNL     1     -42.055  55.921 -51.522  1.00  0.00     0.015 A 
ENDROOT
BRANCH   6  11
HETATM   11  O   UNL     1     -43.007  56.595 -55.557  1.00  0.00    -0.346 OA
BRANCH  11  12
HETATM   12  C   UNL     1     -42.219  57.505 -56.322  1.00  0.00     0.209 C 
BRANCH  12  13
HETATM   13  C   UNL     1     -42.699  57.488 -57.781  1.00  0.00     0.168 C 
BRANCH  13  14
HETATM   14  O   UNL     1     -41.609  57.764 -58.682  1.00  0.00    -0.392 OA
HETATM   15  H   UNL     1     -40.928  58.227 -58.145  1.00  0.00     0.210 HD
ENDBRANCH  13  14
BRANCH  13  16
HETATM   16  C   UNL     1     -43.237  56.090 -58.138  1.00  0.00     0.268 C 
BRANCH  16  17
HETATM   17  N   UNL     1     -44.669  56.214 -58.650  1.00  0.00    -0.069 N 
HETATM   18  H   UNL     1     -45.187  55.546 -58.045  1.00  0.00     0.280 HD
HETATM   19  C   UNL     1     -45.237  57.590 -58.413  1.00  0.00     0.235 C 
HETATM   20  C   UNL     1     -46.700  57.634 -58.827  1.00  0.00     0.028 C 
HETATM   21  C   UNL     1     -46.888  57.180 -60.269  1.00  0.00     0.003 C 
HETATM   22  C   UNL     1     -46.289  55.795 -60.480  1.00  0.00     0.028 C 
HETATM   23  C   UNL     1     -44.823  55.748 -60.073  1.00  0.00     0.235 C 
ENDBRANCH  16  17
ENDBRANCH  13  16
ENDBRANCH  12  13
ENDBRANCH  11  12
ENDBRANCH   6  11
BRANCH   2  24
HETATM   24  N   UNL     1     -39.791  52.134 -53.938  1.00  0.00    -0.321 N 
HETATM   25  C   UNL     1     -40.289  50.898 -54.314  1.00  0.00     0.218 C 
HETATM   26  C   UNL     1     -39.198  49.864 -54.465  1.00  0.00     0.117 C 
HETATM   27  O   UNL     1     -41.460  50.590 -54.503  1.00  0.00    -0.274 OA
HETATM   28  H   UNL     1     -38.782  52.224 -53.851  1.00  0.00     0.169 HD
ENDBRANCH   2  24
BRANCH   1  29
HETATM   29  C   UNL     1     -40.366  53.230 -51.134  1.00  0.00     0.297 C 
HETATM   30  O   UNL     1     -39.616  53.791 -50.346  1.00  0.00    -0.259 OA
BRANCH  29  31
HETATM   31  O   UNL     1     -40.913  51.995 -50.899  1.00  0.00    -0.318 OA
BRANCH  31  32
HETATM   32  C   UNL     1     -40.156  51.137 -50.027  1.00  0.00     0.174 C 
HETATM   33  C   UNL     1     -39.741  49.868 -50.750  1.00  0.00     0.034 C 
ENDBRANCH  31  32
ENDBRANCH  29  31
ENDBRANCH   1  29
TORSDOF 10
ENDMDL
MODEL 2
REMARK VINA RESULT:      -7.1      2.625      4.084
REMARK  10 active torsions:
REMARK  status: ('A' for Active; 'I' for Inactive)
REMARK    1  A    between atoms: C_2  and  O_3 
REMARK    2  A    between atoms: O_3  and  C_4 
REMARK    3  A    between atoms: C_4  and  C_5 
REMARK    4  A    between atoms: C_6  and  N_7 
REMARK       I    between atoms: N_7  and  C_8 
REMARK    5  A    between atoms: C_14  and  O_15 
REMARK    6  A    between atoms: O_15  and  C_16 
REMARK    7  A    between atoms: C_16  and  C_17 
REMARK    8  A    between atoms: C_17  and  O_18 
REMARK    9  A    between atoms: C_17  and  C_19 
REMARK   10  A    between atoms: C_19  and  N_20 
ROOT
HETATM    1  C   UNL     1     -40.651  53.636 -52.092  1.00  0.00     0.085 A 
HETATM    2  C   UNL     1     -40.671  53.127 -53.382  1.00  0.00     0.094 A 
HETATM    3  S   UNL     1     -41.797  53.914 -54.369  1.00  0.00    -0.068 SA
HETATM    4  C   UNL     1     -42.343  54.963 -53.115  1.00  0.00     0.053 A 
HETATM    5  C   UNL     1     -41.608  54.732 -51.947  1.00  0.00     0.003 A 
HETATM    6  C   UNL     1     -43.387  55.935 -53.208  1.00  0.00     0.104 A 
HETATM    7  C   UNL     1     -43.680  56.665 -52.038  1.00  0.00     0.045 A 
HETATM    8 BR   UNL     1     -45.142  57.869 -51.831  1.00  0.00    -0.048 Br
HETATM    9  C   UNL     1     -42.928  56.488 -50.879  1.00  0.00     0.023 A 
HETATM   10  C   UNL     1     -41.906  55.543 -50.826  1.00  0.00     0.015 A 
ENDROOT
BRANCH   6  11
HETATM   11  O   UNL     1     -44.059  55.990 -54.405  1.00  0.00    -0.346 OA
BRANCH  11  12
HETATM   12  C   UNL     1     -43.922  57.173 -55.190  1.00  0.00     0.209 C 
BRANCH  12  13
HETATM   13  C   UNL     1     -42.434  57.426 -55.469  1.00  0.00     0.168 C 
BRANCH  13  14
HETATM   14  O   UNL     1     -42.049  56.867 -56.741  1.00  0.00    -0.392 OA
HETATM   15  H   UNL     1     -41.353  56.201 -56.540  1.00  0.00     0.210 HD
ENDBRANCH  13  14
BRANCH  13  16
HETATM   16  C   UNL     1     -42.166  58.941 -55.544  1.00  0.00     0.268 C 
BRANCH  16  17
HETATM   17  N   UNL     1     -41.619  59.425 -54.204  1.00  0.00    -0.069 N 
HETATM   18  H   UNL     1     -40.984  60.199 -54.482  1.00  0.00     0.280 HD
HETATM   19  C   UNL     1     -42.701  60.004 -53.328  1.00  0.00     0.235 C 
HETATM   20  C   UNL     1     -42.096  60.581 -52.058  1.00  0.00     0.028 C 
HETATM   21  C   UNL     1     -41.255  59.549 -51.318  1.00  0.00     0.003 C 
HETATM   22  C   UNL     1     -40.184  58.969 -52.233  1.00  0.00     0.028 C 
HETATM   23  C   UNL     1     -40.785  58.385 -53.504  1.00  0.00     0.235 C 
ENDBRANCH  16  17
ENDBRANCH  13  16
ENDBRANCH  12  13
ENDBRANCH  11  12
ENDBRANCH   6  11
BRANCH   2  24
HETATM   24  N   UNL     1     -39.901  52.079 -53.873  1.00  0.00    -0.321 N 
HETATM   25  C   UNL     1     -40.338  50.847 -54.327  1.00  0.00     0.218 C 
HETATM   26  C   UNL     1     -39.193  49.947 -54.731  1.00  0.00     0.117 C 
HETATM   27  O   UNL     1     -41.493  50.445 -54.406  1.00  0.00    -0.274 OA
HETATM   28  H   UNL     1     -38.901  52.259 -53.900  1.00  0.00     0.169 HD
ENDBRANCH   2  24
BRANCH   1  29
HETATM   29  C   UNL     1     -39.805  53.136 -50.998  1.00  0.00     0.297 C 
HETATM   30  O   UNL     1     -39.482  53.816 -50.032  1.00  0.00    -0.259 OA
BRANCH  29  31
HETATM   31  O   UNL     1     -39.426  51.827 -51.152  1.00  0.00    -0.318 OA
BRANCH  31  32
HETATM   32  C   UNL     1     -40.192  50.867 -50.404  1.00  0.00     0.174 C 
HETATM   33  C   UNL     1     -39.897  49.456 -50.878  1.00  0.00     0.034 C 
ENDBRANCH  31  32
ENDBRANCH  29  31
ENDBRANCH   1  29
TORSDOF 10
ENDMDL
MODEL 3
REMARK VINA RESULT:      -7.1      2.044      8.113
REMARK  10 active torsions:
REMARK  status: ('A' for Active; 'I' for Inactive)
REMARK    1  A    between atoms: C_2  and  O_3 
REMARK    2  A    between atoms: O_3  and  C_4 
REMARK    3  A    between atoms: C_4  and  C_5 
REMARK    4  A    between atoms: C_6  and  N_7 
REMARK       I    between atoms: N_7  and  C_8 
REMARK    5  A    between atoms: C_14  and  O_15 
REMARK    6  A    between atoms: O_15  and  C_16 
REMARK    7  A    between atoms: C_16  and  C_17 
REMARK    8  A    between atoms: C_17  and  O_18 
REMARK    9  A    between atoms: C_17  and  C_19 
REMARK   10  A    between atoms: C_19  and  N_20 
ROOT
HETATM    1  C   UNL     1     -43.400  57.817 -56.959  1.00  0.00     0.085 A 
HETATM    2  C   UNL     1     -43.370  56.438 -57.093  1.00  0.00     0.094 A 
HETATM    3  S   UNL     1     -42.537  55.684 -55.827  1.00  0.00    -0.068 SA
HETATM    4  C   UNL     1     -42.144  57.168 -55.043  1.00  0.00     0.053 A 
HETATM    5  C   UNL     1     -42.710  58.241 -55.742  1.00  0.00     0.003 A 
HETATM    6  C   UNL     1     -41.360  57.327 -53.859  1.00  0.00     0.104 A 
HETATM    7  C   UNL     1     -41.146  58.647 -53.412  1.00  0.00     0.045 A 
HETATM    8 BR   UNL     1     -39.985  59.152 -51.988  1.00  0.00    -0.048 Br
HETATM    9  C   UNL     1     -41.742  59.726 -54.062  1.00  0.00     0.023 A 
HETATM   10  C   UNL     1     -42.513  59.535 -55.206  1.00  0.00     0.015 A 
ENDROOT
BRANCH   6  11
HETATM   11  O   UNL     1     -40.818  56.179 -53.332  1.00  0.00    -0.346 OA
BRANCH  11  12
HETATM   12  C   UNL     1     -41.365  55.687 -52.111  1.00  0.00     0.209 C 
BRANCH  12  13
HETATM   13  C   UNL     1     -41.567  54.169 -52.221  1.00  0.00     0.168 C 
BRANCH  13  14
HETATM   14  O   UNL     1     -42.911  53.861 -52.640  1.00  0.00    -0.392 OA
HETATM   15  H   UNL     1     -43.435  54.679 -52.484  1.00  0.00     0.210 HD
ENDBRANCH  13  14
BRANCH  13  16
HETATM   16  C   UNL     1     -40.619  53.592 -53.288  1.00  0.00     0.268 C 
BRANCH  16  17
HETATM   17  N   UNL     1     -40.506  52.081 -53.100  1.00  0.00    -0.069 N 
HETATM   18  H   UNL     1     -41.481  51.806 -52.864  1.00  0.00     0.280 HD
HETATM   19  C   UNL     1     -40.123  51.380 -54.378  1.00  0.00     0.235 C 
HETATM   20  C   UNL     1     -40.140  49.872 -54.176  1.00  0.00     0.028 C 
HETATM   21  C   UNL     1     -39.256  49.454 -53.009  1.00  0.00     0.003 C 
HETATM   22  C   UNL     1     -39.656  50.192 -51.737  1.00  0.00     0.028 C 
HETATM   23  C   UNL     1     -39.635  51.702 -51.933  1.00  0.00     0.235 C 
ENDBRANCH  16  17
ENDBRANCH  13  16
ENDBRANCH  12  13
ENDBRANCH  11  12
ENDBRANCH   6  11
BRANCH   2  24
HETATM   24  N   UNL     1     -43.919  55.691 -58.130  1.00  0.00    -0.321 N 
HETATM   25  C   UNL     1     -43.447  55.563 -59.424  1.00  0.00     0.218 C 
HETATM   26  C   UNL     1     -44.351  54.707 -60.281  1.00  0.00     0.117 C 
HETATM   27  O   UNL     1     -42.438  56.066 -59.906  1.00  0.00    -0.274 OA
HETATM   28  H   UNL     1     -44.764  55.180 -57.888  1.00  0.00     0.169 HD
ENDBRANCH   2  24
BRANCH   1  29
HETATM   29  C   UNL     1     -44.019  58.747 -57.917  1.00  0.00     0.297 C 
HETATM   30  O   UNL     1     -43.374  59.502 -58.634  1.00  0.00    -0.259 OA
BRANCH  29  31
HETATM   31  O   UNL     1     -45.388  58.675 -57.945  1.00  0.00    -0.318 OA
BRANCH  31  32
HETATM   32  C   UNL     1     -45.986  58.734 -59.252  1.00  0.00     0.174 C 
HETATM   33  C   UNL     1     -46.764  57.464 -59.545  1.00  0.00     0.034 C 
ENDBRANCH  31  32
ENDBRANCH  29  31
ENDBRANCH   1  29
TORSDOF 10
ENDMDL
MODEL 4
REMARK VINA RESULT:      -7.0      1.672      2.172
REMARK  10 active torsions:
REMARK  status: ('A' for Active; 'I' for Inactive)
REMARK    1  A    between atoms: C_2  and  O_3 
REMARK    2  A    between atoms: O_3  and  C_4 
REMARK    3  A    between atoms: C_4  and  C_5 
REMARK    4  A    between atoms: C_6  and  N_7 
REMARK       I    between atoms: N_7  and  C_8 
REMARK    5  A    between atoms: C_14  and  O_15 
REMARK    6  A    between atoms: O_15  and  C_16 
REMARK    7  A    between atoms: C_16  and  C_17 
REMARK    8  A    between atoms: C_17  and  O_18 
REMARK    9  A    between atoms: C_17  and  C_19 
REMARK   10  A    between atoms: C_19  and  N_20 
ROOT
HETATM    1  C   UNL     1     -40.965  53.938 -51.659  1.00  0.00     0.085 A 
HETATM    2  C   UNL     1     -41.189  53.532 -52.966  1.00  0.00     0.094 A 
HETATM    3  S   UNL     1     -41.537  54.831 -53.994  1.00  0.00    -0.068 SA
HETATM    4  C   UNL     1     -41.437  56.008 -52.738  1.00  0.00     0.053 A 
HETATM    5  C   UNL     1     -41.079  55.390 -51.534  1.00  0.00     0.003 A 
HETATM    6  C   UNL     1     -41.677  57.411 -52.861  1.00  0.00     0.104 A 
HETATM    7  C   UNL     1     -41.560  58.180 -51.685  1.00  0.00     0.045 A 
HETATM    8 BR   UNL     1     -42.016  60.023 -51.527  1.00  0.00    -0.048 Br
HETATM    9  C   UNL     1     -41.156  57.596 -50.487  1.00  0.00     0.023 A 
HETATM   10  C   UNL     1     -40.915  56.226 -50.405  1.00  0.00     0.015 A 
ENDROOT
BRANCH   6  11
HETATM   11  O   UNL     1     -42.088  57.850 -54.097  1.00  0.00    -0.346 OA
BRANCH  11  12
HETATM   12  C   UNL     1     -43.468  58.167 -54.263  1.00  0.00     0.209 C 
BRANCH  12  13
HETATM   13  C   UNL     1     -44.104  57.168 -55.240  1.00  0.00     0.168 C 
BRANCH  13  14
HETATM   14  O   UNL     1     -45.180  56.446 -54.607  1.00  0.00    -0.392 OA
HETATM   15  H   UNL     1     -44.868  56.248 -53.696  1.00  0.00     0.210 HD
ENDBRANCH  13  14
BRANCH  13  16
HETATM   16  C   UNL     1     -44.712  57.922 -56.437  1.00  0.00     0.268 C 
BRANCH  16  17
HETATM   17  N   UNL     1     -44.730  57.005 -57.657  1.00  0.00    -0.069 N 
HETATM   18  H   UNL     1     -45.210  56.156 -57.298  1.00  0.00     0.280 HD
HETATM   19  C   UNL     1     -45.564  57.570 -58.778  1.00  0.00     0.235 C 
HETATM   20  C   UNL     1     -45.653  56.573 -59.922  1.00  0.00     0.028 C 
HETATM   21  C   UNL     1     -44.271  56.143 -60.400  1.00  0.00     0.003 C 
HETATM   22  C   UNL     1     -43.447  55.594 -59.242  1.00  0.00     0.028 C 
HETATM   23  C   UNL     1     -43.350  56.591 -58.096  1.00  0.00     0.235 C 
ENDBRANCH  16  17
ENDBRANCH  13  16
ENDBRANCH  12  13
ENDBRANCH  11  12
ENDBRANCH   6  11
BRANCH   2  24
HETATM   24  N   UNL     1     -41.169  52.228 -53.447  1.00  0.00    -0.321 N 
HETATM   25  C   UNL     1     -40.083  51.521 -53.932  1.00  0.00     0.218 C 
HETATM   26  C   UNL     1     -40.469  50.143 -54.419  1.00  0.00     0.117 C 
HETATM   27  O   UNL     1     -38.920  51.897 -54.011  1.00  0.00    -0.274 OA
HETATM   28  H   UNL     1     -42.067  51.752 -53.428  1.00  0.00     0.169 HD
ENDBRANCH   2  24
BRANCH   1  29
HETATM   29  C   UNL     1     -40.675  53.038 -50.532  1.00  0.00     0.297 C 
HETATM   30  O   UNL     1     -41.083  53.232 -49.394  1.00  0.00    -0.259 OA
BRANCH  29  31
HETATM   31  O   UNL     1     -39.919  51.949 -50.881  1.00  0.00    -0.318 OA
BRANCH  31  32
HETATM   32  C   UNL     1     -40.248  50.722 -50.204  1.00  0.00     0.174 C 
HETATM   33  C   UNL     1     -39.573  49.540 -50.875  1.00  0.00     0.034 C 
ENDBRANCH  31  32
ENDBRANCH  29  31
ENDBRANCH   1  29
TORSDOF 10
ENDMDL
MODEL 5
REMARK VINA RESULT:      -6.9      3.137      5.704
REMARK  10 active torsions:
REMARK  status: ('A' for Active; 'I' for Inactive)
REMARK    1  A    between atoms: C_2  and  O_3 
REMARK    2  A    between atoms: O_3  and  C_4 
REMARK    3  A    between atoms: C_4  and  C_5 
REMARK    4  A    between atoms: C_6  and  N_7 
REMARK       I    between atoms: N_7  and  C_8 
REMARK    5  A    between atoms: C_14  and  O_15 
REMARK    6  A    between atoms: O_15  and  C_16 
REMARK    7  A    between atoms: C_16  and  C_17 
REMARK    8  A    between atoms: C_17  and  O_18 
REMARK    9  A    between atoms: C_17  and  C_19 
REMARK   10  A    between atoms: C_19  and  N_20 
ROOT
HETATM    1  C   UNL     1     -41.915  54.453 -53.690  1.00  0.00     0.085 A 
HETATM    2  C   UNL     1     -42.279  54.254 -52.366  1.00  0.00     0.094 A 
HETATM    3  S   UNL     1     -43.500  55.314 -51.867  1.00  0.00    -0.068 SA
HETATM    4  C   UNL     1     -43.589  56.119 -53.389  1.00  0.00     0.053 A 
HETATM    5  C   UNL     1     -42.705  55.523 -54.296  1.00  0.00     0.003 A 
HETATM    6  C   UNL     1     -44.422  57.232 -53.719  1.00  0.00     0.104 A 
HETATM    7  C   UNL     1     -44.306  57.746 -55.027  1.00  0.00     0.045 A 
HETATM    8 BR   UNL     1     -45.145  59.334 -55.664  1.00  0.00    -0.048 Br
HETATM    9  C   UNL     1     -43.471  57.137 -55.962  1.00  0.00     0.023 A 
HETATM   10  C   UNL     1     -42.683  56.043 -55.611  1.00  0.00     0.015 A 
ENDROOT
BRANCH   6  11
HETATM   11  O   UNL     1     -45.182  57.746 -52.695  1.00  0.00    -0.346 OA
BRANCH  11  12
HETATM   12  C   UNL     1     -45.237  59.164 -52.557  1.00  0.00     0.209 C 
BRANCH  12  13
HETATM   13  C   UNL     1     -45.052  59.537 -51.079  1.00  0.00     0.168 C 
BRANCH  13  14
HETATM   14  O   UNL     1     -45.219  58.381 -50.234  1.00  0.00    -0.392 OA
HETATM   15  H   UNL     1     -45.419  58.732 -49.337  1.00  0.00     0.210 HD
ENDBRANCH  13  14
BRANCH  13  16
HETATM   16  C   UNL     1     -43.624  60.063 -50.847  1.00  0.00     0.268 C 
BRANCH  16  17
HETATM   17  N   UNL     1     -42.653  59.304 -51.748  1.00  0.00    -0.069 N 
HETATM   18  H   UNL     1     -43.258  58.576 -52.175  1.00  0.00     0.280 HD
HETATM   19  C   UNL     1     -42.117  60.172 -52.858  1.00  0.00     0.235 C 
HETATM   20  C   UNL     1     -41.251  59.348 -53.798  1.00  0.00     0.028 C 
HETATM   21  C   UNL     1     -40.137  58.628 -53.048  1.00  0.00     0.003 C 
HETATM   22  C   UNL     1     -40.708  57.775 -51.923  1.00  0.00     0.028 C 
HETATM   23  C   UNL     1     -41.571  58.597 -50.975  1.00  0.00     0.235 C 
ENDBRANCH  16  17
ENDBRANCH  13  16
ENDBRANCH  12  13
ENDBRANCH  11  12
ENDBRANCH   6  11
BRANCH   2  24
HETATM   24  N   UNL     1     -41.735  53.328 -51.485  1.00  0.00    -0.321 N 
HETATM   25  C   UNL     1     -40.697  53.518 -50.589  1.00  0.00     0.218 C 
HETATM   26  C   UNL     1     -40.349  52.253 -49.839  1.00  0.00     0.117 C 
HETATM   27  O   UNL     1     -40.068  54.549 -50.382  1.00  0.00    -0.274 OA
HETATM   28  H   UNL     1     -42.167  52.408 -51.511  1.00  0.00     0.169 HD
ENDBRANCH   2  24
BRANCH   1  29
HETATM   29  C   UNL     1     -40.860  53.710 -54.398  1.00  0.00     0.297 C 
HETATM   30  O   UNL     1     -39.920  54.253 -54.963  1.00  0.00    -0.259 OA
BRANCH  29  31
HETATM   31  O   UNL     1     -41.020  52.350 -54.348  1.00  0.00    -0.318 OA
BRANCH  31  32
HETATM   32  C   UNL     1     -39.876  51.606 -53.893  1.00  0.00     0.174 C 
HETATM   33  C   UNL     1     -39.910  50.186 -54.427  1.00  0.00     0.034 C 
ENDBRANCH  31  32
ENDBRANCH  29  31
ENDBRANCH   1  29
TORSDOF 10
ENDMDL
MODEL 6
REMARK VINA RESULT:      -6.9      1.898      2.632
REMARK  10 active torsions:
REMARK  status: ('A' for Active; 'I' for Inactive)
REMARK    1  A    between atoms: C_2  and  O_3 
REMARK    2  A    between atoms: O_3  and  C_4 
REMARK    3  A    between atoms: C_4  and  C_5 
REMARK    4  A    between atoms: C_6  and  N_7 
REMARK       I    between atoms: N_7  and  C_8 
REMARK    5  A    between atoms: C_14  and  O_15 
REMARK    6  A    between atoms: O_15  and  C_16 
REMARK    7  A    between atoms: C_16  and  C_17 
REMARK    8  A    between atoms: C_17  and  O_18 
REMARK    9  A    between atoms: C_17  and  C_19 
REMARK   10  A    between atoms: C_19  and  N_20 
ROOT
HETATM    1  C   UNL     1     -42.339  55.121 -52.630  1.00  0.00     0.085 A 
HETATM    2  C   UNL     1     -41.305  54.505 -53.319  1.00  0.00     0.094 A 
HETATM    3  S   UNL     1     -41.180  55.049 -54.917  1.00  0.00    -0.068 SA
HETATM    4  C   UNL     1     -42.525  56.119 -54.784  1.00  0.00     0.053 A 
HETATM    5  C   UNL     1     -43.032  56.088 -53.480  1.00  0.00     0.003 A 
HETATM    6  C   UNL     1     -43.076  56.931 -55.822  1.00  0.00     0.104 A 
HETATM    7  C   UNL     1     -44.201  57.712 -55.487  1.00  0.00     0.045 A 
HETATM    8 BR   UNL     1     -45.243  58.725 -56.720  1.00  0.00    -0.048 Br
HETATM    9  C   UNL     1     -44.691  57.737 -54.183  1.00  0.00     0.023 A 
HETATM   10  C   UNL     1     -44.121  56.944 -53.190  1.00  0.00     0.015 A 
ENDROOT
BRANCH   6  11
HETATM   11  O   UNL     1     -42.507  56.794 -57.066  1.00  0.00    -0.346 OA
BRANCH  11  12
HETATM   12  C   UNL     1     -43.194  55.992 -58.025  1.00  0.00     0.209 C 
BRANCH  12  13
HETATM   13  C   UNL     1     -42.991  56.590 -59.424  1.00  0.00     0.168 C 
BRANCH  13  14
HETATM   14  O   UNL     1     -41.762  56.117 -60.011  1.00  0.00    -0.392 OA
HETATM   15  H   UNL     1     -41.272  55.673 -59.283  1.00  0.00     0.210 HD
ENDBRANCH  13  14
BRANCH  13  16
HETATM   16  C   UNL     1     -44.135  56.146 -60.354  1.00  0.00     0.268 C 
BRANCH  16  17
HETATM   17  N   UNL     1     -45.014  57.349 -60.685  1.00  0.00    -0.069 N 
HETATM   18  H   UNL     1     -45.100  57.292 -61.720  1.00  0.00     0.280 HD
HETATM   19  C   UNL     1     -46.396  57.218 -60.098  1.00  0.00     0.235 C 
HETATM   20  C   UNL     1     -47.272  58.376 -60.551  1.00  0.00     0.028 C 
HETATM   21  C   UNL     1     -46.637  59.721 -60.223  1.00  0.00     0.003 C 
HETATM   22  C   UNL     1     -45.236  59.815 -60.815  1.00  0.00     0.028 C 
HETATM   23  C   UNL     1     -44.354  58.662 -60.359  1.00  0.00     0.235 C 
ENDBRANCH  16  17
ENDBRANCH  13  16
ENDBRANCH  12  13
ENDBRANCH  11  12
ENDBRANCH   6  11
BRANCH   2  24
HETATM   24  N   UNL     1     -40.443  53.531 -52.828  1.00  0.00    -0.321 N 
HETATM   25  C   UNL     1     -40.271  52.239 -53.293  1.00  0.00     0.218 C 
HETATM   26  C   UNL     1     -39.281  51.458 -52.461  1.00  0.00     0.117 C 
HETATM   27  O   UNL     1     -40.829  51.707 -54.245  1.00  0.00    -0.274 OA
HETATM   28  H   UNL     1     -39.876  53.822 -52.036  1.00  0.00     0.169 HD
ENDBRANCH   2  24
BRANCH   1  29
HETATM   29  C   UNL     1     -42.718  54.832 -51.238  1.00  0.00     0.297 C 
HETATM   30  O   UNL     1     -43.690  54.153 -50.932  1.00  0.00    -0.259 OA
BRANCH  29  31
HETATM   31  O   UNL     1     -41.867  55.382 -50.314  1.00  0.00    -0.318 OA
BRANCH  31  32
HETATM   32  C   UNL     1     -41.368  54.476 -49.314  1.00  0.00     0.174 C 
HETATM   33  C   UNL     1     -39.867  54.299 -49.450  1.00  0.00     0.034 C 
ENDBRANCH  31  32
ENDBRANCH  29  31
ENDBRANCH   1  29
TORSDOF 10
ENDMDL
MODEL 7
REMARK VINA RESULT:      -6.8      1.714      2.193
REMARK  10 active torsions:
REMARK  status: ('A' for Active; 'I' for Inactive)
REMARK    1  A    between atoms: C_2  and  O_3 
REMARK    2  A    between atoms: O_3  and  C_4 
REMARK    3  A    between atoms: C_4  and  C_5 
REMARK    4  A    between atoms: C_6  and  N_7 
REMARK       I    between atoms: N_7  and  C_8 
REMARK    5  A    between atoms: C_14  and  O_15 
REMARK    6  A    between atoms: O_15  and  C_16 
REMARK    7  A    between atoms: C_16  and  C_17 
REMARK    8  A    between atoms: C_17  and  O_18 
REMARK    9  A    between atoms: C_17  and  C_19 
REMARK   10  A    between atoms: C_19  and  N_20 
ROOT
HETATM    1  C   UNL     1     -42.656  54.985 -52.086  1.00  0.00     0.085 A 
HETATM    2  C   UNL     1     -42.315  54.398 -53.295  1.00  0.00     0.094 A 
HETATM    3  S   UNL     1     -42.700  55.379 -54.620  1.00  0.00    -0.068 SA
HETATM    4  C   UNL     1     -43.374  56.633 -53.648  1.00  0.00     0.053 A 
HETATM    5  C   UNL     1     -43.247  56.307 -52.293  1.00  0.00     0.003 A 
HETATM    6  C   UNL     1     -43.983  57.839 -54.112  1.00  0.00     0.104 A 
HETATM    7  C   UNL     1     -44.491  58.713 -53.129  1.00  0.00     0.045 A 
HETATM    8 BR   UNL     1     -45.519  60.279 -53.475  1.00  0.00    -0.048 Br
HETATM    9  C   UNL     1     -44.331  58.434 -51.774  1.00  0.00     0.023 A 
HETATM   10  C   UNL     1     -43.718  57.255 -51.354  1.00  0.00     0.015 A 
ENDROOT
BRANCH   6  11
HETATM   11  O   UNL     1     -44.093  57.977 -55.475  1.00  0.00    -0.346 OA
BRANCH  11  12
HETATM   12  C   UNL     1     -43.154  58.825 -56.134  1.00  0.00     0.209 C 
BRANCH  12  13
HETATM   13  C   UNL     1     -43.141  58.497 -57.634  1.00  0.00     0.168 C 
BRANCH  13  14
HETATM   14  O   UNL     1     -42.046  59.163 -58.295  1.00  0.00    -0.392 OA
HETATM   15  H   UNL     1     -42.218  60.126 -58.191  1.00  0.00     0.210 HD
ENDBRANCH  13  14
BRANCH  13  16
HETATM   16  C   UNL     1     -42.936  56.984 -57.836  1.00  0.00     0.268 C 
BRANCH  16  17
HETATM   17  N   UNL     1     -44.185  56.385 -58.476  1.00  0.00    -0.069 N 
HETATM   18  H   UNL     1     -44.631  55.884 -57.682  1.00  0.00     0.280 HD
HETATM   19  C   UNL     1     -45.143  57.449 -58.949  1.00  0.00     0.235 C 
HETATM   20  C   UNL     1     -46.422  56.811 -59.468  1.00  0.00     0.028 C 
HETATM   21  C   UNL     1     -46.135  55.779 -60.552  1.00  0.00     0.003 C 
HETATM   22  C   UNL     1     -45.151  54.730 -60.050  1.00  0.00     0.028 C 
HETATM   23  C   UNL     1     -43.866  55.363 -59.534  1.00  0.00     0.235 C 
ENDBRANCH  16  17
ENDBRANCH  13  16
ENDBRANCH  12  13
ENDBRANCH  11  12
ENDBRANCH   6  11
BRANCH   2  24
HETATM   24  N   UNL     1     -41.741  53.146 -53.478  1.00  0.00    -0.321 N 
HETATM   25  C   UNL     1     -40.620  52.828 -54.225  1.00  0.00     0.218 C 
HETATM   26  C   UNL     1     -40.337  51.344 -54.230  1.00  0.00     0.117 C 
HETATM   27  O   UNL     1     -39.899  53.594 -54.854  1.00  0.00    -0.274 OA
HETATM   28  H   UNL     1     -42.210  52.385 -52.994  1.00  0.00     0.169 HD
ENDBRANCH   2  24
BRANCH   1  29
HETATM   29  C   UNL     1     -42.478  54.365 -50.764  1.00  0.00     0.297 C 
HETATM   30  O   UNL     1     -43.370  54.293 -49.929  1.00  0.00    -0.259 OA
BRANCH  29  31
HETATM   31  O   UNL     1     -41.220  53.858 -50.562  1.00  0.00    -0.318 OA
BRANCH  31  32
HETATM   32  C   UNL     1     -40.351  54.661 -49.744  1.00  0.00     0.174 C 
HETATM   33  C   UNL     1     -40.247  54.086 -48.343  1.00  0.00     0.034 C 
ENDBRANCH  31  32
ENDBRANCH  29  31
ENDBRANCH   1  29
TORSDOF 10
ENDMDL
MODEL 8
REMARK VINA RESULT:      -6.6      2.287      8.185
REMARK  10 active torsions:
REMARK  status: ('A' for Active; 'I' for Inactive)
REMARK    1  A    between atoms: C_2  and  O_3 
REMARK    2  A    between atoms: O_3  and  C_4 
REMARK    3  A    between atoms: C_4  and  C_5 
REMARK    4  A    between atoms: C_6  and  N_7 
REMARK       I    between atoms: N_7  and  C_8 
REMARK    5  A    between atoms: C_14  and  O_15 
REMARK    6  A    between atoms: O_15  and  C_16 
REMARK    7  A    between atoms: C_16  and  C_17 
REMARK    8  A    between atoms: C_17  and  O_18 
REMARK    9  A    between atoms: C_17  and  C_19 
REMARK   10  A    between atoms: C_19  and  N_20 
ROOT
HETATM    1  C   UNL     1     -42.716  58.402 -57.084  1.00  0.00     0.085 A 
HETATM    2  C   UNL     1     -42.855  57.029 -57.217  1.00  0.00     0.094 A 
HETATM    3  S   UNL     1     -42.648  56.214 -55.748  1.00  0.00    -0.068 SA
HETATM    4  C   UNL     1     -42.331  57.654 -54.856  1.00  0.00     0.053 A 
HETATM    5  C   UNL     1     -42.441  58.769 -55.696  1.00  0.00     0.003 A 
HETATM    6  C   UNL     1     -41.999  57.745 -53.470  1.00  0.00     0.104 A 
HETATM    7  C   UNL     1     -41.754  59.036 -52.958  1.00  0.00     0.045 A 
HETATM    8 BR   UNL     1     -41.105  59.421 -51.209  1.00  0.00    -0.048 Br
HETATM    9  C   UNL     1     -41.908  60.163 -53.762  1.00  0.00     0.023 A 
HETATM   10  C   UNL     1     -42.248  60.041 -55.107  1.00  0.00     0.015 A 
ENDROOT
BRANCH   6  11
HETATM   11  O   UNL     1     -41.861  56.552 -52.800  1.00  0.00    -0.346 OA
BRANCH  11  12
HETATM   12  C   UNL     1     -42.936  56.135 -51.960  1.00  0.00     0.209 C 
BRANCH  12  13
HETATM   13  C   UNL     1     -42.461  54.980 -51.067  1.00  0.00     0.168 C 
BRANCH  13  14
HETATM   14  O   UNL     1     -43.149  53.758 -51.401  1.00  0.00    -0.392 OA
HETATM   15  H   UNL     1     -43.916  53.707 -50.787  1.00  0.00     0.210 HD
ENDBRANCH  13  14
BRANCH  13  16
HETATM   16  C   UNL     1     -40.959  54.728 -51.292  1.00  0.00     0.268 C 
BRANCH  16  17
HETATM   17  N   UNL     1     -40.773  53.406 -52.032  1.00  0.00    -0.069 N 
HETATM   18  H   UNL     1     -41.697  52.945 -51.913  1.00  0.00     0.280 HD
HETATM   19  C   UNL     1     -40.546  53.612 -53.508  1.00  0.00     0.235 C 
HETATM   20  C   UNL     1     -40.486  52.271 -54.223  1.00  0.00     0.028 C 
HETATM   21  C   UNL     1     -39.438  51.353 -53.607  1.00  0.00     0.003 C 
HETATM   22  C   UNL     1     -39.684  51.180 -52.113  1.00  0.00     0.028 C 
HETATM   23  C   UNL     1     -39.739  52.519 -51.392  1.00  0.00     0.235 C 
ENDBRANCH  16  17
ENDBRANCH  13  16
ENDBRANCH  12  13
ENDBRANCH  11  12
ENDBRANCH   6  11
BRANCH   2  24
HETATM   24  N   UNL     1     -43.113  56.329 -58.390  1.00  0.00    -0.321 N 
HETATM   25  C   UNL     1     -44.278  56.326 -59.137  1.00  0.00     0.218 C 
HETATM   26  C   UNL     1     -44.196  55.392 -60.322  1.00  0.00     0.117 C 
HETATM   27  O   UNL     1     -45.305  56.959 -58.923  1.00  0.00    -0.274 OA
HETATM   28  H   UNL     1     -42.340  55.761 -58.728  1.00  0.00     0.169 HD
ENDBRANCH   2  24
BRANCH   1  29
HETATM   29  C   UNL     1     -42.806  59.372 -58.187  1.00  0.00     0.297 C 
HETATM   30  O   UNL     1     -43.665  60.242 -58.248  1.00  0.00    -0.259 OA
BRANCH  29  31
HETATM   31  O   UNL     1     -41.824  59.221 -59.131  1.00  0.00    -0.318 OA
BRANCH  31  32
HETATM   32  C   UNL     1     -42.281  59.114 -60.491  1.00  0.00     0.174 C 
HETATM   33  C   UNL     1     -41.857  60.327 -61.298  1.00  0.00     0.034 C 
ENDBRANCH  31  32
ENDBRANCH  29  31
ENDBRANCH   1  29
TORSDOF 10
ENDMDL
MODEL 9
REMARK VINA RESULT:      -6.6      2.754      3.786
REMARK  10 active torsions:
REMARK  status: ('A' for Active; 'I' for Inactive)
REMARK    1  A    between atoms: C_2  and  O_3 
REMARK    2  A    between atoms: O_3  and  C_4 
REMARK    3  A    between atoms: C_4  and  C_5 
REMARK    4  A    between atoms: C_6  and  N_7 
REMARK       I    between atoms: N_7  and  C_8 
REMARK    5  A    between atoms: C_14  and  O_15 
REMARK    6  A    between atoms: O_15  and  C_16 
REMARK    7  A    between atoms: C_16  and  C_17 
REMARK    8  A    between atoms: C_17  and  O_18 
REMARK    9  A    between atoms: C_17  and  C_19 
REMARK   10  A    between atoms: C_19  and  N_20 
ROOT
HETATM    1  C   UNL     1     -42.534  55.259 -52.774  1.00  0.00     0.085 A 
HETATM    2  C   UNL     1     -41.380  54.770 -53.366  1.00  0.00     0.094 A 
HETATM    3  S   UNL     1     -41.041  55.528 -54.841  1.00  0.00    -0.068 SA
HETATM    4  C   UNL     1     -42.439  56.534 -54.783  1.00  0.00     0.053 A 
HETATM    5  C   UNL     1     -43.136  56.314 -53.589  1.00  0.00     0.003 A 
HETATM    6  C   UNL     1     -42.865  57.464 -55.780  1.00  0.00     0.104 A 
HETATM    7  C   UNL     1     -44.063  58.163 -55.527  1.00  0.00     0.045 A 
HETATM    8 BR   UNL     1     -44.954  59.305 -56.766  1.00  0.00    -0.048 Br
HETATM    9  C   UNL     1     -44.745  57.998 -54.323  1.00  0.00     0.023 A 
HETATM   10  C   UNL     1     -44.295  57.093 -53.365  1.00  0.00     0.015 A 
ENDROOT
BRANCH   6  11
HETATM   11  O   UNL     1     -42.108  57.512 -56.927  1.00  0.00    -0.346 OA
BRANCH  11  12
HETATM   12  C   UNL     1     -42.631  56.879 -58.093  1.00  0.00     0.209 C 
BRANCH  12  13
HETATM   13  C   UNL     1     -42.063  57.568 -59.342  1.00  0.00     0.168 C 
BRANCH  13  14
HETATM   14  O   UNL     1     -41.629  56.595 -60.312  1.00  0.00    -0.392 OA
HETATM   15  H   UNL     1     -40.800  56.955 -60.700  1.00  0.00     0.210 HD
ENDBRANCH  13  14
BRANCH  13  16
HETATM   16  C   UNL     1     -43.157  58.417 -60.014  1.00  0.00     0.268 C 
BRANCH  16  17
HETATM   17  N   UNL     1     -42.677  59.862 -60.130  1.00  0.00    -0.069 N 
HETATM   18  H   UNL     1     -43.568  60.397 -60.165  1.00  0.00     0.280 HD
HETATM   19  C   UNL     1     -41.918  60.305 -58.906  1.00  0.00     0.235 C 
HETATM   20  C   UNL     1     -41.564  61.781 -59.013  1.00  0.00     0.028 C 
HETATM   21  C   UNL     1     -40.803  62.083 -60.297  1.00  0.00     0.003 C 
HETATM   22  C   UNL     1     -41.587  61.607 -61.514  1.00  0.00     0.028 C 
HETATM   23  C   UNL     1     -41.939  60.129 -61.415  1.00  0.00     0.235 C 
ENDBRANCH  16  17
ENDBRANCH  13  16
ENDBRANCH  12  13
ENDBRANCH  11  12
ENDBRANCH   6  11
BRANCH   2  24
HETATM   24  N   UNL     1     -40.557  53.762 -52.877  1.00  0.00    -0.321 N 
HETATM   25  C   UNL     1     -40.417  52.473 -53.361  1.00  0.00     0.218 C 
HETATM   26  C   UNL     1     -39.465  51.649 -52.525  1.00  0.00     0.117 C 
HETATM   27  O   UNL     1     -40.974  51.974 -54.331  1.00  0.00    -0.274 OA
HETATM   28  H   UNL     1     -39.995  54.023 -52.071  1.00  0.00     0.169 HD
ENDBRANCH   2  24
BRANCH   1  29
HETATM   29  C   UNL     1     -43.105  54.775 -51.507  1.00  0.00     0.297 C 
HETATM   30  O   UNL     1     -43.605  53.665 -51.375  1.00  0.00    -0.259 OA
BRANCH  29  31
HETATM   31  O   UNL     1     -43.008  55.680 -50.482  1.00  0.00    -0.318 OA
BRANCH  31  32
HETATM   32  C   UNL     1     -41.671  55.978 -50.041  1.00  0.00     0.174 C 
HETATM   33  C   UNL     1     -41.122  54.851 -49.186  1.00  0.00     0.034 C 
ENDBRANCH  31  32
ENDBRANCH  29  31
ENDBRANCH   1  29
TORSDOF 10
ENDMDL
MODEL 10
REMARK VINA RESULT:      -6.5      3.320      5.528
REMARK  10 active torsions:
REMARK  status: ('A' for Active; 'I' for Inactive)
REMARK    1  A    between atoms: C_2  and  O_3 
REMARK    2  A    between atoms: O_3  and  C_4 
REMARK    3  A    between atoms: C_4  and  C_5 
REMARK    4  A    between atoms: C_6  and  N_7 
REMARK       I    between atoms: N_7  and  C_8 
REMARK    5  A    between atoms: C_14  and  O_15 
REMARK    6  A    between atoms: O_15  and  C_16 
REMARK    7  A    between atoms: C_16  and  C_17 
REMARK    8  A    between atoms: C_17  and  O_18 
REMARK    9  A    between atoms: C_17  and  C_19 
REMARK   10  A    between atoms: C_19  and  N_20 
ROOT
HETATM    1  C   UNL     1     -41.141  53.576 -51.999  1.00  0.00     0.085 A 
HETATM    2  C   UNL     1     -41.554  54.353 -50.928  1.00  0.00     0.094 A 
HETATM    3  S   UNL     1     -42.412  55.727 -51.420  1.00  0.00    -0.068 SA
HETATM    4  C   UNL     1     -42.252  55.373 -53.099  1.00  0.00     0.053 A 
HETATM    5  C   UNL     1     -41.578  54.158 -53.268  1.00  0.00     0.003 A 
HETATM    6  C   UNL     1     -42.718  56.171 -54.188  1.00  0.00     0.104 A 
HETATM    7  C   UNL     1     -42.448  55.692 -55.487  1.00  0.00     0.045 A 
HETATM    8 BR   UNL     1     -42.780  56.647 -57.102  1.00  0.00    -0.048 Br
HETATM    9  C   UNL     1     -41.825  54.461 -55.679  1.00  0.00     0.023 A 
HETATM   10  C   UNL     1     -41.396  53.700 -54.594  1.00  0.00     0.015 A 
ENDROOT
BRANCH   6  11
HETATM   11  O   UNL     1     -43.299  57.372 -53.856  1.00  0.00    -0.346 OA
BRANCH  11  12
HETATM   12  C   UNL     1     -44.708  57.499 -54.035  1.00  0.00     0.209 C 
BRANCH  12  13
HETATM   13  C   UNL     1     -44.995  58.698 -54.951  1.00  0.00     0.168 C 
BRANCH  13  14
HETATM   14  O   UNL     1     -46.095  58.413 -55.838  1.00  0.00    -0.392 OA
HETATM   15  H   UNL     1     -46.661  59.217 -55.828  1.00  0.00     0.210 HD
ENDBRANCH  13  14
BRANCH  13  16
HETATM   16  C   UNL     1     -45.405  59.916 -54.103  1.00  0.00     0.268 C 
BRANCH  16  17
HETATM   17  N   UNL     1     -44.605  59.921 -52.803  1.00  0.00    -0.069 N 
HETATM   18  H   UNL     1     -44.340  58.921 -52.694  1.00  0.00     0.280 HD
HETATM   19  C   UNL     1     -43.337  60.727 -52.922  1.00  0.00     0.235 C 
HETATM   20  C   UNL     1     -42.515  60.606 -51.648  1.00  0.00     0.028 C 
HETATM   21  C   UNL     1     -43.326  60.996 -50.419  1.00  0.00     0.003 C 
HETATM   22  C   UNL     1     -44.608  60.177 -50.337  1.00  0.00     0.028 C 
HETATM   23  C   UNL     1     -45.438  60.300 -51.607  1.00  0.00     0.235 C 
ENDBRANCH  16  17
ENDBRANCH  13  16
ENDBRANCH  12  13
ENDBRANCH  11  12
ENDBRANCH   6  11
BRANCH   2  24
HETATM   24  N   UNL     1     -41.312  54.109 -49.581  1.00  0.00    -0.321 N 
HETATM   25  C   UNL     1     -40.103  54.180 -48.911  1.00  0.00     0.218 C 
HETATM   26  C   UNL     1     -40.231  53.786 -47.457  1.00  0.00     0.117 C 
HETATM   27  O   UNL     1     -39.011  54.496 -49.369  1.00  0.00    -0.274 OA
HETATM   28  H   UNL     1     -42.133  53.853 -49.039  1.00  0.00     0.169 HD
ENDBRANCH   2  24
BRANCH   1  29
HETATM   29  C   UNL     1     -40.347  52.342 -51.893  1.00  0.00     0.297 C 
HETATM   30  O   UNL     1     -40.222  51.710 -50.852  1.00  0.00    -0.259 OA
BRANCH  29  31
HETATM   31  O   UNL     1     -39.775  51.955 -53.077  1.00  0.00    -0.318 OA
BRANCH  31  32
HETATM   32  C   UNL     1     -39.547  50.542 -53.224  1.00  0.00     0.174 C 
HETATM   33  C   UNL     1     -39.994  50.064 -54.593  1.00  0.00     0.034 C 
ENDBRANCH  31  32
ENDBRANCH  29  31
ENDBRANCH   1  29
TORSDOF 10
ENDMDL
