MODEL 1
REMARK VINA RESULT:      -8.7      0.000      0.000
REMARK  6 active torsions:
REMARK  status: ('A' for Active; 'I' for Inactive)
REMARK       I    between atoms: C_2  and  N_3 
REMARK    1  A    between atoms: N_3  and  C_4 
REMARK    2  A    between atoms: C_4  and  C_5 
REMARK    3  A    between atoms: C_4  and  C_11 
REMARK    4  A    between atoms: C_11  and  C_12 
REMARK       I    between atoms: C_12  and  N_13 
REMARK    5  A    between atoms: N_13  and  C_14 
REMARK    6  A    between atoms: C_16  and  C_17 
ROOT
HETATM    1  C   UNL     1     -41.742  54.718 -55.213  1.00  0.00     0.224 C 
HETATM    2  N   UNL     1     -41.615  55.890 -55.916  1.00  0.00    -0.327 N 
HETATM    3  O   UNL     1     -42.731  53.983 -55.215  1.00  0.00    -0.273 OA
HETATM    4  H   UNL     1     -40.692  56.331 -55.920  1.00  0.00     0.169 HD
ENDROOT
BRANCH   1   5
HETATM    5  C   UNL     1     -40.566  54.374 -54.313  1.00  0.00     0.133 C 
BRANCH   5   6
HETATM    6  C   UNL     1     -40.807  53.532 -53.044  1.00  0.00     0.126 C 
BRANCH   6   7
HETATM    7  N   UNL     1     -40.582  54.294 -51.809  1.00  0.00    -0.352 N 
HETATM    8  C   UNL     1     -41.547  54.610 -50.888  1.00  0.00     0.214 C 
HETATM    9  C   UNL     1     -41.043  55.318 -49.660  1.00  0.00     0.117 C 
HETATM   10  O   UNL     1     -42.734  54.344 -51.037  1.00  0.00    -0.274 OA
HETATM   11  H   UNL     1     -39.637  54.620 -51.646  1.00  0.00     0.163 HD
ENDBRANCH   6   7
BRANCH   6  12
HETATM   12  C   UNL     1     -40.290  52.102 -53.029  1.00  0.00    -0.035 A 
HETATM   13  C   UNL     1     -39.845  51.463 -51.861  1.00  0.00     0.009 A 
HETATM   14  C   UNL     1     -39.409  50.134 -51.883  1.00  0.00     0.001 A 
HETATM   15  C   UNL     1     -39.418  49.416 -53.074  1.00  0.00     0.000 A 
HETATM   16  C   UNL     1     -39.865  50.023 -54.243  1.00  0.00     0.001 A 
HETATM   17  C   UNL     1     -40.303  51.350 -54.219  1.00  0.00     0.009 A 
ENDBRANCH   6  12
ENDBRANCH   5   6
ENDBRANCH   1   5
BRANCH   2  18
HETATM   18  C   UNL     1     -42.603  56.560 -56.663  1.00  0.00     0.035 A 
HETATM   19  C   UNL     1     -43.114  56.085 -57.874  1.00  0.00     0.042 A 
HETATM   20  C   UNL     1     -44.160  56.758 -58.530  1.00  0.00    -0.021 A 
HETATM   21  C   UNL     1     -44.660  57.940 -57.969  1.00  0.00     0.012 A 
HETATM   22  C   UNL     1     -44.147  58.427 -56.766  1.00  0.00     0.003 A 
HETATM   23  C   UNL     1     -43.135  57.729 -56.110  1.00  0.00     0.029 A 
BRANCH  20  24
HETATM   24  C   UNL     1     -44.758  56.219 -59.743  1.00  0.00     0.010 A 
HETATM   25  C   UNL     1     -44.339  55.165 -60.590  1.00  0.00     0.152 A 
HETATM   26  N   UNL     1     -45.155  54.976 -61.630  1.00  0.00    -0.187 NA
HETATM   27  N   UNL     1     -46.099  55.914 -61.458  1.00  0.00    -0.289 N 
HETATM   28  H   UNL     1     -46.846  55.979 -62.142  1.00  0.00     0.188 HD
HETATM   29  C   UNL     1     -45.911  56.679 -60.344  1.00  0.00     0.123 A 
ENDBRANCH  20  24
ENDBRANCH   2  18
TORSDOF 6
ENDMDL
MODEL 2
REMARK VINA RESULT:      -8.3      2.369      9.047
REMARK  6 active torsions:
REMARK  status: ('A' for Active; 'I' for Inactive)
REMARK       I    between atoms: C_2  and  N_3 
REMARK    1  A    between atoms: N_3  and  C_4 
REMARK    2  A    between atoms: C_4  and  C_5 
REMARK    3  A    between atoms: C_4  and  C_11 
REMARK    4  A    between atoms: C_11  and  C_12 
REMARK       I    between atoms: C_12  and  N_13 
REMARK    5  A    between atoms: N_13  and  C_14 
REMARK    6  A    between atoms: C_16  and  C_17 
ROOT
HETATM    1  C   UNL     1     -42.073  54.888 -55.535  1.00  0.00     0.224 C 
HETATM    2  N   UNL     1     -42.077  53.675 -54.891  1.00  0.00    -0.327 N 
HETATM    3  O   UNL     1     -41.261  55.795 -55.352  1.00  0.00    -0.273 OA
HETATM    4  H   UNL     1     -42.733  52.970 -55.235  1.00  0.00     0.169 HD
ENDROOT
BRANCH   1   5
HETATM    5  C   UNL     1     -43.230  55.113 -56.495  1.00  0.00     0.133 C 
BRANCH   5   6
HETATM    6  C   UNL     1     -43.059  56.099 -57.668  1.00  0.00     0.126 C 
BRANCH   6   7
HETATM    7  N   UNL     1     -42.760  57.465 -57.218  1.00  0.00    -0.352 N 
HETATM    8  C   UNL     1     -42.069  58.402 -57.942  1.00  0.00     0.214 C 
HETATM    9  C   UNL     1     -41.977  59.758 -57.298  1.00  0.00     0.117 C 
HETATM   10  O   UNL     1     -41.560  58.170 -59.033  1.00  0.00    -0.274 OA
HETATM   11  H   UNL     1     -43.081  57.714 -56.291  1.00  0.00     0.163 HD
ENDBRANCH   6   7
BRANCH   6  12
HETATM   12  C   UNL     1     -44.029  55.995 -58.835  1.00  0.00    -0.035 A 
HETATM   13  C   UNL     1     -43.974  54.962 -59.784  1.00  0.00     0.009 A 
HETATM   14  C   UNL     1     -44.907  54.884 -60.823  1.00  0.00     0.001 A 
HETATM   15  C   UNL     1     -45.916  55.835 -60.929  1.00  0.00     0.000 A 
HETATM   16  C   UNL     1     -45.997  56.862 -59.995  1.00  0.00     0.001 A 
HETATM   17  C   UNL     1     -45.068  56.938 -58.954  1.00  0.00     0.009 A 
ENDBRANCH   6  12
ENDBRANCH   5   6
ENDBRANCH   1   5
BRANCH   2  18
HETATM   18  C   UNL     1     -41.264  53.267 -53.816  1.00  0.00     0.035 A 
HETATM   19  C   UNL     1     -41.328  53.830 -52.538  1.00  0.00     0.042 A 
HETATM   20  C   UNL     1     -40.548  53.321 -51.485  1.00  0.00    -0.021 A 
HETATM   21  C   UNL     1     -39.670  52.261 -51.746  1.00  0.00     0.012 A 
HETATM   22  C   UNL     1     -39.592  51.702 -53.021  1.00  0.00     0.003 A 
HETATM   23  C   UNL     1     -40.398  52.193 -54.046  1.00  0.00     0.029 A 
BRANCH  20  24
HETATM   24  C   UNL     1     -40.678  53.842 -50.132  1.00  0.00     0.010 A 
HETATM   25  C   UNL     1     -41.146  55.094 -49.665  1.00  0.00     0.152 A 
HETATM   26  N   UNL     1     -41.096  55.206 -48.336  1.00  0.00    -0.187 NA
HETATM   27  N   UNL     1     -40.588  54.027 -47.943  1.00  0.00    -0.289 N 
HETATM   28  H   UNL     1     -40.444  53.870 -46.951  1.00  0.00     0.188 HD
HETATM   29  C   UNL     1     -40.326  53.177 -48.977  1.00  0.00     0.123 A 
ENDBRANCH  20  24
ENDBRANCH   2  18
TORSDOF 6
ENDMDL
MODEL 3
REMARK VINA RESULT:      -8.2      2.684      3.452
REMARK  6 active torsions:
REMARK  status: ('A' for Active; 'I' for Inactive)
REMARK       I    between atoms: C_2  and  N_3 
REMARK    1  A    between atoms: N_3  and  C_4 
REMARK    2  A    between atoms: C_4  and  C_5 
REMARK    3  A    between atoms: C_4  and  C_11 
REMARK    4  A    between atoms: C_11  and  C_12 
REMARK       I    between atoms: C_12  and  N_13 
REMARK    5  A    between atoms: N_13  and  C_14 
REMARK    6  A    between atoms: C_16  and  C_17 
ROOT
HETATM    1  C   UNL     1     -42.436  55.552 -55.257  1.00  0.00     0.224 C 
HETATM    2  N   UNL     1     -43.344  55.867 -56.237  1.00  0.00    -0.327 N 
HETATM    3  O   UNL     1     -41.240  55.846 -55.265  1.00  0.00    -0.273 OA
HETATM    4  H   UNL     1     -44.328  55.671 -56.038  1.00  0.00     0.169 HD
ENDROOT
BRANCH   1   5
HETATM    5  C   UNL     1     -42.982  54.705 -54.119  1.00  0.00     0.133 C 
BRANCH   5   6
HETATM    6  C   UNL     1     -42.081  54.396 -52.908  1.00  0.00     0.126 C 
BRANCH   6   7
HETATM    7  N   UNL     1     -41.518  55.608 -52.298  1.00  0.00    -0.352 N 
HETATM    8  C   UNL     1     -41.754  56.032 -51.016  1.00  0.00     0.214 C 
HETATM    9  C   UNL     1     -40.984  57.255 -50.601  1.00  0.00     0.117 C 
HETATM   10  O   UNL     1     -42.531  55.468 -50.253  1.00  0.00    -0.274 OA
HETATM   11  H   UNL     1     -40.923  56.174 -52.890  1.00  0.00     0.163 HD
ENDBRANCH   6   7
BRANCH   6  12
HETATM   12  C   UNL     1     -41.127  53.215 -53.010  1.00  0.00    -0.035 A 
HETATM   13  C   UNL     1     -40.285  52.821 -51.959  1.00  0.00     0.009 A 
HETATM   14  C   UNL     1     -39.446  51.709 -52.081  1.00  0.00     0.001 A 
HETATM   15  C   UNL     1     -39.438  50.965 -53.256  1.00  0.00     0.000 A 
HETATM   16  C   UNL     1     -40.272  51.330 -54.309  1.00  0.00     0.001 A 
HETATM   17  C   UNL     1     -41.112  52.439 -54.185  1.00  0.00     0.009 A 
ENDBRANCH   6  12
ENDBRANCH   5   6
ENDBRANCH   1   5
BRANCH   2  18
HETATM   18  C   UNL     1     -43.091  56.458 -57.490  1.00  0.00     0.035 A 
HETATM   19  C   UNL     1     -42.740  57.801 -57.658  1.00  0.00     0.042 A 
HETATM   20  C   UNL     1     -42.419  58.310 -58.928  1.00  0.00    -0.021 A 
HETATM   21  C   UNL     1     -42.493  57.457 -60.037  1.00  0.00     0.012 A 
HETATM   22  C   UNL     1     -42.854  56.119 -59.879  1.00  0.00     0.003 A 
HETATM   23  C   UNL     1     -43.135  55.620 -58.609  1.00  0.00     0.029 A 
BRANCH  20  24
HETATM   24  C   UNL     1     -41.964  59.683 -59.096  1.00  0.00     0.010 A 
HETATM   25  C   UNL     1     -41.514  60.630 -58.144  1.00  0.00     0.152 A 
HETATM   26  N   UNL     1     -41.195  61.806 -58.690  1.00  0.00    -0.187 NA
HETATM   27  N   UNL     1     -41.446  61.621 -59.995  1.00  0.00    -0.289 N 
HETATM   28  H   UNL     1     -41.285  62.394 -60.632  1.00  0.00     0.188 HD
HETATM   29  C   UNL     1     -41.902  60.369 -60.290  1.00  0.00     0.123 A 
ENDBRANCH  20  24
ENDBRANCH   2  18
TORSDOF 6
ENDMDL
MODEL 4
REMARK VINA RESULT:      -7.9      4.633      7.121
REMARK  6 active torsions:
REMARK  status: ('A' for Active; 'I' for Inactive)
REMARK       I    between atoms: C_2  and  N_3 
REMARK    1  A    between atoms: N_3  and  C_4 
REMARK    2  A    between atoms: C_4  and  C_5 
REMARK    3  A    between atoms: C_4  and  C_11 
REMARK    4  A    between atoms: C_11  and  C_12 
REMARK       I    between atoms: C_12  and  N_13 
REMARK    5  A    between atoms: N_13  and  C_14 
REMARK    6  A    between atoms: C_16  and  C_17 
ROOT
HETATM    1  C   UNL     1     -43.275  55.727 -51.683  1.00  0.00     0.224 C 
HETATM    2  N   UNL     1     -43.321  56.955 -52.295  1.00  0.00    -0.327 N 
HETATM    3  O   UNL     1     -43.173  55.531 -50.471  1.00  0.00    -0.273 OA
HETATM    4  H   UNL     1     -43.535  56.967 -53.295  1.00  0.00     0.169 HD
ENDROOT
BRANCH   1   5
HETATM    5  C   UNL     1     -43.281  54.535 -52.627  1.00  0.00     0.133 C 
BRANCH   5   6
HETATM    6  C   UNL     1     -42.107  54.342 -53.608  1.00  0.00     0.126 C 
BRANCH   6   7
HETATM    7  N   UNL     1     -42.508  54.514 -55.010  1.00  0.00    -0.352 N 
HETATM    8  C   UNL     1     -42.516  55.705 -55.690  1.00  0.00     0.214 C 
HETATM    9  C   UNL     1     -42.880  55.600 -57.146  1.00  0.00     0.117 C 
HETATM   10  O   UNL     1     -42.250  56.781 -55.167  1.00  0.00    -0.274 OA
HETATM   11  H   UNL     1     -42.817  53.682 -55.496  1.00  0.00     0.163 HD
ENDBRANCH   6   7
BRANCH   6  12
HETATM   12  C   UNL     1     -41.137  53.200 -53.344  1.00  0.00    -0.035 A 
HETATM   13  C   UNL     1     -40.489  53.018 -52.112  1.00  0.00     0.009 A 
HETATM   14  C   UNL     1     -39.630  51.935 -51.900  1.00  0.00     0.001 A 
HETATM   15  C   UNL     1     -39.408  51.009 -52.914  1.00  0.00     0.000 A 
HETATM   16  C   UNL     1     -40.047  51.163 -54.140  1.00  0.00     0.001 A 
HETATM   17  C   UNL     1     -40.908  52.243 -54.351  1.00  0.00     0.009 A 
ENDBRANCH   6  12
ENDBRANCH   5   6
ENDBRANCH   1   5
BRANCH   2  18
HETATM   18  C   UNL     1     -43.130  58.220 -51.706  1.00  0.00     0.035 A 
HETATM   19  C   UNL     1     -44.173  59.014 -51.220  1.00  0.00     0.042 A 
HETATM   20  C   UNL     1     -43.911  60.230 -50.567  1.00  0.00    -0.021 A 
HETATM   21  C   UNL     1     -42.583  60.659 -50.443  1.00  0.00     0.012 A 
HETATM   22  C   UNL     1     -41.537  59.878 -50.936  1.00  0.00     0.003 A 
HETATM   23  C   UNL     1     -41.811  58.657 -51.549  1.00  0.00     0.029 A 
BRANCH  20  24
HETATM   24  C   UNL     1     -44.986  61.016 -49.978  1.00  0.00     0.010 A 
HETATM   25  C   UNL     1     -45.522  61.013 -48.667  1.00  0.00     0.152 A 
HETATM   26  N   UNL     1     -46.529  61.876 -48.513  1.00  0.00    -0.187 NA
HETATM   27  N   UNL     1     -46.647  62.434 -49.729  1.00  0.00    -0.289 N 
HETATM   28  H   UNL     1     -47.368  63.134 -49.870  1.00  0.00     0.188 HD
HETATM   29  C   UNL     1     -45.747  61.958 -50.636  1.00  0.00     0.123 A 
ENDBRANCH  20  24
ENDBRANCH   2  18
TORSDOF 6
ENDMDL
MODEL 5
REMARK VINA RESULT:      -7.6      2.664      8.925
REMARK  6 active torsions:
REMARK  status: ('A' for Active; 'I' for Inactive)
REMARK       I    between atoms: C_2  and  N_3 
REMARK    1  A    between atoms: N_3  and  C_4 
REMARK    2  A    between atoms: C_4  and  C_5 
REMARK    3  A    between atoms: C_4  and  C_11 
REMARK    4  A    between atoms: C_11  and  C_12 
REMARK       I    between atoms: C_12  and  N_13 
REMARK    5  A    between atoms: N_13  and  C_14 
REMARK    6  A    between atoms: C_16  and  C_17 
ROOT
HETATM    1  C   UNL     1     -42.383  55.119 -55.426  1.00  0.00     0.224 C 
HETATM    2  N   UNL     1     -41.098  54.763 -55.099  1.00  0.00    -0.327 N 
HETATM    3  O   UNL     1     -43.392  54.850 -54.772  1.00  0.00    -0.273 OA
HETATM    4  H   UNL     1     -40.347  55.163 -55.666  1.00  0.00     0.169 HD
ENDROOT
BRANCH   1   5
HETATM    5  C   UNL     1     -42.533  55.844 -56.753  1.00  0.00     0.133 C 
BRANCH   5   6
HETATM    6  C   UNL     1     -42.347  57.374 -56.804  1.00  0.00     0.126 C 
BRANCH   6   7
HETATM    7  N   UNL     1     -43.193  58.079 -55.832  1.00  0.00    -0.352 N 
HETATM    8  C   UNL     1     -44.550  58.248 -55.940  1.00  0.00     0.214 C 
HETATM    9  C   UNL     1     -45.199  58.925 -54.765  1.00  0.00     0.117 C 
HETATM   10  O   UNL     1     -45.199  57.880 -56.913  1.00  0.00    -0.274 OA
HETATM   11  H   UNL     1     -42.721  58.481 -55.033  1.00  0.00     0.163 HD
ENDBRANCH   6   7
BRANCH   6  12
HETATM   12  C   UNL     1     -42.237  58.034 -58.170  1.00  0.00    -0.035 A 
HETATM   13  C   UNL     1     -42.350  57.321 -59.374  1.00  0.00     0.009 A 
HETATM   14  C   UNL     1     -42.277  57.972 -60.610  1.00  0.00     0.001 A 
HETATM   15  C   UNL     1     -42.095  59.349 -60.665  1.00  0.00     0.000 A 
HETATM   16  C   UNL     1     -41.991  60.079 -59.486  1.00  0.00     0.001 A 
HETATM   17  C   UNL     1     -42.068  59.430 -58.251  1.00  0.00     0.009 A 
ENDBRANCH   6  12
ENDBRANCH   5   6
ENDBRANCH   1   5
BRANCH   2  18
HETATM   18  C   UNL     1     -40.677  53.921 -54.051  1.00  0.00     0.035 A 
HETATM   19  C   UNL     1     -40.755  54.268 -52.699  1.00  0.00     0.042 A 
HETATM   20  C   UNL     1     -40.396  53.351 -51.696  1.00  0.00    -0.021 A 
HETATM   21  C   UNL     1     -39.916  52.090 -52.073  1.00  0.00     0.012 A 
HETATM   22  C   UNL     1     -39.824  51.741 -53.421  1.00  0.00     0.003 A 
HETATM   23  C   UNL     1     -40.218  52.648 -54.403  1.00  0.00     0.029 A 
BRANCH  20  24
HETATM   24  C   UNL     1     -40.563  53.674 -50.286  1.00  0.00     0.010 A 
HETATM   25  C   UNL     1     -40.497  52.850 -49.136  1.00  0.00     0.152 A 
HETATM   26  N   UNL     1     -40.726  53.519 -48.003  1.00  0.00    -0.187 NA
HETATM   27  N   UNL     1     -40.947  54.775 -48.422  1.00  0.00    -0.289 N 
HETATM   28  H   UNL     1     -41.156  55.485 -47.729  1.00  0.00     0.188 HD
HETATM   29  C   UNL     1     -40.855  54.920 -49.776  1.00  0.00     0.123 A 
ENDBRANCH  20  24
ENDBRANCH   2  18
TORSDOF 6
ENDMDL
MODEL 6
REMARK VINA RESULT:      -7.6     14.701     18.268
REMARK  6 active torsions:
REMARK  status: ('A' for Active; 'I' for Inactive)
REMARK       I    between atoms: C_2  and  N_3 
REMARK    1  A    between atoms: N_3  and  C_4 
REMARK    2  A    between atoms: C_4  and  C_5 
REMARK    3  A    between atoms: C_4  and  C_11 
REMARK    4  A    between atoms: C_11  and  C_12 
REMARK       I    between atoms: C_12  and  N_13 
REMARK    5  A    between atoms: N_13  and  C_14 
REMARK    6  A    between atoms: C_16  and  C_17 
ROOT
HETATM    1  C   UNL     1     -35.558  41.993 -54.026  1.00  0.00     0.224 C 
HETATM    2  N   UNL     1     -35.368  40.695 -53.619  1.00  0.00    -0.327 N 
HETATM    3  O   UNL     1     -35.683  42.967 -53.283  1.00  0.00    -0.273 OA
HETATM    4  H   UNL     1     -35.154  40.008 -54.346  1.00  0.00     0.169 HD
ENDROOT
BRANCH   1   5
HETATM    5  C   UNL     1     -35.693  42.185 -55.528  1.00  0.00     0.133 C 
BRANCH   5   6
HETATM    6  C   UNL     1     -35.218  41.068 -56.478  1.00  0.00     0.126 C 
BRANCH   6   7
HETATM    7  N   UNL     1     -33.754  40.975 -56.555  1.00  0.00    -0.352 N 
HETATM    8  C   UNL     1     -33.001  39.938 -56.068  1.00  0.00     0.214 C 
HETATM    9  C   UNL     1     -31.528  40.036 -56.354  1.00  0.00     0.117 C 
HETATM   10  O   UNL     1     -33.476  38.996 -55.444  1.00  0.00    -0.274 OA
HETATM   11  H   UNL     1     -33.276  41.754 -56.989  1.00  0.00     0.163 HD
ENDBRANCH   6   7
BRANCH   6  12
HETATM   12  C   UNL     1     -35.951  40.897 -57.801  1.00  0.00    -0.035 A 
HETATM   13  C   UNL     1     -36.016  39.673 -58.484  1.00  0.00     0.009 A 
HETATM   14  C   UNL     1     -36.729  39.549 -59.681  1.00  0.00     0.001 A 
HETATM   15  C   UNL     1     -37.396  40.647 -60.214  1.00  0.00     0.000 A 
HETATM   16  C   UNL     1     -37.354  41.868 -59.550  1.00  0.00     0.001 A 
HETATM   17  C   UNL     1     -36.645  41.990 -58.352  1.00  0.00     0.009 A 
ENDBRANCH   6  12
ENDBRANCH   5   6
ENDBRANCH   1   5
BRANCH   2  18
HETATM   18  C   UNL     1     -35.408  40.188 -52.306  1.00  0.00     0.035 A 
HETATM   19  C   UNL     1     -34.268  39.925 -51.541  1.00  0.00     0.042 A 
HETATM   20  C   UNL     1     -34.376  39.499 -50.206  1.00  0.00    -0.021 A 
HETATM   21  C   UNL     1     -35.652  39.301 -49.661  1.00  0.00     0.012 A 
HETATM   22  C   UNL     1     -36.794  39.550 -50.422  1.00  0.00     0.003 A 
HETATM   23  C   UNL     1     -36.671  40.007 -51.732  1.00  0.00     0.029 A 
BRANCH  20  24
HETATM   24  C   UNL     1     -33.194  39.312 -49.377  1.00  0.00     0.010 A 
HETATM   25  C   UNL     1     -31.911  39.906 -49.451  1.00  0.00     0.152 A 
HETATM   26  N   UNL     1     -31.075  39.459 -48.510  1.00  0.00    -0.187 NA
HETATM   27  N   UNL     1     -31.818  38.571 -47.831  1.00  0.00    -0.289 N 
HETATM   28  H   UNL     1     -31.391  38.080 -47.053  1.00  0.00     0.188 HD
HETATM   29  C   UNL     1     -33.091  38.451 -48.306  1.00  0.00     0.123 A 
ENDBRANCH  20  24
ENDBRANCH   2  18
TORSDOF 6
ENDMDL
MODEL 7
REMARK VINA RESULT:      -7.6      3.550      7.500
REMARK  6 active torsions:
REMARK  status: ('A' for Active; 'I' for Inactive)
REMARK       I    between atoms: C_2  and  N_3 
REMARK    1  A    between atoms: N_3  and  C_4 
REMARK    2  A    between atoms: C_4  and  C_5 
REMARK    3  A    between atoms: C_4  and  C_11 
REMARK    4  A    between atoms: C_11  and  C_12 
REMARK       I    between atoms: C_12  and  N_13 
REMARK    5  A    between atoms: N_13  and  C_14 
REMARK    6  A    between atoms: C_16  and  C_17 
ROOT
HETATM    1  C   UNL     1     -42.945  55.507 -51.840  1.00  0.00     0.224 C 
HETATM    2  N   UNL     1     -42.615  56.720 -52.391  1.00  0.00    -0.327 N 
HETATM    3  O   UNL     1     -43.016  55.261 -50.635  1.00  0.00    -0.273 OA
HETATM    4  H   UNL     1     -42.720  56.814 -53.404  1.00  0.00     0.169 HD
ENDROOT
BRANCH   1   5
HETATM    5  C   UNL     1     -43.164  54.382 -52.840  1.00  0.00     0.133 C 
BRANCH   5   6
HETATM    6  C   UNL     1     -42.069  54.073 -53.880  1.00  0.00     0.126 C 
BRANCH   6   7
HETATM    7  N   UNL     1     -42.541  54.235 -55.262  1.00  0.00    -0.352 N 
HETATM    8  C   UNL     1     -42.549  55.414 -55.962  1.00  0.00     0.214 C 
HETATM    9  C   UNL     1     -42.994  55.297 -57.394  1.00  0.00     0.117 C 
HETATM   10  O   UNL     1     -42.220  56.489 -55.474  1.00  0.00    -0.274 OA
HETATM   11  H   UNL     1     -42.902  53.405 -55.714  1.00  0.00     0.163 HD
ENDBRANCH   6   7
BRANCH   6  12
HETATM   12  C   UNL     1     -41.172  52.869 -53.636  1.00  0.00    -0.035 A 
HETATM   13  C   UNL     1     -41.058  51.806 -54.546  1.00  0.00     0.009 A 
HETATM   14  C   UNL     1     -40.195  50.733 -54.300  1.00  0.00     0.001 A 
HETATM   15  C   UNL     1     -39.425  50.706 -53.142  1.00  0.00     0.000 A 
HETATM   16  C   UNL     1     -39.513  51.753 -52.231  1.00  0.00     0.001 A 
HETATM   17  C   UNL     1     -40.372  52.827 -52.479  1.00  0.00     0.009 A 
ENDBRANCH   6  12
ENDBRANCH   5   6
ENDBRANCH   1   5
BRANCH   2  18
HETATM   18  C   UNL     1     -42.165  57.876 -51.725  1.00  0.00     0.035 A 
HETATM   19  C   UNL     1     -40.853  58.051 -51.274  1.00  0.00     0.042 A 
HETATM   20  C   UNL     1     -40.445  59.262 -50.689  1.00  0.00    -0.021 A 
HETATM   21  C   UNL     1     -41.388  60.286 -50.528  1.00  0.00     0.012 A 
HETATM   22  C   UNL     1     -42.702  60.115 -50.964  1.00  0.00     0.003 A 
HETATM   23  C   UNL     1     -43.082  58.921 -51.574  1.00  0.00     0.029 A 
BRANCH  20  24
HETATM   24  C   UNL     1     -39.059  59.482 -50.303  1.00  0.00     0.010 A 
HETATM   25  C   UNL     1     -38.499  60.322 -49.309  1.00  0.00     0.152 A 
HETATM   26  N   UNL     1     -37.166  60.262 -49.268  1.00  0.00    -0.187 NA
HETATM   27  N   UNL     1     -36.864  59.388 -50.240  1.00  0.00    -0.289 N 
HETATM   28  H   UNL     1     -35.886  59.177 -50.413  1.00  0.00     0.188 HD
HETATM   29  C   UNL     1     -37.958  58.890 -50.885  1.00  0.00     0.123 A 
ENDBRANCH  20  24
ENDBRANCH   2  18
TORSDOF 6
ENDMDL
MODEL 8
REMARK VINA RESULT:      -7.5      2.463      8.359
REMARK  6 active torsions:
REMARK  status: ('A' for Active; 'I' for Inactive)
REMARK       I    between atoms: C_2  and  N_3 
REMARK    1  A    between atoms: N_3  and  C_4 
REMARK    2  A    between atoms: C_4  and  C_5 
REMARK    3  A    between atoms: C_4  and  C_11 
REMARK    4  A    between atoms: C_11  and  C_12 
REMARK       I    between atoms: C_12  and  N_13 
REMARK    5  A    between atoms: N_13  and  C_14 
REMARK    6  A    between atoms: C_16  and  C_17 
ROOT
HETATM    1  C   UNL     1     -42.537  56.130 -55.274  1.00  0.00     0.224 C 
HETATM    2  N   UNL     1     -42.902  55.255 -54.282  1.00  0.00    -0.327 N 
HETATM    3  O   UNL     1     -41.383  56.365 -55.635  1.00  0.00    -0.273 OA
HETATM    4  H   UNL     1     -43.902  55.065 -54.175  1.00  0.00     0.169 HD
ENDROOT
BRANCH   1   5
HETATM    5  C   UNL     1     -43.682  56.908 -55.902  1.00  0.00     0.133 C 
BRANCH   5   6
HETATM    6  C   UNL     1     -43.522  57.466 -57.330  1.00  0.00     0.126 C 
BRANCH   6   7
HETATM    7  N   UNL     1     -43.756  58.914 -57.401  1.00  0.00    -0.352 N 
HETATM    8  C   UNL     1     -42.778  59.875 -57.385  1.00  0.00     0.214 C 
HETATM    9  C   UNL     1     -43.271  61.284 -57.564  1.00  0.00     0.117 C 
HETATM   10  O   UNL     1     -41.587  59.621 -57.237  1.00  0.00    -0.274 OA
HETATM   11  H   UNL     1     -44.722  59.213 -57.448  1.00  0.00     0.163 HD
ENDBRANCH   6   7
BRANCH   6  12
HETATM   12  C   UNL     1     -44.102  56.657 -58.481  1.00  0.00    -0.035 A 
HETATM   13  C   UNL     1     -43.673  55.356 -58.792  1.00  0.00     0.009 A 
HETATM   14  C   UNL     1     -44.255  54.633 -59.838  1.00  0.00     0.001 A 
HETATM   15  C   UNL     1     -45.282  55.194 -60.589  1.00  0.00     0.000 A 
HETATM   16  C   UNL     1     -45.732  56.477 -60.293  1.00  0.00     0.001 A 
HETATM   17  C   UNL     1     -45.152  57.198 -59.246  1.00  0.00     0.009 A 
ENDBRANCH   6  12
ENDBRANCH   5   6
ENDBRANCH   1   5
BRANCH   2  18
HETATM   18  C   UNL     1     -42.060  54.556 -53.394  1.00  0.00     0.035 A 
HETATM   19  C   UNL     1     -41.595  53.258 -53.627  1.00  0.00     0.042 A 
HETATM   20  C   UNL     1     -40.690  52.646 -52.743  1.00  0.00    -0.021 A 
HETATM   21  C   UNL     1     -40.288  53.345 -51.596  1.00  0.00     0.012 A 
HETATM   22  C   UNL     1     -40.757  54.635 -51.352  1.00  0.00     0.003 A 
HETATM   23  C   UNL     1     -41.626  55.243 -52.256  1.00  0.00     0.029 A 
BRANCH  20  24
HETATM   24  C   UNL     1     -40.131  51.333 -53.027  1.00  0.00     0.010 A 
HETATM   25  C   UNL     1     -39.980  50.638 -54.252  1.00  0.00     0.152 A 
HETATM   26  N   UNL     1     -39.432  49.430 -54.101  1.00  0.00    -0.187 NA
HETATM   27  N   UNL     1     -39.234  49.341 -52.777  1.00  0.00    -0.289 N 
HETATM   28  H   UNL     1     -38.825  48.490 -52.406  1.00  0.00     0.188 HD
HETATM   29  C   UNL     1     -39.631  50.452 -52.092  1.00  0.00     0.123 A 
ENDBRANCH  20  24
ENDBRANCH   2  18
TORSDOF 6
ENDMDL
MODEL 9
REMARK VINA RESULT:      -7.5      1.980      2.372
REMARK  6 active torsions:
REMARK  status: ('A' for Active; 'I' for Inactive)
REMARK       I    between atoms: C_2  and  N_3 
REMARK    1  A    between atoms: N_3  and  C_4 
REMARK    2  A    between atoms: C_4  and  C_5 
REMARK    3  A    between atoms: C_4  and  C_11 
REMARK    4  A    between atoms: C_11  and  C_12 
REMARK       I    between atoms: C_12  and  N_13 
REMARK    5  A    between atoms: N_13  and  C_14 
REMARK    6  A    between atoms: C_16  and  C_17 
ROOT
HETATM    1  C   UNL     1     -43.730  55.859 -54.626  1.00  0.00     0.224 C 
HETATM    2  N   UNL     1     -43.381  55.654 -55.938  1.00  0.00    -0.327 N 
HETATM    3  O   UNL     1     -44.188  56.903 -54.159  1.00  0.00    -0.273 OA
HETATM    4  H   UNL     1     -43.135  54.699 -56.209  1.00  0.00     0.169 HD
ENDROOT
BRANCH   1   5
HETATM    5  C   UNL     1     -43.443  54.694 -53.693  1.00  0.00     0.133 C 
BRANCH   5   6
HETATM    6  C   UNL     1     -42.166  54.714 -52.830  1.00  0.00     0.126 C 
BRANCH   6   7
HETATM    7  N   UNL     1     -41.525  56.035 -52.800  1.00  0.00    -0.352 N 
HETATM    8  C   UNL     1     -41.584  56.920 -51.755  1.00  0.00     0.214 C 
HETATM    9  C   UNL     1     -40.764  58.168 -51.934  1.00  0.00     0.117 C 
HETATM   10  O   UNL     1     -42.249  56.725 -50.744  1.00  0.00    -0.274 OA
HETATM   11  H   UNL     1     -41.016  56.307 -53.632  1.00  0.00     0.163 HD
ENDBRANCH   6   7
BRANCH   6  12
HETATM   12  C   UNL     1     -41.215  53.531 -52.935  1.00  0.00    -0.035 A 
HETATM   13  C   UNL     1     -40.455  53.065 -51.851  1.00  0.00     0.009 A 
HETATM   14  C   UNL     1     -39.617  51.952 -51.980  1.00  0.00     0.001 A 
HETATM   15  C   UNL     1     -39.529  51.281 -53.195  1.00  0.00     0.000 A 
HETATM   16  C   UNL     1     -40.282  51.717 -54.280  1.00  0.00     0.001 A 
HETATM   17  C   UNL     1     -41.121  52.827 -54.150  1.00  0.00     0.009 A 
ENDBRANCH   6  12
ENDBRANCH   5   6
ENDBRANCH   1   5
BRANCH   2  18
HETATM   18  C   UNL     1     -43.340  56.603 -56.978  1.00  0.00     0.035 A 
HETATM   19  C   UNL     1     -44.374  56.787 -57.901  1.00  0.00     0.042 A 
HETATM   20  C   UNL     1     -44.310  57.808 -58.865  1.00  0.00    -0.021 A 
HETATM   21  C   UNL     1     -43.168  58.619 -58.914  1.00  0.00     0.012 A 
HETATM   22  C   UNL     1     -42.127  58.434 -58.005  1.00  0.00     0.003 A 
HETATM   23  C   UNL     1     -42.222  57.441 -57.032  1.00  0.00     0.029 A 
BRANCH  20  24
HETATM   24  C   UNL     1     -45.423  58.063 -59.767  1.00  0.00     0.010 A 
HETATM   25  C   UNL     1     -46.086  59.269 -60.099  1.00  0.00     0.152 A 
HETATM   26  N   UNL     1     -47.087  59.093 -60.965  1.00  0.00    -0.187 NA
HETATM   27  N   UNL     1     -47.074  57.769 -61.189  1.00  0.00    -0.289 N 
HETATM   28  H   UNL     1     -47.763  57.380 -61.824  1.00  0.00     0.188 HD
HETATM   29  C   UNL     1     -46.097  57.110 -60.502  1.00  0.00     0.123 A 
ENDBRANCH  20  24
ENDBRANCH   2  18
TORSDOF 6
ENDMDL
MODEL 10
REMARK VINA RESULT:      -7.3      6.076      8.675
REMARK  6 active torsions:
REMARK  status: ('A' for Active; 'I' for Inactive)
REMARK       I    between atoms: C_2  and  N_3 
REMARK    1  A    between atoms: N_3  and  C_4 
REMARK    2  A    between atoms: C_4  and  C_5 
REMARK    3  A    between atoms: C_4  and  C_11 
REMARK    4  A    between atoms: C_11  and  C_12 
REMARK       I    between atoms: C_12  and  N_13 
REMARK    5  A    between atoms: N_13  and  C_14 
REMARK    6  A    between atoms: C_16  and  C_17 
ROOT
HETATM    1  C   UNL     1     -42.297  58.191 -50.914  1.00  0.00     0.224 C 
HETATM    2  N   UNL     1     -43.472  58.894 -51.009  1.00  0.00    -0.327 N 
HETATM    3  O   UNL     1     -41.284  58.562 -50.318  1.00  0.00    -0.273 OA
HETATM    4  H   UNL     1     -44.271  58.409 -51.426  1.00  0.00     0.169 HD
ENDROOT
BRANCH   1   5
HETATM    5  C   UNL     1     -42.263  56.882 -51.686  1.00  0.00     0.133 C 
BRANCH   5   6
HETATM    6  C   UNL     1     -41.462  56.800 -53.000  1.00  0.00     0.126 C 
BRANCH   6   7
HETATM    7  N   UNL     1     -41.977  57.707 -54.034  1.00  0.00    -0.352 N 
HETATM    8  C   UNL     1     -41.499  58.966 -54.292  1.00  0.00     0.214 C 
HETATM    9  C   UNL     1     -42.135  59.658 -55.465  1.00  0.00     0.117 C 
HETATM   10  O   UNL     1     -40.619  59.501 -53.626  1.00  0.00    -0.274 OA
HETATM   11  H   UNL     1     -42.759  57.369 -54.581  1.00  0.00     0.163 HD
ENDBRANCH   6   7
BRANCH   6  12
HETATM   12  C   UNL     1     -41.040  55.424 -53.494  1.00  0.00    -0.035 A 
HETATM   13  C   UNL     1     -40.588  55.188 -54.802  1.00  0.00     0.009 A 
HETATM   14  C   UNL     1     -40.177  53.915 -55.208  1.00  0.00     0.001 A 
HETATM   15  C   UNL     1     -40.203  52.853 -54.309  1.00  0.00     0.000 A 
HETATM   16  C   UNL     1     -40.636  53.064 -53.005  1.00  0.00     0.001 A 
HETATM   17  C   UNL     1     -41.044  54.338 -52.599  1.00  0.00     0.009 A 
ENDBRANCH   6  12
ENDBRANCH   5   6
ENDBRANCH   1   5
BRANCH   2  18
HETATM   18  C   UNL     1     -43.728  60.210 -50.577  1.00  0.00     0.035 A 
HETATM   19  C   UNL     1     -44.756  60.550 -49.693  1.00  0.00     0.042 A 
HETATM   20  C   UNL     1     -44.908  61.870 -49.235  1.00  0.00    -0.021 A 
HETATM   21  C   UNL     1     -44.033  62.855 -49.711  1.00  0.00     0.012 A 
HETATM   22  C   UNL     1     -43.012  62.526 -50.603  1.00  0.00     0.003 A 
HETATM   23  C   UNL     1     -42.852  61.206 -51.020  1.00  0.00     0.029 A 
BRANCH  20  24
HETATM   24  C   UNL     1     -45.918  62.212 -48.244  1.00  0.00     0.010 A 
HETATM   25  C   UNL     1     -45.952  61.990 -46.846  1.00  0.00     0.152 A 
HETATM   26  N   UNL     1     -47.073  62.439 -46.275  1.00  0.00    -0.187 NA
HETATM   27  N   UNL     1     -47.766  62.945 -47.307  1.00  0.00    -0.289 N 
HETATM   28  H   UNL     1     -48.679  63.348 -47.124  1.00  0.00     0.188 HD
HETATM   29  C   UNL     1     -47.118  62.838 -48.503  1.00  0.00     0.123 A 
ENDBRANCH  20  24
ENDBRANCH   2  18
TORSDOF 6
ENDMDL
