MODEL 1
REMARK VINA RESULT:      -8.1      0.000      0.000
REMARK  11 active torsions:
REMARK  status: ('A' for Active; 'I' for Inactive)
REMARK    1  A    between atoms: O_2  and  C_3 
REMARK    2  A    between atoms: C_6  and  C_7 
REMARK    3  A    between atoms: C_7  and  S_8 
REMARK    4  A    between atoms: C_7  and  C_22 
REMARK    5  A    between atoms: S_8  and  C_9 
REMARK    6  A    between atoms: C_12  and  C_13 
REMARK    7  A    between atoms: C_22  and  C_23 
REMARK       I    between atoms: C_23  and  N_24 
REMARK    8  A    between atoms: N_24  and  C_25 
REMARK    9  A    between atoms: C_25  and  C_26 
REMARK   10  A    between atoms: C_26  and  C_27 
REMARK   11  A    between atoms: C_27  and  N_28 
ROOT
HETATM    1  C   UNL     1     -42.190  54.861 -53.839  1.00  0.00     0.097 C 
ENDROOT
BRANCH   1   2
HETATM    2  C   UNL     1     -41.293  53.715 -53.370  1.00  0.00    -0.043 A 
HETATM    3  C   UNL     1     -40.847  52.759 -54.299  1.00  0.00     0.011 A 
HETATM    4  C   UNL     1     -40.065  51.667 -53.898  1.00  0.00     0.037 A 
HETATM    5  C   UNL     1     -39.719  51.507 -52.559  1.00  0.00     0.068 A 
HETATM    6  C   UNL     1     -40.158  52.448 -51.628  1.00  0.00     0.037 A 
HETATM    7  C   UNL     1     -40.936  53.539 -52.024  1.00  0.00     0.011 A 
BRANCH   5   8
HETATM    8  O   UNL     1     -38.977  50.490 -52.031  1.00  0.00    -0.356 OA
HETATM    9  C   UNL     1     -39.500  49.836 -50.881  1.00  0.00     0.210 C 
ENDBRANCH   5   8
ENDBRANCH   1   2
BRANCH   1  10
HETATM   10  S   UNL     1     -42.495  54.718 -55.656  1.00  0.00    -0.080 SA
BRANCH  10  11
HETATM   11  C   UNL     1     -42.644  56.370 -56.091  1.00  0.00     0.190 A 
HETATM   12  N   UNL     1     -43.289  57.312 -55.456  1.00  0.00    -0.122 NA
HETATM   13  N   UNL     1     -43.217  58.443 -56.241  1.00  0.00    -0.129 NA
HETATM   14  C   UNL     1     -42.542  58.153 -57.343  1.00  0.00     0.162 A 
HETATM   15  N   UNL     1     -42.136  56.845 -57.256  1.00  0.00    -0.317 N 
HETATM   16  H   UNL     1     -41.610  56.320 -57.937  1.00  0.00     0.169 HD
BRANCH  14  17
HETATM   17  C   UNL     1     -42.256  59.046 -58.464  1.00  0.00     0.012 A 
HETATM   18  C   UNL     1     -42.203  58.524 -59.765  1.00  0.00     0.017 A 
HETATM   19  C   UNL     1     -41.936  59.351 -60.860  1.00  0.00     0.025 A 
HETATM   20  C   UNL     1     -41.711  60.710 -60.661  1.00  0.00     0.034 A 
HETATM   21 CL   UNL     1     -41.380  61.731 -62.004  1.00  0.00    -0.084 Cl
HETATM   22  C   UNL     1     -41.747  61.247 -59.376  1.00  0.00     0.025 A 
HETATM   23  C   UNL     1     -42.018  60.419 -58.280  1.00  0.00     0.017 A 
ENDBRANCH  14  17
ENDBRANCH  10  11
ENDBRANCH   1  10
BRANCH   1  24
HETATM   24  C   UNL     1     -43.463  55.036 -52.995  1.00  0.00     0.123 C 
BRANCH  24  25
HETATM   25  C   UNL     1     -43.455  56.256 -52.097  1.00  0.00     0.219 C 
HETATM   26  N   UNL     1     -44.678  56.893 -52.033  1.00  0.00    -0.361 N 
HETATM   27  H   UNL     1     -45.375  56.619 -52.722  1.00  0.00     0.162 HD
HETATM   28  O   UNL     1     -42.495  56.637 -51.430  1.00  0.00    -0.274 OA
BRANCH  26  29
HETATM   29  C   UNL     1     -44.842  58.199 -51.428  1.00  0.00     0.124 C 
BRANCH  29  30
HETATM   30  C   UNL     1     -44.945  59.355 -52.424  1.00  0.00     0.047 C 
BRANCH  30  31
HETATM   31  C   UNL     1     -43.715  60.247 -52.606  1.00  0.00     0.236 C 
BRANCH  31  32
HETATM   32  N   UNL     1     -42.420  59.588 -52.225  1.00  0.00    -0.067 N 
HETATM   33  H   UNL     1     -42.677  58.626 -51.914  1.00  0.00     0.280 HD
HETATM   34  C   UNL     1     -41.375  59.510 -53.322  1.00  0.00     0.261 C 
HETATM   35  C   UNL     1     -40.129  58.783 -52.804  1.00  0.00     0.195 C 
HETATM   36  O   UNL     1     -39.600  59.429 -51.641  1.00  0.00    -0.388 OA
HETATM   37  C   UNL     1     -40.553  59.439 -50.571  1.00  0.00     0.195 C 
HETATM   38  C   UNL     1     -41.812  60.216 -50.972  1.00  0.00     0.261 C 
ENDBRANCH  31  32
ENDBRANCH  30  31
ENDBRANCH  29  30
ENDBRANCH  26  29
ENDBRANCH  24  25
ENDBRANCH   1  24
TORSDOF 11
ENDMDL
MODEL 2
REMARK VINA RESULT:      -8.0      4.180      7.529
REMARK  11 active torsions:
REMARK  status: ('A' for Active; 'I' for Inactive)
REMARK    1  A    between atoms: O_2  and  C_3 
REMARK    2  A    between atoms: C_6  and  C_7 
REMARK    3  A    between atoms: C_7  and  S_8 
REMARK    4  A    between atoms: C_7  and  C_22 
REMARK    5  A    between atoms: S_8  and  C_9 
REMARK    6  A    between atoms: C_12  and  C_13 
REMARK    7  A    between atoms: C_22  and  C_23 
REMARK       I    between atoms: C_23  and  N_24 
REMARK    8  A    between atoms: N_24  and  C_25 
REMARK    9  A    between atoms: C_25  and  C_26 
REMARK   10  A    between atoms: C_26  and  C_27 
REMARK   11  A    between atoms: C_27  and  N_28 
ROOT
HETATM    1  C   UNL     1     -43.038  58.259 -52.845  1.00  0.00     0.097 C 
ENDROOT
BRANCH   1   2
HETATM    2  C   UNL     1     -42.703  57.225 -51.772  1.00  0.00    -0.043 A 
HETATM    3  C   UNL     1     -41.551  57.392 -50.983  1.00  0.00     0.011 A 
HETATM    4  C   UNL     1     -41.184  56.438 -50.024  1.00  0.00     0.037 A 
HETATM    5  C   UNL     1     -41.959  55.296 -49.838  1.00  0.00     0.068 A 
HETATM    6  C   UNL     1     -43.101  55.118 -50.617  1.00  0.00     0.037 A 
HETATM    7  C   UNL     1     -43.472  56.068 -51.573  1.00  0.00     0.011 A 
BRANCH   5   8
HETATM    8  O   UNL     1     -41.712  54.286 -48.953  1.00  0.00    -0.356 OA
HETATM    9  C   UNL     1     -40.374  54.139 -48.493  1.00  0.00     0.210 C 
ENDBRANCH   5   8
ENDBRANCH   1   2
BRANCH   1  10
HETATM   10  S   UNL     1     -41.724  58.265 -54.145  1.00  0.00    -0.080 SA
BRANCH  10  11
HETATM   11  C   UNL     1     -41.651  56.598 -54.541  1.00  0.00     0.190 A 
HETATM   12  N   UNL     1     -42.274  55.973 -55.504  1.00  0.00    -0.122 NA
HETATM   13  N   UNL     1     -41.991  54.632 -55.359  1.00  0.00    -0.129 NA
HETATM   14  C   UNL     1     -41.213  54.475 -54.298  1.00  0.00     0.162 A 
HETATM   15  N   UNL     1     -40.953  55.718 -53.777  1.00  0.00    -0.317 N 
HETATM   16  H   UNL     1     -40.400  55.940 -52.965  1.00  0.00     0.169 HD
BRANCH  14  17
HETATM   17  C   UNL     1     -40.699  53.218 -53.758  1.00  0.00     0.012 A 
HETATM   18  C   UNL     1     -40.397  53.127 -52.391  1.00  0.00     0.017 A 
HETATM   19  C   UNL     1     -39.908  51.938 -51.841  1.00  0.00     0.025 A 
HETATM   20  C   UNL     1     -39.708  50.830 -52.659  1.00  0.00     0.034 A 
HETATM   21 CL   UNL     1     -39.104  49.366 -51.989  1.00  0.00    -0.084 Cl
HETATM   22  C   UNL     1     -39.990  50.903 -54.022  1.00  0.00     0.025 A 
HETATM   23  C   UNL     1     -40.483  52.092 -54.570  1.00  0.00     0.017 A 
ENDBRANCH  14  17
ENDBRANCH  10  11
ENDBRANCH   1  10
BRANCH   1  24
HETATM   24  C   UNL     1     -44.470  58.143 -53.394  1.00  0.00     0.123 C 
BRANCH  24  25
HETATM   25  C   UNL     1     -44.851  59.226 -54.381  1.00  0.00     0.219 C 
HETATM   26  N   UNL     1     -45.563  58.751 -55.464  1.00  0.00    -0.361 N 
HETATM   27  H   UNL     1     -45.582  57.741 -55.593  1.00  0.00     0.162 HD
HETATM   28  O   UNL     1     -44.620  60.426 -54.239  1.00  0.00    -0.274 OA
BRANCH  26  29
HETATM   29  C   UNL     1     -45.827  59.560 -56.636  1.00  0.00     0.124 C 
BRANCH  29  30
HETATM   30  C   UNL     1     -45.133  59.082 -57.911  1.00  0.00     0.047 C 
BRANCH  30  31
HETATM   31  C   UNL     1     -44.358  57.764 -57.847  1.00  0.00     0.236 C 
BRANCH  31  32
HETATM   32  N   UNL     1     -44.940  56.670 -58.698  1.00  0.00    -0.067 N 
HETATM   33  H   UNL     1     -45.501  56.079 -58.047  1.00  0.00     0.280 HD
HETATM   34  C   UNL     1     -45.811  57.129 -59.852  1.00  0.00     0.261 C 
HETATM   35  C   UNL     1     -46.363  55.912 -60.603  1.00  0.00     0.195 C 
HETATM   36  O   UNL     1     -45.304  55.067 -61.068  1.00  0.00    -0.388 OA
HETATM   37  C   UNL     1     -44.521  54.566 -59.977  1.00  0.00     0.195 C 
HETATM   38  C   UNL     1     -43.862  55.715 -59.207  1.00  0.00     0.261 C 
ENDBRANCH  31  32
ENDBRANCH  30  31
ENDBRANCH  29  30
ENDBRANCH  26  29
ENDBRANCH  24  25
ENDBRANCH   1  24
TORSDOF 11
ENDMDL
MODEL 3
REMARK VINA RESULT:      -8.0      4.085      7.569
REMARK  11 active torsions:
REMARK  status: ('A' for Active; 'I' for Inactive)
REMARK    1  A    between atoms: O_2  and  C_3 
REMARK    2  A    between atoms: C_6  and  C_7 
REMARK    3  A    between atoms: C_7  and  S_8 
REMARK    4  A    between atoms: C_7  and  C_22 
REMARK    5  A    between atoms: S_8  and  C_9 
REMARK    6  A    between atoms: C_12  and  C_13 
REMARK    7  A    between atoms: C_22  and  C_23 
REMARK       I    between atoms: C_23  and  N_24 
REMARK    8  A    between atoms: N_24  and  C_25 
REMARK    9  A    between atoms: C_25  and  C_26 
REMARK   10  A    between atoms: C_26  and  C_27 
REMARK   11  A    between atoms: C_27  and  N_28 
ROOT
HETATM    1  C   UNL     1     -43.295  57.977 -54.796  1.00  0.00     0.097 C 
ENDROOT
BRANCH   1   2
HETATM    2  C   UNL     1     -42.757  57.539 -53.434  1.00  0.00    -0.043 A 
HETATM    3  C   UNL     1     -43.540  56.710 -52.613  1.00  0.00     0.011 A 
HETATM    4  C   UNL     1     -43.103  56.329 -51.337  1.00  0.00     0.037 A 
HETATM    5  C   UNL     1     -41.876  56.777 -50.855  1.00  0.00     0.068 A 
HETATM    6  C   UNL     1     -41.092  57.603 -51.659  1.00  0.00     0.037 A 
HETATM    7  C   UNL     1     -41.523  57.982 -52.933  1.00  0.00     0.011 A 
BRANCH   5   8
HETATM    8  O   UNL     1     -41.336  56.496 -49.633  1.00  0.00    -0.356 OA
HETATM    9  C   UNL     1     -41.264  55.126 -49.255  1.00  0.00     0.210 C 
ENDBRANCH   5   8
ENDBRANCH   1   2
BRANCH   1  10
HETATM   10  S   UNL     1     -42.222  57.301 -56.142  1.00  0.00    -0.080 SA
BRANCH  10  11
HETATM   11  C   UNL     1     -42.206  55.634 -55.738  1.00  0.00     0.190 A 
HETATM   12  N   UNL     1     -43.054  54.711 -56.106  1.00  0.00    -0.122 NA
HETATM   13  N   UNL     1     -42.695  53.554 -55.448  1.00  0.00    -0.129 NA
HETATM   14  C   UNL     1     -41.644  53.810 -54.683  1.00  0.00     0.162 A 
HETATM   15  N   UNL     1     -41.291  55.122 -54.876  1.00  0.00    -0.317 N 
HETATM   16  H   UNL     1     -40.539  55.626 -54.434  1.00  0.00     0.169 HD
BRANCH  14  17
HETATM   17  C   UNL     1     -40.955  52.881 -53.790  1.00  0.00     0.012 A 
HETATM   18  C   UNL     1     -40.502  51.651 -54.291  1.00  0.00     0.017 A 
HETATM   19  C   UNL     1     -39.835  50.740 -53.466  1.00  0.00     0.025 A 
HETATM   20  C   UNL     1     -39.624  51.050 -52.126  1.00  0.00     0.034 A 
HETATM   21 CL   UNL     1     -38.806  49.933 -51.105  1.00  0.00    -0.084 Cl
HETATM   22  C   UNL     1     -40.075  52.261 -51.605  1.00  0.00     0.025 A 
HETATM   23  C   UNL     1     -40.739  53.173 -52.433  1.00  0.00     0.017 A 
ENDBRANCH  14  17
ENDBRANCH  10  11
ENDBRANCH   1  10
BRANCH   1  24
HETATM   24  C   UNL     1     -44.796  57.705 -54.988  1.00  0.00     0.123 C 
BRANCH  24  25
HETATM   25  C   UNL     1     -45.411  58.409 -56.179  1.00  0.00     0.219 C 
HETATM   26  N   UNL     1     -46.665  57.932 -56.506  1.00  0.00    -0.361 N 
HETATM   27  H   UNL     1     -46.951  57.058 -56.069  1.00  0.00     0.162 HD
HETATM   28  O   UNL     1     -44.905  59.353 -56.783  1.00  0.00    -0.274 OA
BRANCH  26  29
HETATM   29  C   UNL     1     -47.336  58.291 -57.738  1.00  0.00     0.124 C 
BRANCH  29  30
HETATM   30  C   UNL     1     -46.894  57.491 -58.963  1.00  0.00     0.047 C 
BRANCH  30  31
HETATM   31  C   UNL     1     -45.853  58.125 -59.888  1.00  0.00     0.236 C 
BRANCH  31  32
HETATM   32  N   UNL     1     -44.451  57.637 -59.657  1.00  0.00    -0.067 N 
HETATM   33  H   UNL     1     -44.237  57.861 -58.661  1.00  0.00     0.280 HD
HETATM   34  C   UNL     1     -44.221  56.159 -59.909  1.00  0.00     0.261 C 
HETATM   35  C   UNL     1     -42.764  55.798 -59.597  1.00  0.00     0.195 C 
HETATM   36  O   UNL     1     -41.858  56.594 -60.369  1.00  0.00    -0.388 OA
HETATM   37  C   UNL     1     -42.014  57.989 -60.081  1.00  0.00     0.195 C 
HETATM   38  C   UNL     1     -43.428  58.462 -60.435  1.00  0.00     0.261 C 
ENDBRANCH  31  32
ENDBRANCH  30  31
ENDBRANCH  29  30
ENDBRANCH  26  29
ENDBRANCH  24  25
ENDBRANCH   1  24
TORSDOF 11
ENDMDL
MODEL 4
REMARK VINA RESULT:      -8.0      3.670      6.820
REMARK  11 active torsions:
REMARK  status: ('A' for Active; 'I' for Inactive)
REMARK    1  A    between atoms: O_2  and  C_3 
REMARK    2  A    between atoms: C_6  and  C_7 
REMARK    3  A    between atoms: C_7  and  S_8 
REMARK    4  A    between atoms: C_7  and  C_22 
REMARK    5  A    between atoms: S_8  and  C_9 
REMARK    6  A    between atoms: C_12  and  C_13 
REMARK    7  A    between atoms: C_22  and  C_23 
REMARK       I    between atoms: C_23  and  N_24 
REMARK    8  A    between atoms: N_24  and  C_25 
REMARK    9  A    between atoms: C_25  and  C_26 
REMARK   10  A    between atoms: C_26  and  C_27 
REMARK   11  A    between atoms: C_27  and  N_28 
ROOT
HETATM    1  C   UNL     1     -41.939  56.233 -52.593  1.00  0.00     0.097 C 
ENDROOT
BRANCH   1   2
HETATM    2  C   UNL     1     -41.227  54.914 -52.887  1.00  0.00    -0.043 A 
HETATM    3  C   UNL     1     -41.024  54.518 -54.221  1.00  0.00     0.011 A 
HETATM    4  C   UNL     1     -40.420  53.291 -54.530  1.00  0.00     0.037 A 
HETATM    5  C   UNL     1     -40.012  52.435 -53.511  1.00  0.00     0.068 A 
HETATM    6  C   UNL     1     -40.212  52.815 -52.184  1.00  0.00     0.037 A 
HETATM    7  C   UNL     1     -40.811  54.038 -51.872  1.00  0.00     0.011 A 
BRANCH   5   8
HETATM    8  O   UNL     1     -39.425  51.211 -53.668  1.00  0.00    -0.356 OA
HETATM    9  C   UNL     1     -40.151  50.234 -54.404  1.00  0.00     0.210 C 
ENDBRANCH   5   8
ENDBRANCH   1   2
BRANCH   1  10
HETATM   10  S   UNL     1     -43.419  55.925 -51.529  1.00  0.00    -0.080 SA
BRANCH  10  11
HETATM   11  C   UNL     1     -44.304  57.373 -51.776  1.00  0.00     0.190 A 
HETATM   12  N   UNL     1     -44.705  57.885 -52.909  1.00  0.00    -0.122 NA
HETATM   13  N   UNL     1     -45.278  59.104 -52.615  1.00  0.00    -0.129 NA
HETATM   14  C   UNL     1     -45.196  59.307 -51.309  1.00  0.00     0.162 A 
HETATM   15  N   UNL     1     -44.610  58.202 -50.745  1.00  0.00    -0.317 N 
HETATM   16  H   UNL     1     -44.398  58.049 -49.772  1.00  0.00     0.169 HD
BRANCH  14  17
HETATM   17  C   UNL     1     -45.649  60.484 -50.568  1.00  0.00     0.012 A 
HETATM   18  C   UNL     1     -46.320  61.510 -51.250  1.00  0.00     0.017 A 
HETATM   19  C   UNL     1     -46.771  62.647 -50.572  1.00  0.00     0.025 A 
HETATM   20  C   UNL     1     -46.545  62.770 -49.204  1.00  0.00     0.034 A 
HETATM   21 CL   UNL     1     -47.096  64.166 -48.365  1.00  0.00    -0.084 Cl
HETATM   22  C   UNL     1     -45.871  61.767 -48.510  1.00  0.00     0.025 A 
HETATM   23  C   UNL     1     -45.423  60.628 -49.189  1.00  0.00     0.017 A 
ENDBRANCH  14  17
ENDBRANCH  10  11
ENDBRANCH   1  10
BRANCH   1  24
HETATM   24  C   UNL     1     -41.006  57.340 -52.074  1.00  0.00     0.123 C 
BRANCH  24  25
HETATM   25  C   UNL     1     -40.882  58.535 -52.996  1.00  0.00     0.219 C 
HETATM   26  N   UNL     1     -42.060  58.848 -53.645  1.00  0.00    -0.361 N 
HETATM   27  H   UNL     1     -42.804  58.155 -53.603  1.00  0.00     0.162 HD
HETATM   28  O   UNL     1     -39.870  59.219 -53.135  1.00  0.00    -0.274 OA
BRANCH  26  29
HETATM   29  C   UNL     1     -42.116  59.795 -54.739  1.00  0.00     0.124 C 
BRANCH  29  30
HETATM   30  C   UNL     1     -42.128  59.163 -56.131  1.00  0.00     0.047 C 
BRANCH  30  31
HETATM   31  C   UNL     1     -42.410  57.663 -56.228  1.00  0.00     0.236 C 
BRANCH  31  32
HETATM   32  N   UNL     1     -42.251  57.098 -57.611  1.00  0.00    -0.067 N 
HETATM   33  H   UNL     1     -41.343  56.585 -57.600  1.00  0.00     0.280 HD
HETATM   34  C   UNL     1     -43.358  56.170 -58.072  1.00  0.00     0.261 C 
HETATM   35  C   UNL     1     -43.044  55.642 -59.477  1.00  0.00     0.195 C 
HETATM   36  O   UNL     1     -42.862  56.719 -60.404  1.00  0.00    -0.388 OA
HETATM   37  C   UNL     1     -41.767  57.559 -60.018  1.00  0.00     0.195 C 
HETATM   38  C   UNL     1     -42.027  58.196 -58.649  1.00  0.00     0.261 C 
ENDBRANCH  31  32
ENDBRANCH  30  31
ENDBRANCH  29  30
ENDBRANCH  26  29
ENDBRANCH  24  25
ENDBRANCH   1  24
TORSDOF 11
ENDMDL
MODEL 5
REMARK VINA RESULT:      -7.8      2.413      2.730
REMARK  11 active torsions:
REMARK  status: ('A' for Active; 'I' for Inactive)
REMARK    1  A    between atoms: O_2  and  C_3 
REMARK    2  A    between atoms: C_6  and  C_7 
REMARK    3  A    between atoms: C_7  and  S_8 
REMARK    4  A    between atoms: C_7  and  C_22 
REMARK    5  A    between atoms: S_8  and  C_9 
REMARK    6  A    between atoms: C_12  and  C_13 
REMARK    7  A    between atoms: C_22  and  C_23 
REMARK       I    between atoms: C_23  and  N_24 
REMARK    8  A    between atoms: N_24  and  C_25 
REMARK    9  A    between atoms: C_25  and  C_26 
REMARK   10  A    between atoms: C_26  and  C_27 
REMARK   11  A    between atoms: C_27  and  N_28 
ROOT
HETATM    1  C   UNL     1     -41.555  55.203 -53.434  1.00  0.00     0.097 C 
ENDROOT
BRANCH   1   2
HETATM    2  C   UNL     1     -40.964  53.990 -52.716  1.00  0.00    -0.043 A 
HETATM    3  C   UNL     1     -40.411  52.940 -53.469  1.00  0.00     0.011 A 
HETATM    4  C   UNL     1     -39.906  51.789 -52.848  1.00  0.00     0.037 A 
HETATM    5  C   UNL     1     -39.949  51.665 -51.462  1.00  0.00     0.068 A 
HETATM    6  C   UNL     1     -40.499  52.698 -50.705  1.00  0.00     0.037 A 
HETATM    7  C   UNL     1     -41.002  53.849 -51.320  1.00  0.00     0.011 A 
BRANCH   5   8
HETATM    8  O   UNL     1     -39.507  50.600 -50.730  1.00  0.00    -0.356 OA
HETATM    9  C   UNL     1     -39.605  49.314 -51.332  1.00  0.00     0.210 C 
ENDBRANCH   5   8
ENDBRANCH   1   2
BRANCH   1  10
HETATM   10  S   UNL     1     -40.732  55.424 -55.075  1.00  0.00    -0.080 SA
BRANCH  10  11
HETATM   11  C   UNL     1     -41.900  56.375 -55.897  1.00  0.00     0.190 A 
HETATM   12  N   UNL     1     -42.317  57.574 -55.593  1.00  0.00    -0.122 NA
HETATM   13  N   UNL     1     -43.332  57.879 -56.475  1.00  0.00    -0.129 NA
HETATM   14  C   UNL     1     -43.515  56.847 -57.284  1.00  0.00     0.162 A 
HETATM   15  N   UNL     1     -42.590  55.886 -56.959  1.00  0.00    -0.317 N 
HETATM   16  H   UNL     1     -42.473  54.980 -57.383  1.00  0.00     0.169 HD
BRANCH  14  17
HETATM   17  C   UNL     1     -44.508  56.726 -58.350  1.00  0.00     0.012 A 
HETATM   18  C   UNL     1     -45.608  57.597 -58.368  1.00  0.00     0.017 A 
HETATM   19  C   UNL     1     -46.575  57.511 -59.375  1.00  0.00     0.025 A 
HETATM   20  C   UNL     1     -46.453  56.546 -60.369  1.00  0.00     0.034 A 
HETATM   21 CL   UNL     1     -47.639  56.435 -61.609  1.00  0.00    -0.084 Cl
HETATM   22  C   UNL     1     -45.374  55.664 -60.363  1.00  0.00     0.025 A 
HETATM   23  C   UNL     1     -44.405  55.752 -59.357  1.00  0.00     0.017 A 
ENDBRANCH  14  17
ENDBRANCH  10  11
ENDBRANCH   1  10
BRANCH   1  24
HETATM   24  C   UNL     1     -43.091  55.202 -53.492  1.00  0.00     0.123 C 
BRANCH  24  25
HETATM   25  C   UNL     1     -43.746  56.321 -52.709  1.00  0.00     0.219 C 
HETATM   26  N   UNL     1     -44.656  57.046 -53.452  1.00  0.00    -0.361 N 
HETATM   27  H   UNL     1     -44.645  56.900 -54.459  1.00  0.00     0.162 HD
HETATM   28  O   UNL     1     -43.558  56.554 -51.516  1.00  0.00    -0.274 OA
BRANCH  26  29
HETATM   29  C   UNL     1     -45.222  58.294 -52.984  1.00  0.00     0.124 C 
BRANCH  29  30
HETATM   30  C   UNL     1     -44.322  59.515 -53.172  1.00  0.00     0.047 C 
BRANCH  30  31
HETATM   31  C   UNL     1     -43.546  60.020 -51.955  1.00  0.00     0.236 C 
BRANCH  31  32
HETATM   32  N   UNL     1     -42.176  59.420 -51.811  1.00  0.00    -0.067 N 
HETATM   33  H   UNL     1     -42.333  58.434 -51.509  1.00  0.00     0.280 HD
HETATM   34  C   UNL     1     -41.315  59.441 -53.060  1.00  0.00     0.261 C 
HETATM   35  C   UNL     1     -39.969  58.765 -52.776  1.00  0.00     0.195 C 
HETATM   36  O   UNL     1     -39.294  59.396 -51.681  1.00  0.00    -0.388 OA
HETATM   37  C   UNL     1     -40.066  59.312 -50.477  1.00  0.00     0.195 C 
HETATM   38  C   UNL     1     -41.409  60.032 -50.641  1.00  0.00     0.261 C 
ENDBRANCH  31  32
ENDBRANCH  30  31
ENDBRANCH  29  30
ENDBRANCH  26  29
ENDBRANCH  24  25
ENDBRANCH   1  24
TORSDOF 11
ENDMDL
MODEL 6
REMARK VINA RESULT:      -7.7      4.202      9.023
REMARK  11 active torsions:
REMARK  status: ('A' for Active; 'I' for Inactive)
REMARK    1  A    between atoms: O_2  and  C_3 
REMARK    2  A    between atoms: C_6  and  C_7 
REMARK    3  A    between atoms: C_7  and  S_8 
REMARK    4  A    between atoms: C_7  and  C_22 
REMARK    5  A    between atoms: S_8  and  C_9 
REMARK    6  A    between atoms: C_12  and  C_13 
REMARK    7  A    between atoms: C_22  and  C_23 
REMARK       I    between atoms: C_23  and  N_24 
REMARK    8  A    between atoms: N_24  and  C_25 
REMARK    9  A    between atoms: C_25  and  C_26 
REMARK   10  A    between atoms: C_26  and  C_27 
REMARK   11  A    between atoms: C_27  and  N_28 
ROOT
HETATM    1  C   UNL     1     -43.752  58.720 -52.079  1.00  0.00     0.097 C 
ENDROOT
BRANCH   1   2
HETATM    2  C   UNL     1     -43.938  59.946 -51.186  1.00  0.00    -0.043 A 
HETATM    3  C   UNL     1     -45.180  60.170 -50.566  1.00  0.00     0.011 A 
HETATM    4  C   UNL     1     -45.405  61.308 -49.781  1.00  0.00     0.037 A 
HETATM    5  C   UNL     1     -44.393  62.249 -49.604  1.00  0.00     0.068 A 
HETATM    6  C   UNL     1     -43.158  62.039 -50.217  1.00  0.00     0.037 A 
HETATM    7  C   UNL     1     -42.929  60.903 -50.999  1.00  0.00     0.011 A 
BRANCH   5   8
HETATM    8  O   UNL     1     -44.478  63.403 -48.880  1.00  0.00    -0.356 OA
HETATM    9  C   UNL     1     -44.933  63.293 -47.536  1.00  0.00     0.210 C 
ENDBRANCH   5   8
ENDBRANCH   1   2
BRANCH   1  10
HETATM   10  S   UNL     1     -44.389  57.212 -51.221  1.00  0.00    -0.080 SA
BRANCH  10  11
HETATM   11  C   UNL     1     -42.973  56.245 -51.172  1.00  0.00     0.190 A 
HETATM   12  N   UNL     1     -41.861  56.481 -50.529  1.00  0.00    -0.122 NA
HETATM   13  N   UNL     1     -40.978  55.481 -50.878  1.00  0.00    -0.129 NA
HETATM   14  C   UNL     1     -41.575  54.670 -51.738  1.00  0.00     0.162 A 
HETATM   15  N   UNL     1     -42.861  55.115 -51.916  1.00  0.00    -0.317 N 
HETATM   16  H   UNL     1     -43.569  54.721 -52.515  1.00  0.00     0.169 HD
BRANCH  14  17
HETATM   17  C   UNL     1     -40.998  53.496 -52.390  1.00  0.00     0.012 A 
HETATM   18  C   UNL     1     -40.129  52.664 -51.668  1.00  0.00     0.017 A 
HETATM   19  C   UNL     1     -39.562  51.531 -52.260  1.00  0.00     0.025 A 
HETATM   20  C   UNL     1     -39.855  51.226 -53.586  1.00  0.00     0.034 A 
HETATM   21 CL   UNL     1     -39.160  49.834 -54.320  1.00  0.00    -0.084 Cl
HETATM   22  C   UNL     1     -40.706  52.045 -54.324  1.00  0.00     0.025 A 
HETATM   23  C   UNL     1     -41.276  53.177 -53.730  1.00  0.00     0.017 A 
ENDBRANCH  14  17
ENDBRANCH  10  11
ENDBRANCH   1  10
BRANCH   1  24
HETATM   24  C   UNL     1     -44.286  58.908 -53.509  1.00  0.00     0.123 C 
BRANCH  24  25
HETATM   25  C   UNL     1     -44.358  57.631 -54.321  1.00  0.00     0.219 C 
HETATM   26  N   UNL     1     -43.125  57.204 -54.774  1.00  0.00    -0.361 N 
HETATM   27  H   UNL     1     -42.355  57.865 -54.699  1.00  0.00     0.162 HD
HETATM   28  O   UNL     1     -45.380  56.981 -54.528  1.00  0.00    -0.274 OA
BRANCH  26  29
HETATM   29  C   UNL     1     -42.982  56.148 -55.755  1.00  0.00     0.124 C 
BRANCH  29  30
HETATM   30  C   UNL     1     -42.855  56.632 -57.200  1.00  0.00     0.047 C 
BRANCH  30  31
HETATM   31  C   UNL     1     -44.063  57.336 -57.821  1.00  0.00     0.236 C 
BRANCH  31  32
HETATM   32  N   UNL     1     -44.877  56.464 -58.734  1.00  0.00    -0.067 N 
HETATM   33  H   UNL     1     -45.337  55.762 -58.113  1.00  0.00     0.280 HD
HETATM   34  C   UNL     1     -45.927  57.180 -59.562  1.00  0.00     0.261 C 
HETATM   35  C   UNL     1     -46.702  56.165 -60.411  1.00  0.00     0.195 C 
HETATM   36  O   UNL     1     -45.819  55.411 -61.249  1.00  0.00    -0.388 OA
HETATM   37  C   UNL     1     -44.871  54.668 -60.472  1.00  0.00     0.195 C 
HETATM   38  C   UNL     1     -43.993  55.611 -59.641  1.00  0.00     0.261 C 
ENDBRANCH  31  32
ENDBRANCH  30  31
ENDBRANCH  29  30
ENDBRANCH  26  29
ENDBRANCH  24  25
ENDBRANCH   1  24
TORSDOF 11
ENDMDL
MODEL 7
REMARK VINA RESULT:      -7.6      4.804      8.814
REMARK  11 active torsions:
REMARK  status: ('A' for Active; 'I' for Inactive)
REMARK    1  A    between atoms: O_2  and  C_3 
REMARK    2  A    between atoms: C_6  and  C_7 
REMARK    3  A    between atoms: C_7  and  S_8 
REMARK    4  A    between atoms: C_7  and  C_22 
REMARK    5  A    between atoms: S_8  and  C_9 
REMARK    6  A    between atoms: C_12  and  C_13 
REMARK    7  A    between atoms: C_22  and  C_23 
REMARK       I    between atoms: C_23  and  N_24 
REMARK    8  A    between atoms: N_24  and  C_25 
REMARK    9  A    between atoms: C_25  and  C_26 
REMARK   10  A    between atoms: C_26  and  C_27 
REMARK   11  A    between atoms: C_27  and  N_28 
ROOT
HETATM    1  C   UNL     1     -43.239  58.102 -52.507  1.00  0.00     0.097 C 
ENDROOT
BRANCH   1   2
HETATM    2  C   UNL     1     -42.789  56.957 -51.600  1.00  0.00    -0.043 A 
HETATM    3  C   UNL     1     -43.649  55.868 -51.380  1.00  0.00     0.011 A 
HETATM    4  C   UNL     1     -43.293  54.824 -50.515  1.00  0.00     0.037 A 
HETATM    5  C   UNL     1     -42.070  54.853 -49.849  1.00  0.00     0.068 A 
HETATM    6  C   UNL     1     -41.210  55.930 -50.057  1.00  0.00     0.037 A 
HETATM    7  C   UNL     1     -41.561  56.972 -50.920  1.00  0.00     0.011 A 
BRANCH   5   8
HETATM    8  O   UNL     1     -41.603  53.915 -48.973  1.00  0.00    -0.356 OA
HETATM    9  C   UNL     1     -40.450  54.255 -48.214  1.00  0.00     0.210 C 
ENDBRANCH   5   8
ENDBRANCH   1   2
BRANCH   1  10
HETATM   10  S   UNL     1     -42.596  59.709 -51.857  1.00  0.00    -0.080 SA
BRANCH  10  11
HETATM   11  C   UNL     1     -43.795  60.089 -50.690  1.00  0.00     0.190 A 
HETATM   12  N   UNL     1     -45.076  59.839 -50.744  1.00  0.00    -0.122 NA
HETATM   13  N   UNL     1     -45.644  60.426 -49.634  1.00  0.00    -0.129 NA
HETATM   14  C   UNL     1     -44.691  61.032 -48.940  1.00  0.00     0.162 A 
HETATM   15  N   UNL     1     -43.496  60.802 -49.575  1.00  0.00    -0.317 N 
HETATM   16  H   UNL     1     -42.584  61.134 -49.304  1.00  0.00     0.169 HD
BRANCH  14  17
HETATM   17  C   UNL     1     -44.851  61.805 -47.710  1.00  0.00     0.012 A 
HETATM   18  C   UNL     1     -44.943  63.203 -47.782  1.00  0.00     0.017 A 
HETATM   19  C   UNL     1     -45.100  63.973 -46.625  1.00  0.00     0.025 A 
HETATM   20  C   UNL     1     -45.159  63.348 -45.383  1.00  0.00     0.034 A 
HETATM   21 CL   UNL     1     -45.351  64.290 -43.957  1.00  0.00    -0.084 Cl
HETATM   22  C   UNL     1     -45.059  61.962 -45.288  1.00  0.00     0.025 A 
HETATM   23  C   UNL     1     -44.904  61.192 -46.447  1.00  0.00     0.017 A 
ENDBRANCH  14  17
ENDBRANCH  10  11
ENDBRANCH   1  10
BRANCH   1  24
HETATM   24  C   UNL     1     -42.950  57.862 -53.998  1.00  0.00     0.123 C 
BRANCH  24  25
HETATM   25  C   UNL     1     -41.948  56.759 -54.271  1.00  0.00     0.219 C 
HETATM   26  N   UNL     1     -42.519  55.629 -54.822  1.00  0.00    -0.361 N 
HETATM   27  H   UNL     1     -43.535  55.571 -54.799  1.00  0.00     0.162 HD
HETATM   28  O   UNL     1     -40.735  56.845 -54.090  1.00  0.00    -0.274 OA
BRANCH  26  29
HETATM   29  C   UNL     1     -41.800  54.378 -54.948  1.00  0.00     0.124 C 
BRANCH  29  30
HETATM   30  C   UNL     1     -41.738  53.545 -53.667  1.00  0.00     0.047 C 
BRANCH  30  31
HETATM   31  C   UNL     1     -40.398  53.470 -52.933  1.00  0.00     0.236 C 
BRANCH  31  32
HETATM   32  N   UNL     1     -39.775  52.103 -52.937  1.00  0.00    -0.067 N 
HETATM   33  H   UNL     1     -38.757  52.260 -53.106  1.00  0.00     0.280 HD
HETATM   34  C   UNL     1     -39.963  51.292 -51.669  1.00  0.00     0.261 C 
HETATM   35  C   UNL     1     -39.245  49.944 -51.801  1.00  0.00     0.195 C 
HETATM   36  O   UNL     1     -39.713  49.219 -52.944  1.00  0.00    -0.388 OA
HETATM   37  C   UNL     1     -39.469  49.943 -54.156  1.00  0.00     0.195 C 
HETATM   38  C   UNL     1     -40.215  51.283 -54.148  1.00  0.00     0.261 C 
ENDBRANCH  31  32
ENDBRANCH  30  31
ENDBRANCH  29  30
ENDBRANCH  26  29
ENDBRANCH  24  25
ENDBRANCH   1  24
TORSDOF 11
ENDMDL
MODEL 8
REMARK VINA RESULT:      -7.5      1.475      2.629
REMARK  11 active torsions:
REMARK  status: ('A' for Active; 'I' for Inactive)
REMARK    1  A    between atoms: O_2  and  C_3 
REMARK    2  A    between atoms: C_6  and  C_7 
REMARK    3  A    between atoms: C_7  and  S_8 
REMARK    4  A    between atoms: C_7  and  C_22 
REMARK    5  A    between atoms: S_8  and  C_9 
REMARK    6  A    between atoms: C_12  and  C_13 
REMARK    7  A    between atoms: C_22  and  C_23 
REMARK       I    between atoms: C_23  and  N_24 
REMARK    8  A    between atoms: N_24  and  C_25 
REMARK    9  A    between atoms: C_25  and  C_26 
REMARK   10  A    between atoms: C_26  and  C_27 
REMARK   11  A    between atoms: C_27  and  N_28 
ROOT
HETATM    1  C   UNL     1     -42.145  55.097 -53.865  1.00  0.00     0.097 C 
ENDROOT
BRANCH   1   2
HETATM    2  C   UNL     1     -41.364  53.860 -53.423  1.00  0.00    -0.043 A 
HETATM    3  C   UNL     1     -40.960  53.738 -52.082  1.00  0.00     0.011 A 
HETATM    4  C   UNL     1     -40.199  52.643 -51.650  1.00  0.00     0.037 A 
HETATM    5  C   UNL     1     -39.821  51.652 -52.553  1.00  0.00     0.068 A 
HETATM    6  C   UNL     1     -40.213  51.765 -53.886  1.00  0.00     0.037 A 
HETATM    7  C   UNL     1     -40.974  52.854 -54.320  1.00  0.00     0.011 A 
BRANCH   5   8
HETATM    8  O   UNL     1     -39.074  50.545 -52.272  1.00  0.00    -0.356 OA
HETATM    9  C   UNL     1     -39.427  49.801 -51.112  1.00  0.00     0.210 C 
ENDBRANCH   5   8
ENDBRANCH   1   2
BRANCH   1  10
HETATM   10  S   UNL     1     -42.464  55.022 -55.684  1.00  0.00    -0.080 SA
BRANCH  10  11
HETATM   11  C   UNL     1     -42.367  56.684 -56.099  1.00  0.00     0.190 A 
HETATM   12  N   UNL     1     -42.636  57.716 -55.346  1.00  0.00    -0.122 NA
HETATM   13  N   UNL     1     -42.519  58.834 -56.144  1.00  0.00    -0.129 NA
HETATM   14  C   UNL     1     -42.195  58.448 -57.370  1.00  0.00     0.162 A 
HETATM   15  N   UNL     1     -42.059  57.082 -57.360  1.00  0.00    -0.317 N 
HETATM   16  H   UNL     1     -41.827  56.484 -58.136  1.00  0.00     0.169 HD
BRANCH  14  17
HETATM   17  C   UNL     1     -42.002  59.300 -58.541  1.00  0.00     0.012 A 
HETATM   18  C   UNL     1     -41.556  60.619 -58.368  1.00  0.00     0.017 A 
HETATM   19  C   UNL     1     -41.357  61.460 -59.467  1.00  0.00     0.025 A 
HETATM   20  C   UNL     1     -41.611  60.989 -60.752  1.00  0.00     0.034 A 
HETATM   21 CL   UNL     1     -41.369  62.019 -62.107  1.00  0.00    -0.084 Cl
HETATM   22  C   UNL     1     -42.065  59.686 -60.945  1.00  0.00     0.025 A 
HETATM   23  C   UNL     1     -42.261  58.844 -59.845  1.00  0.00     0.017 A 
ENDBRANCH  14  17
ENDBRANCH  10  11
ENDBRANCH   1  10
BRANCH   1  24
HETATM   24  C   UNL     1     -43.395  55.378 -53.015  1.00  0.00     0.123 C 
BRANCH  24  25
HETATM   25  C   UNL     1     -43.303  56.626 -52.162  1.00  0.00     0.219 C 
HETATM   26  N   UNL     1     -42.063  57.232 -52.216  1.00  0.00    -0.361 N 
HETATM   27  H   UNL     1     -41.308  56.695 -52.636  1.00  0.00     0.162 HD
HETATM   28  O   UNL     1     -44.230  57.115 -51.520  1.00  0.00    -0.274 OA
BRANCH  26  29
HETATM   29  C   UNL     1     -41.678  58.293 -51.309  1.00  0.00     0.124 C 
BRANCH  29  30
HETATM   30  C   UNL     1     -41.396  59.637 -51.981  1.00  0.00     0.047 C 
BRANCH  30  31
HETATM   31  C   UNL     1     -42.597  60.486 -52.403  1.00  0.00     0.236 C 
BRANCH  31  32
HETATM   32  N   UNL     1     -43.825  60.268 -51.564  1.00  0.00    -0.067 N 
HETATM   33  H   UNL     1     -43.821  59.253 -51.322  1.00  0.00     0.280 HD
HETATM   34  C   UNL     1     -43.910  61.097 -50.297  1.00  0.00     0.261 C 
HETATM   35  C   UNL     1     -45.188  60.743 -49.528  1.00  0.00     0.195 C 
HETATM   36  O   UNL     1     -46.351  60.935 -50.342  1.00  0.00    -0.388 OA
HETATM   37  C   UNL     1     -46.317  60.098 -51.504  1.00  0.00     0.195 C 
HETATM   38  C   UNL     1     -45.105  60.433 -52.381  1.00  0.00     0.261 C 
ENDBRANCH  31  32
ENDBRANCH  30  31
ENDBRANCH  29  30
ENDBRANCH  26  29
ENDBRANCH  24  25
ENDBRANCH   1  24
TORSDOF 11
ENDMDL
MODEL 9
REMARK VINA RESULT:      -7.5      4.254      8.916
REMARK  11 active torsions:
REMARK  status: ('A' for Active; 'I' for Inactive)
REMARK    1  A    between atoms: O_2  and  C_3 
REMARK    2  A    between atoms: C_6  and  C_7 
REMARK    3  A    between atoms: C_7  and  S_8 
REMARK    4  A    between atoms: C_7  and  C_22 
REMARK    5  A    between atoms: S_8  and  C_9 
REMARK    6  A    between atoms: C_12  and  C_13 
REMARK    7  A    between atoms: C_22  and  C_23 
REMARK       I    between atoms: C_23  and  N_24 
REMARK    8  A    between atoms: N_24  and  C_25 
REMARK    9  A    between atoms: C_25  and  C_26 
REMARK   10  A    between atoms: C_26  and  C_27 
REMARK   11  A    between atoms: C_27  and  N_28 
ROOT
HETATM    1  C   UNL     1     -42.733  58.903 -52.959  1.00  0.00     0.097 C 
ENDROOT
BRANCH   1   2
HETATM    2  C   UNL     1     -43.641  59.454 -51.860  1.00  0.00    -0.043 A 
HETATM    3  C   UNL     1     -44.902  58.872 -51.645  1.00  0.00     0.011 A 
HETATM    4  C   UNL     1     -45.782  59.383 -50.681  1.00  0.00     0.037 A 
HETATM    5  C   UNL     1     -45.419  60.489 -49.917  1.00  0.00     0.068 A 
HETATM    6  C   UNL     1     -44.172  61.077 -50.124  1.00  0.00     0.037 A 
HETATM    7  C   UNL     1     -43.291  60.570 -51.083  1.00  0.00     0.011 A 
BRANCH   5   8
HETATM    8  O   UNL     1     -46.180  61.094 -48.957  1.00  0.00    -0.356 OA
HETATM    9  C   UNL     1     -46.110  62.513 -48.874  1.00  0.00     0.210 C 
ENDBRANCH   5   8
ENDBRANCH   1   2
BRANCH   1  10
HETATM   10  S   UNL     1     -43.580  57.513 -53.836  1.00  0.00    -0.080 SA
BRANCH  10  11
HETATM   11  C   UNL     1     -42.289  56.396 -53.996  1.00  0.00     0.190 A 
HETATM   12  N   UNL     1     -41.411  56.316 -54.960  1.00  0.00    -0.122 NA
HETATM   13  N   UNL     1     -40.644  55.198 -54.709  1.00  0.00    -0.129 NA
HETATM   14  C   UNL     1     -41.088  54.618 -53.604  1.00  0.00     0.162 A 
HETATM   15  N   UNL     1     -42.116  55.382 -53.110  1.00  0.00    -0.317 N 
HETATM   16  H   UNL     1     -42.670  55.206 -52.287  1.00  0.00     0.169 HD
BRANCH  14  17
HETATM   17  C   UNL     1     -40.588  53.390 -52.990  1.00  0.00     0.012 A 
HETATM   18  C   UNL     1     -40.536  53.290 -51.591  1.00  0.00     0.017 A 
HETATM   19  C   UNL     1     -40.066  52.128 -50.971  1.00  0.00     0.025 A 
HETATM   20  C   UNL     1     -39.637  51.056 -51.748  1.00  0.00     0.034 A 
HETATM   21 CL   UNL     1     -39.058  49.625 -50.991  1.00  0.00    -0.084 Cl
HETATM   22  C   UNL     1     -39.670  51.139 -53.138  1.00  0.00     0.025 A 
HETATM   23  C   UNL     1     -40.143  52.301 -53.758  1.00  0.00     0.017 A 
ENDBRANCH  14  17
ENDBRANCH  10  11
ENDBRANCH   1  10
BRANCH   1  24
HETATM   24  C   UNL     1     -42.160  59.983 -53.891  1.00  0.00     0.123 C 
BRANCH  24  25
HETATM   25  C   UNL     1     -42.784  60.014 -55.270  1.00  0.00     0.219 C 
HETATM   26  N   UNL     1     -42.040  59.343 -56.220  1.00  0.00    -0.361 N 
HETATM   27  H   UNL     1     -41.091  59.085 -55.960  1.00  0.00     0.162 HD
HETATM   28  O   UNL     1     -43.870  60.522 -55.544  1.00  0.00    -0.274 OA
BRANCH  26  29
HETATM   29  C   UNL     1     -42.322  59.439 -57.638  1.00  0.00     0.124 C 
BRANCH  29  30
HETATM   30  C   UNL     1     -42.701  58.117 -58.305  1.00  0.00     0.047 C 
BRANCH  30  31
HETATM   31  C   UNL     1     -43.704  57.218 -57.580  1.00  0.00     0.236 C 
BRANCH  31  32
HETATM   32  N   UNL     1     -44.598  56.433 -58.499  1.00  0.00    -0.067 N 
HETATM   33  H   UNL     1     -45.218  55.874 -57.874  1.00  0.00     0.280 HD
HETATM   34  C   UNL     1     -45.441  57.255 -59.455  1.00  0.00     0.261 C 
HETATM   35  C   UNL     1     -46.326  56.329 -60.297  1.00  0.00     0.195 C 
HETATM   36  O   UNL     1     -45.538  55.369 -61.009  1.00  0.00    -0.388 OA
HETATM   37  C   UNL     1     -44.796  54.535 -60.111  1.00  0.00     0.195 C 
HETATM   38  C   UNL     1     -43.821  55.370 -59.273  1.00  0.00     0.261 C 
ENDBRANCH  31  32
ENDBRANCH  30  31
ENDBRANCH  29  30
ENDBRANCH  26  29
ENDBRANCH  24  25
ENDBRANCH   1  24
TORSDOF 11
ENDMDL
MODEL 10
REMARK VINA RESULT:      -7.4      3.466      6.819
REMARK  11 active torsions:
REMARK  status: ('A' for Active; 'I' for Inactive)
REMARK    1  A    between atoms: O_2  and  C_3 
REMARK    2  A    between atoms: C_6  and  C_7 
REMARK    3  A    between atoms: C_7  and  S_8 
REMARK    4  A    between atoms: C_7  and  C_22 
REMARK    5  A    between atoms: S_8  and  C_9 
REMARK    6  A    between atoms: C_12  and  C_13 
REMARK    7  A    between atoms: C_22  and  C_23 
REMARK       I    between atoms: C_23  and  N_24 
REMARK    8  A    between atoms: N_24  and  C_25 
REMARK    9  A    between atoms: C_25  and  C_26 
REMARK   10  A    between atoms: C_26  and  C_27 
REMARK   11  A    between atoms: C_27  and  N_28 
ROOT
HETATM    1  C   UNL     1     -41.885  55.236 -53.378  1.00  0.00     0.097 C 
ENDROOT
BRANCH   1   2
HETATM    2  C   UNL     1     -41.086  54.019 -52.915  1.00  0.00    -0.043 A 
HETATM    3  C   UNL     1     -40.607  53.101 -53.866  1.00  0.00     0.011 A 
HETATM    4  C   UNL     1     -39.914  51.947 -53.476  1.00  0.00     0.037 A 
HETATM    5  C   UNL     1     -39.691  51.686 -52.127  1.00  0.00     0.068 A 
HETATM    6  C   UNL     1     -40.164  52.587 -51.174  1.00  0.00     0.037 A 
HETATM    7  C   UNL     1     -40.853  53.741 -51.559  1.00  0.00     0.011 A 
BRANCH   5   8
HETATM    8  O   UNL     1     -39.045  50.600 -51.608  1.00  0.00    -0.356 OA
HETATM    9  C   UNL     1     -39.784  49.767 -50.724  1.00  0.00     0.210 C 
ENDBRANCH   5   8
ENDBRANCH   1   2
BRANCH   1  10
HETATM   10  S   UNL     1     -40.781  56.404 -54.292  1.00  0.00    -0.080 SA
BRANCH  10  11
HETATM   11  C   UNL     1     -41.107  57.871 -53.465  1.00  0.00     0.190 A 
HETATM   12  N   UNL     1     -40.321  58.906 -53.327  1.00  0.00    -0.122 NA
HETATM   13  N   UNL     1     -40.973  59.793 -52.497  1.00  0.00    -0.129 NA
HETATM   14  C   UNL     1     -42.134  59.265 -52.140  1.00  0.00     0.162 A 
HETATM   15  N   UNL     1     -42.259  58.053 -52.772  1.00  0.00    -0.317 N 
HETATM   16  H   UNL     1     -43.024  57.401 -52.702  1.00  0.00     0.169 HD
BRANCH  14  17
HETATM   17  C   UNL     1     -43.130  59.848 -51.242  1.00  0.00     0.012 A 
HETATM   18  C   UNL     1     -42.787  60.965 -50.465  1.00  0.00     0.017 A 
HETATM   19  C   UNL     1     -43.717  61.550 -49.599  1.00  0.00     0.025 A 
HETATM   20  C   UNL     1     -44.997  61.015 -49.498  1.00  0.00     0.034 A 
HETATM   21 CL   UNL     1     -46.144  61.729 -48.434  1.00  0.00    -0.084 Cl
HETATM   22  C   UNL     1     -45.354  59.899 -50.252  1.00  0.00     0.025 A 
HETATM   23  C   UNL     1     -44.424  59.316 -51.121  1.00  0.00     0.017 A 
ENDBRANCH  14  17
ENDBRANCH  10  11
ENDBRANCH   1  10
BRANCH   1  24
HETATM   24  C   UNL     1     -43.183  54.880 -54.122  1.00  0.00     0.123 C 
BRANCH  24  25
HETATM   25  C   UNL     1     -43.632  55.919 -55.127  1.00  0.00     0.219 C 
HETATM   26  N   UNL     1     -43.380  55.556 -56.436  1.00  0.00    -0.361 N 
HETATM   27  H   UNL     1     -42.760  54.762 -56.579  1.00  0.00     0.162 HD
HETATM   28  O   UNL     1     -44.219  56.964 -54.852  1.00  0.00    -0.274 OA
BRANCH  26  29
HETATM   29  C   UNL     1     -43.509  56.486 -57.538  1.00  0.00     0.124 C 
BRANCH  29  30
HETATM   30  C   UNL     1     -43.007  55.958 -58.882  1.00  0.00     0.047 C 
BRANCH  30  31
HETATM   31  C   UNL     1     -43.835  56.282 -60.127  1.00  0.00     0.236 C 
BRANCH  31  32
HETATM   32  N   UNL     1     -43.584  57.652 -60.690  1.00  0.00    -0.067 N 
HETATM   33  H   UNL     1     -43.564  57.529 -61.726  1.00  0.00     0.280 HD
HETATM   34  C   UNL     1     -44.605  58.711 -60.319  1.00  0.00     0.261 C 
HETATM   35  C   UNL     1     -44.244  60.040 -60.992  1.00  0.00     0.195 C 
HETATM   36  O   UNL     1     -42.922  60.459 -60.633  1.00  0.00    -0.388 OA
HETATM   37  C   UNL     1     -41.941  59.500 -61.048  1.00  0.00     0.195 C 
HETATM   38  C   UNL     1     -42.178  58.150 -60.363  1.00  0.00     0.261 C 
ENDBRANCH  31  32
ENDBRANCH  30  31
ENDBRANCH  29  30
ENDBRANCH  26  29
ENDBRANCH  24  25
ENDBRANCH   1  24
TORSDOF 11
ENDMDL
