MODEL 1
REMARK VINA RESULT:      -7.9      0.000      0.000
REMARK  2 active torsions:
REMARK  status: ('A' for Active; 'I' for Inactive)
REMARK    1  A    between atoms: C_6  and  N_7 
REMARK       I    between atoms: N_7  and  C_8 
REMARK       I    between atoms: C_8  and  N_9 
REMARK    2  A    between atoms: N_9  and  C_10 
ROOT
HETATM    1  N   UNL     1     -43.604  55.710 -56.807  1.00  0.00    -0.306 N 
HETATM    2  C   UNL     1     -43.025  55.036 -55.778  1.00  0.00     0.321 C 
HETATM    3  N   UNL     1     -41.675  54.874 -55.783  1.00  0.00    -0.338 N 
HETATM    4  O   UNL     1     -43.716  54.719 -54.811  1.00  0.00    -0.247 OA
HETATM    5  H   UNL     1     -44.539  55.999 -56.540  1.00  0.00     0.171 HD
HETATM    6  H   UNL     1     -41.251  54.775 -56.694  1.00  0.00     0.164 HD
ENDROOT
BRANCH   3   7
HETATM    7  C   UNL     1     -40.932  54.302 -54.668  1.00  0.00     0.092 C 
HETATM    8  C   UNL     1     -41.301  54.982 -53.318  1.00  0.00     0.084 C 
HETATM    9  C   UNL     1     -40.719  54.211 -52.207  1.00  0.00     0.034 A 
HETATM   10  C   UNL     1     -40.209  52.935 -52.296  1.00  0.00     0.033 A 
HETATM   11  N   UNL     1     -40.597  54.584 -50.885  1.00  0.00    -0.354 N 
HETATM   12  N   UNL     1     -39.793  52.598 -51.025  1.00  0.00    -0.354 N 
HETATM   13  C   UNL     1     -40.115  52.132 -53.530  1.00  0.00     0.061 C 
HETATM   14  H   UNL     1     -39.369  51.712 -50.760  1.00  0.00     0.166 HD
HETATM   15  C   UNL     1     -40.040  53.599 -50.173  1.00  0.00     0.180 A 
HETATM   16  C   UNL     1     -41.025  52.749 -54.614  1.00  0.00     0.031 C 
HETATM   17  H   UNL     1     -40.904  55.473 -50.496  1.00  0.00     0.166 HD
ENDBRANCH   3   7
BRANCH   1  18
HETATM   18  C   UNL     1     -43.066  56.327 -57.959  1.00  0.00     0.077 A 
HETATM   19  C   UNL     1     -43.115  55.881 -59.282  1.00  0.00     0.152 A 
HETATM   20  N   UNL     1     -42.517  56.500 -60.326  1.00  0.00    -0.247 NA
HETATM   21 CL   UNL     1     -44.097  54.567 -59.817  1.00  0.00    -0.060 Cl
HETATM   22  C   UNL     1     -41.868  57.651 -60.063  1.00  0.00     0.118 A 
HETATM   23  C   UNL     1     -41.810  58.222 -58.805  1.00  0.00     0.022 A 
HETATM   24  C   UNL     1     -42.427  57.556 -57.748  1.00  0.00     0.034 A 
ENDBRANCH   1  18
TORSDOF 2
ENDMDL
MODEL 2
REMARK VINA RESULT:      -7.6      4.497      6.978
REMARK  2 active torsions:
REMARK  status: ('A' for Active; 'I' for Inactive)
REMARK    1  A    between atoms: C_6  and  N_7 
REMARK       I    between atoms: N_7  and  C_8 
REMARK       I    between atoms: C_8  and  N_9 
REMARK    2  A    between atoms: N_9  and  C_10 
ROOT
HETATM    1  N   UNL     1     -39.868  52.762 -54.041  1.00  0.00    -0.306 N 
HETATM    2  C   UNL     1     -40.490  53.966 -53.938  1.00  0.00     0.321 C 
HETATM    3  N   UNL     1     -41.201  54.238 -52.812  1.00  0.00    -0.338 N 
HETATM    4  O   UNL     1     -40.276  54.821 -54.797  1.00  0.00    -0.247 OA
HETATM    5  H   UNL     1     -39.163  52.804 -54.769  1.00  0.00     0.171 HD
HETATM    6  H   UNL     1     -41.659  53.447 -52.383  1.00  0.00     0.164 HD
ENDROOT
BRANCH   3   7
HETATM    7  C   UNL     1     -41.785  55.543 -52.528  1.00  0.00     0.092 C 
HETATM    8  C   UNL     1     -43.308  55.440 -52.225  1.00  0.00     0.084 C 
HETATM    9  C   UNL     1     -43.790  56.731 -51.706  1.00  0.00     0.034 A 
HETATM   10  C   UNL     1     -42.997  57.762 -51.253  1.00  0.00     0.033 A 
HETATM   11  N   UNL     1     -45.095  57.148 -51.544  1.00  0.00    -0.354 N 
HETATM   12  N   UNL     1     -43.858  58.758 -50.846  1.00  0.00    -0.354 N 
HETATM   13  C   UNL     1     -41.522  57.772 -51.251  1.00  0.00     0.061 C 
HETATM   14  H   UNL     1     -43.578  59.657 -50.458  1.00  0.00     0.166 HD
HETATM   15  C   UNL     1     -45.129  58.376 -51.015  1.00  0.00     0.180 A 
HETATM   16  C   UNL     1     -40.998  56.332 -51.440  1.00  0.00     0.031 C 
HETATM   17  H   UNL     1     -45.920  56.596 -51.771  1.00  0.00     0.166 HD
ENDBRANCH   3   7
BRANCH   1  18
HETATM   18  C   UNL     1     -39.792  51.656 -53.164  1.00  0.00     0.077 A 
HETATM   19  C   UNL     1     -39.796  50.296 -53.485  1.00  0.00     0.152 A 
HETATM   20  N   UNL     1     -39.785  49.291 -52.578  1.00  0.00    -0.247 NA
HETATM   21 CL   UNL     1     -39.637  49.687 -55.091  1.00  0.00    -0.060 Cl
HETATM   22  C   UNL     1     -39.720  49.641 -51.278  1.00  0.00     0.118 A 
HETATM   23  C   UNL     1     -39.644  50.953 -50.847  1.00  0.00     0.022 A 
HETATM   24  C   UNL     1     -39.668  51.967 -51.803  1.00  0.00     0.034 A 
ENDBRANCH   1  18
TORSDOF 2
ENDMDL
MODEL 3
REMARK VINA RESULT:      -7.6      5.510      7.223
REMARK  2 active torsions:
REMARK  status: ('A' for Active; 'I' for Inactive)
REMARK    1  A    between atoms: C_6  and  N_7 
REMARK       I    between atoms: N_7  and  C_8 
REMARK       I    between atoms: C_8  and  N_9 
REMARK    2  A    between atoms: N_9  and  C_10 
ROOT
HETATM    1  N   UNL     1     -39.226  52.556 -51.288  1.00  0.00    -0.306 N 
HETATM    2  C   UNL     1     -39.940  53.640 -50.882  1.00  0.00     0.321 C 
HETATM    3  N   UNL     1     -41.130  53.898 -51.484  1.00  0.00    -0.338 N 
HETATM    4  O   UNL     1     -39.559  54.266 -49.894  1.00  0.00    -0.247 OA
HETATM    5  H   UNL     1     -38.531  52.323 -50.586  1.00  0.00     0.171 HD
HETATM    6  H   UNL     1     -41.188  53.650 -52.462  1.00  0.00     0.164 HD
ENDROOT
BRANCH   3   7
HETATM    7  C   UNL     1     -42.046  54.939 -51.036  1.00  0.00     0.092 C 
HETATM    8  C   UNL     1     -41.779  56.292 -51.755  1.00  0.00     0.084 C 
HETATM    9  C   UNL     1     -42.875  57.229 -51.456  1.00  0.00     0.034 A 
HETATM   10  C   UNL     1     -44.092  56.893 -50.908  1.00  0.00     0.033 A 
HETATM   11  N   UNL     1     -42.917  58.589 -51.685  1.00  0.00    -0.354 N 
HETATM   12  N   UNL     1     -44.812  58.065 -50.821  1.00  0.00    -0.354 N 
HETATM   13  C   UNL     1     -44.496  55.539 -50.481  1.00  0.00     0.061 C 
HETATM   14  H   UNL     1     -45.758  58.150 -50.455  1.00  0.00     0.166 HD
HETATM   15  C   UNL     1     -44.098  59.088 -51.303  1.00  0.00     0.180 A 
HETATM   16  C   UNL     1     -43.538  54.499 -51.100  1.00  0.00     0.031 C 
HETATM   17  H   UNL     1     -42.169  59.137 -52.104  1.00  0.00     0.166 HD
ENDBRANCH   3   7
BRANCH   1  18
HETATM   18  C   UNL     1     -39.476  51.568 -52.268  1.00  0.00     0.077 A 
HETATM   19  C   UNL     1     -39.545  50.182 -52.100  1.00  0.00     0.152 A 
HETATM   20  N   UNL     1     -39.727  49.293 -53.104  1.00  0.00    -0.247 NA
HETATM   21 CL   UNL     1     -39.587  49.401 -50.562  1.00  0.00    -0.060 Cl
HETATM   22  C   UNL     1     -39.897  49.797 -54.343  1.00  0.00     0.118 A 
HETATM   23  C   UNL     1     -39.913  51.152 -54.617  1.00  0.00     0.022 A 
HETATM   24  C   UNL     1     -39.713  52.043 -53.564  1.00  0.00     0.034 A 
ENDBRANCH   1  18
TORSDOF 2
ENDMDL
MODEL 4
REMARK VINA RESULT:      -7.5      2.319      3.069
REMARK  2 active torsions:
REMARK  status: ('A' for Active; 'I' for Inactive)
REMARK    1  A    between atoms: C_6  and  N_7 
REMARK       I    between atoms: N_7  and  C_8 
REMARK       I    between atoms: C_8  and  N_9 
REMARK    2  A    between atoms: N_9  and  C_10 
ROOT
HETATM    1  N   UNL     1     -44.365  57.891 -58.087  1.00  0.00    -0.306 N 
HETATM    2  C   UNL     1     -43.818  57.600 -56.876  1.00  0.00     0.321 C 
HETATM    3  N   UNL     1     -43.637  56.296 -56.540  1.00  0.00    -0.338 N 
HETATM    4  O   UNL     1     -43.377  58.519 -56.188  1.00  0.00    -0.247 OA
HETATM    5  H   UNL     1     -44.180  58.860 -58.321  1.00  0.00     0.171 HD
HETATM    6  H   UNL     1     -44.328  55.652 -56.898  1.00  0.00     0.164 HD
ENDROOT
BRANCH   3   7
HETATM    7  C   UNL     1     -42.930  55.869 -55.339  1.00  0.00     0.092 C 
HETATM    8  C   UNL     1     -43.913  55.429 -54.217  1.00  0.00     0.084 C 
HETATM    9  C   UNL     1     -43.157  54.779 -53.132  1.00  0.00     0.034 A 
HETATM   10  C   UNL     1     -41.856  54.336 -53.215  1.00  0.00     0.033 A 
HETATM   11  N   UNL     1     -43.593  54.463 -51.862  1.00  0.00    -0.354 N 
HETATM   12  N   UNL     1     -41.561  53.781 -51.987  1.00  0.00    -0.354 N 
HETATM   13  C   UNL     1     -40.975  54.475 -54.390  1.00  0.00     0.061 C 
HETATM   14  H   UNL     1     -40.670  53.362 -51.729  1.00  0.00     0.166 HD
HETATM   15  C   UNL     1     -42.622  53.852 -51.175  1.00  0.00     0.180 A 
HETATM   16  C   UNL     1     -41.826  54.811 -55.633  1.00  0.00     0.031 C 
HETATM   17  H   UNL     1     -44.527  54.647 -51.500  1.00  0.00     0.166 HD
ENDBRANCH   3   7
BRANCH   1  18
HETATM   18  C   UNL     1     -44.811  57.069 -59.148  1.00  0.00     0.077 A 
HETATM   19  C   UNL     1     -44.043  56.315 -60.039  1.00  0.00     0.152 A 
HETATM   20  N   UNL     1     -44.545  55.601 -61.074  1.00  0.00    -0.247 NA
HETATM   21 CL   UNL     1     -42.352  56.034 -59.851  1.00  0.00    -0.060 Cl
HETATM   22  C   UNL     1     -45.885  55.590 -61.215  1.00  0.00     0.118 A 
HETATM   23  C   UNL     1     -46.747  56.244 -60.355  1.00  0.00     0.022 A 
HETATM   24  C   UNL     1     -46.201  56.980 -59.305  1.00  0.00     0.034 A 
ENDBRANCH   1  18
TORSDOF 2
ENDMDL
MODEL 5
REMARK VINA RESULT:      -7.5      4.099      6.887
REMARK  2 active torsions:
REMARK  status: ('A' for Active; 'I' for Inactive)
REMARK    1  A    between atoms: C_6  and  N_7 
REMARK       I    between atoms: N_7  and  C_8 
REMARK       I    between atoms: C_8  and  N_9 
REMARK    2  A    between atoms: N_9  and  C_10 
ROOT
HETATM    1  N   UNL     1     -40.034  53.410 -54.209  1.00  0.00    -0.306 N 
HETATM    2  C   UNL     1     -40.981  54.384 -54.142  1.00  0.00     0.321 C 
HETATM    3  N   UNL     1     -42.071  54.179 -53.357  1.00  0.00    -0.338 N 
HETATM    4  O   UNL     1     -40.755  55.469 -54.675  1.00  0.00    -0.247 OA
HETATM    5  H   UNL     1     -39.173  53.797 -54.581  1.00  0.00     0.171 HD
HETATM    6  H   UNL     1     -42.391  53.223 -53.295  1.00  0.00     0.164 HD
ENDROOT
BRANCH   3   7
HETATM    7  C   UNL     1     -43.072  55.204 -53.092  1.00  0.00     0.092 C 
HETATM    8  C   UNL     1     -42.614  56.181 -51.971  1.00  0.00     0.084 C 
HETATM    9  C   UNL     1     -43.537  57.328 -51.917  1.00  0.00     0.034 A 
HETATM   10  C   UNL     1     -44.457  57.665 -52.884  1.00  0.00     0.033 A 
HETATM   11  N   UNL     1     -43.643  58.288 -50.932  1.00  0.00    -0.354 N 
HETATM   12  N   UNL     1     -45.085  58.808 -52.435  1.00  0.00    -0.354 N 
HETATM   13  C   UNL     1     -44.713  56.909 -54.125  1.00  0.00     0.061 C 
HETATM   14  H   UNL     1     -45.821  59.308 -52.930  1.00  0.00     0.166 HD
HETATM   15  C   UNL     1     -44.579  59.186 -51.256  1.00  0.00     0.180 A 
HETATM   16  C   UNL     1     -43.545  55.935 -54.383  1.00  0.00     0.031 C 
HETATM   17  H   UNL     1     -43.077  58.326 -50.086  1.00  0.00     0.166 HD
ENDBRANCH   3   7
BRANCH   1  18
HETATM   18  C   UNL     1     -39.931  52.143 -53.591  1.00  0.00     0.077 A 
HETATM   19  C   UNL     1     -39.696  51.856 -52.244  1.00  0.00     0.152 A 
HETATM   20  N   UNL     1     -39.546  50.609 -51.737  1.00  0.00    -0.247 NA
HETATM   21 CL   UNL     1     -39.737  53.037 -50.987  1.00  0.00    -0.060 Cl
HETATM   22  C   UNL     1     -39.680  49.580 -52.597  1.00  0.00     0.118 A 
HETATM   23  C   UNL     1     -39.978  49.743 -53.937  1.00  0.00     0.022 A 
HETATM   24  C   UNL     1     -40.117  51.038 -54.432  1.00  0.00     0.034 A 
ENDBRANCH   1  18
TORSDOF 2
ENDMDL
MODEL 6
REMARK VINA RESULT:      -7.3      4.810      5.617
REMARK  2 active torsions:
REMARK  status: ('A' for Active; 'I' for Inactive)
REMARK    1  A    between atoms: C_6  and  N_7 
REMARK       I    between atoms: N_7  and  C_8 
REMARK       I    between atoms: C_8  and  N_9 
REMARK    2  A    between atoms: N_9  and  C_10 
ROOT
HETATM    1  N   UNL     1     -43.814  57.008 -50.934  1.00  0.00    -0.306 N 
HETATM    2  C   UNL     1     -43.411  55.711 -51.016  1.00  0.00     0.321 C 
HETATM    3  N   UNL     1     -42.391  55.400 -51.858  1.00  0.00    -0.338 N 
HETATM    4  O   UNL     1     -43.882  54.892 -50.229  1.00  0.00    -0.247 OA
HETATM    5  H   UNL     1     -44.361  57.141 -50.089  1.00  0.00     0.171 HD
HETATM    6  H   UNL     1     -42.336  55.952 -52.702  1.00  0.00     0.164 HD
ENDROOT
BRANCH   3   7
HETATM    7  C   UNL     1     -41.779  54.078 -51.921  1.00  0.00     0.092 C 
HETATM    8  C   UNL     1     -41.466  53.657 -53.386  1.00  0.00     0.084 C 
HETATM    9  C   UNL     1     -40.633  52.442 -53.377  1.00  0.00     0.034 A 
HETATM   10  C   UNL     1     -39.966  51.934 -52.285  1.00  0.00     0.033 A 
HETATM   11  N   UNL     1     -40.335  51.608 -54.434  1.00  0.00    -0.354 N 
HETATM   12  N   UNL     1     -39.302  50.810 -52.729  1.00  0.00    -0.354 N 
HETATM   13  C   UNL     1     -40.004  52.492 -50.920  1.00  0.00     0.061 C 
HETATM   14  H   UNL     1     -38.715  50.208 -52.156  1.00  0.00     0.166 HD
HETATM   15  C   UNL     1     -39.522  50.624 -54.036  1.00  0.00     0.180 A 
HETATM   16  C   UNL     1     -40.556  53.933 -50.970  1.00  0.00     0.031 C 
HETATM   17  H   UNL     1     -40.666  51.730 -55.389  1.00  0.00     0.166 HD
ENDBRANCH   3   7
BRANCH   1  18
HETATM   18  C   UNL     1     -43.364  58.183 -51.576  1.00  0.00     0.077 A 
HETATM   19  C   UNL     1     -42.209  58.925 -51.313  1.00  0.00     0.152 A 
HETATM   20  N   UNL     1     -41.879  60.082 -51.933  1.00  0.00    -0.247 NA
HETATM   21 CL   UNL     1     -40.936  58.386 -50.282  1.00  0.00    -0.060 Cl
HETATM   22  C   UNL     1     -42.710  60.514 -52.902  1.00  0.00     0.118 A 
HETATM   23  C   UNL     1     -43.845  59.829 -53.292  1.00  0.00     0.022 A 
HETATM   24  C   UNL     1     -44.166  58.646 -52.629  1.00  0.00     0.034 A 
ENDBRANCH   1  18
TORSDOF 2
ENDMDL
MODEL 7
REMARK VINA RESULT:      -7.0     14.619     17.272
REMARK  2 active torsions:
REMARK  status: ('A' for Active; 'I' for Inactive)
REMARK    1  A    between atoms: C_6  and  N_7 
REMARK       I    between atoms: N_7  and  C_8 
REMARK       I    between atoms: C_8  and  N_9 
REMARK    2  A    between atoms: N_9  and  C_10 
ROOT
HETATM    1  N   UNL     1     -34.947  41.525 -51.958  1.00  0.00    -0.306 N 
HETATM    2  C   UNL     1     -35.670  41.741 -53.090  1.00  0.00     0.321 C 
HETATM    3  N   UNL     1     -35.576  40.841 -54.104  1.00  0.00    -0.338 N 
HETATM    4  O   UNL     1     -36.489  42.659 -53.105  1.00  0.00    -0.247 OA
HETATM    5  H   UNL     1     -35.319  42.090 -51.203  1.00  0.00     0.171 HD
HETATM    6  H   UNL     1     -34.675  40.398 -54.213  1.00  0.00     0.164 HD
ENDROOT
BRANCH   3   7
HETATM    7  C   UNL     1     -36.411  40.889 -55.297  1.00  0.00     0.092 C 
HETATM    8  C   UNL     1     -35.830  41.857 -56.369  1.00  0.00     0.084 C 
HETATM    9  C   UNL     1     -36.564  41.681 -57.634  1.00  0.00     0.034 A 
HETATM   10  C   UNL     1     -37.401  40.630 -57.938  1.00  0.00     0.033 A 
HETATM   11  N   UNL     1     -36.540  42.491 -58.751  1.00  0.00    -0.354 N 
HETATM   12  N   UNL     1     -37.852  40.858 -59.221  1.00  0.00    -0.354 N 
HETATM   13  C   UNL     1     -37.745  39.518 -57.032  1.00  0.00     0.061 C 
HETATM   14  H   UNL     1     -38.491  40.255 -59.735  1.00  0.00     0.166 HD
HETATM   15  C   UNL     1     -37.319  41.982 -59.711  1.00  0.00     0.180 A 
HETATM   16  C   UNL     1     -36.737  39.476 -55.864  1.00  0.00     0.031 C 
HETATM   17  H   UNL     1     -35.993  43.344 -58.845  1.00  0.00     0.166 HD
ENDBRANCH   3   7
BRANCH   1  18
HETATM   18  C   UNL     1     -34.060  40.490 -51.583  1.00  0.00     0.077 A 
HETATM   19  C   UNL     1     -34.369  39.178 -51.216  1.00  0.00     0.152 A 
HETATM   20  N   UNL     1     -33.464  38.259 -50.805  1.00  0.00    -0.247 NA
HETATM   21 CL   UNL     1     -35.933  38.471 -51.398  1.00  0.00    -0.060 Cl
HETATM   22  C   UNL     1     -32.170  38.638 -50.798  1.00  0.00     0.118 A 
HETATM   23  C   UNL     1     -31.741  39.888 -51.204  1.00  0.00     0.022 A 
HETATM   24  C   UNL     1     -32.698  40.816 -51.611  1.00  0.00     0.034 A 
ENDBRANCH   1  18
TORSDOF 2
ENDMDL
MODEL 8
REMARK VINA RESULT:      -7.0     14.652     16.855
REMARK  2 active torsions:
REMARK  status: ('A' for Active; 'I' for Inactive)
REMARK    1  A    between atoms: C_6  and  N_7 
REMARK       I    between atoms: N_7  and  C_8 
REMARK       I    between atoms: C_8  and  N_9 
REMARK    2  A    between atoms: N_9  and  C_10 
ROOT
HETATM    1  N   UNL     1     -35.427  42.305 -53.829  1.00  0.00    -0.306 N 
HETATM    2  C   UNL     1     -35.358  42.223 -55.185  1.00  0.00     0.321 C 
HETATM    3  N   UNL     1     -35.959  41.175 -55.806  1.00  0.00    -0.338 N 
HETATM    4  O   UNL     1     -34.879  43.166 -55.813  1.00  0.00    -0.247 OA
HETATM    5  H   UNL     1     -35.200  43.248 -53.533  1.00  0.00     0.171 HD
HETATM    6  H   UNL     1     -35.959  40.305 -55.293  1.00  0.00     0.164 HD
ENDROOT
BRANCH   3   7
HETATM    7  C   UNL     1     -36.076  41.061 -57.254  1.00  0.00     0.092 C 
HETATM    8  C   UNL     1     -36.029  39.578 -57.722  1.00  0.00     0.084 C 
HETATM    9  C   UNL     1     -36.397  39.503 -59.146  1.00  0.00     0.034 A 
HETATM   10  C   UNL     1     -36.996  40.506 -59.874  1.00  0.00     0.033 A 
HETATM   11  N   UNL     1     -36.252  38.435 -60.007  1.00  0.00    -0.354 N 
HETATM   12  N   UNL     1     -37.176  40.003 -61.145  1.00  0.00    -0.354 N 
HETATM   13  C   UNL     1     -37.332  41.850 -59.368  1.00  0.00     0.061 C 
HETATM   14  H   UNL     1     -37.598  40.506 -61.923  1.00  0.00     0.166 HD
HETATM   15  C   UNL     1     -36.732  38.743 -61.216  1.00  0.00     0.180 A 
HETATM   16  C   UNL     1     -37.296  41.842 -57.825  1.00  0.00     0.031 C 
HETATM   17  H   UNL     1     -35.855  37.531 -59.758  1.00  0.00     0.166 HD
ENDBRANCH   3   7
BRANCH   1  18
HETATM   18  C   UNL     1     -36.040  41.478 -52.860  1.00  0.00     0.077 A 
HETATM   19  C   UNL     1     -35.461  40.900 -51.727  1.00  0.00     0.152 A 
HETATM   20  N   UNL     1     -36.101  40.062 -50.878  1.00  0.00    -0.247 NA
HETATM   21 CL   UNL     1     -33.892  41.305 -51.137  1.00  0.00    -0.060 Cl
HETATM   22  C   UNL     1     -37.401  39.813 -51.130  1.00  0.00     0.118 A 
HETATM   23  C   UNL     1     -38.094  40.380 -52.183  1.00  0.00     0.022 A 
HETATM   24  C   UNL     1     -37.406  41.230 -53.047  1.00  0.00     0.034 A 
ENDBRANCH   1  18
TORSDOF 2
ENDMDL
MODEL 9
REMARK VINA RESULT:      -6.8     14.576     16.146
REMARK  2 active torsions:
REMARK  status: ('A' for Active; 'I' for Inactive)
REMARK    1  A    between atoms: C_6  and  N_7 
REMARK       I    between atoms: N_7  and  C_8 
REMARK       I    between atoms: C_8  and  N_9 
REMARK    2  A    between atoms: N_9  and  C_10 
ROOT
HETATM    1  N   UNL     1     -36.971  42.047 -55.070  1.00  0.00    -0.306 N 
HETATM    2  C   UNL     1     -36.239  41.903 -53.933  1.00  0.00     0.321 C 
HETATM    3  N   UNL     1     -35.305  40.917 -53.881  1.00  0.00    -0.338 N 
HETATM    4  O   UNL     1     -36.343  42.751 -53.048  1.00  0.00    -0.247 OA
HETATM    5  H   UNL     1     -37.405  42.964 -55.082  1.00  0.00     0.171 HD
HETATM    6  H   UNL     1     -35.529  40.076 -54.392  1.00  0.00     0.164 HD
ENDROOT
BRANCH   3   7
HETATM    7  C   UNL     1     -34.365  40.762 -52.778  1.00  0.00     0.092 C 
HETATM    8  C   UNL     1     -34.964  39.905 -51.625  1.00  0.00     0.084 C 
HETATM    9  C   UNL     1     -33.902  39.572 -50.661  1.00  0.00     0.034 A 
HETATM   10  C   UNL     1     -32.549  39.706 -50.879  1.00  0.00     0.033 A 
HETATM   11  N   UNL     1     -34.039  39.046 -49.393  1.00  0.00    -0.354 N 
HETATM   12  N   UNL     1     -31.930  39.263 -49.729  1.00  0.00    -0.354 N 
HETATM   13  C   UNL     1     -31.926  40.248 -52.101  1.00  0.00     0.061 C 
HETATM   14  H   UNL     1     -30.924  39.235 -49.577  1.00  0.00     0.166 HD
HETATM   15  C   UNL     1     -32.838  38.855 -48.836  1.00  0.00     0.180 A 
HETATM   16  C   UNL     1     -32.965  40.265 -53.243  1.00  0.00     0.031 C 
HETATM   17  H   UNL     1     -34.924  38.814 -48.947  1.00  0.00     0.166 HD
ENDBRANCH   3   7
BRANCH   1  18
HETATM   18  C   UNL     1     -36.965  41.345 -56.297  1.00  0.00     0.077 A 
HETATM   19  C   UNL     1     -35.944  41.278 -57.249  1.00  0.00     0.152 A 
HETATM   20  N   UNL     1     -36.039  40.633 -58.436  1.00  0.00    -0.247 NA
HETATM   21 CL   UNL     1     -34.341  41.857 -56.982  1.00  0.00    -0.060 Cl
HETATM   22  C   UNL     1     -37.189  39.977 -58.683  1.00  0.00     0.118 A 
HETATM   23  C   UNL     1     -38.241  39.919 -57.788  1.00  0.00     0.022 A 
HETATM   24  C   UNL     1     -38.118  40.602 -56.578  1.00  0.00     0.034 A 
ENDBRANCH   1  18
TORSDOF 2
ENDMDL
MODEL 10
REMARK VINA RESULT:      -6.8      3.050      7.473
REMARK  2 active torsions:
REMARK  status: ('A' for Active; 'I' for Inactive)
REMARK    1  A    between atoms: C_6  and  N_7 
REMARK       I    between atoms: N_7  and  C_8 
REMARK       I    between atoms: C_8  and  N_9 
REMARK    2  A    between atoms: N_9  and  C_10 
ROOT
HETATM    1  N   UNL     1     -44.029  56.529 -52.666  1.00  0.00    -0.306 N 
HETATM    2  C   UNL     1     -44.170  56.880 -53.972  1.00  0.00     0.321 C 
HETATM    3  N   UNL     1     -43.168  56.579 -54.839  1.00  0.00    -0.338 N 
HETATM    4  O   UNL     1     -45.251  57.328 -54.353  1.00  0.00    -0.247 OA
HETATM    5  H   UNL     1     -44.935  56.549 -52.208  1.00  0.00     0.171 HD
HETATM    6  H   UNL     1     -42.235  56.607 -54.454  1.00  0.00     0.164 HD
ENDROOT
BRANCH   3   7
HETATM    7  C   UNL     1     -43.270  56.772 -56.280  1.00  0.00     0.092 C 
HETATM    8  C   UNL     1     -42.499  58.041 -56.747  1.00  0.00     0.084 C 
HETATM    9  C   UNL     1     -42.423  58.052 -58.218  1.00  0.00     0.034 A 
HETATM   10  C   UNL     1     -42.692  56.984 -59.044  1.00  0.00     0.033 A 
HETATM   11  N   UNL     1     -42.049  59.093 -59.042  1.00  0.00    -0.354 N 
HETATM   12  N   UNL     1     -42.478  57.430 -60.331  1.00  0.00    -0.354 N 
HETATM   13  C   UNL     1     -43.148  55.652 -58.603  1.00  0.00     0.061 C 
HETATM   14  H   UNL     1     -42.592  56.871 -61.174  1.00  0.00     0.166 HD
HETATM   15  C   UNL     1     -42.079  58.707 -60.322  1.00  0.00     0.180 A 
HETATM   16  C   UNL     1     -42.892  55.497 -57.088  1.00  0.00     0.031 C 
HETATM   17  H   UNL     1     -41.769  60.020 -58.727  1.00  0.00     0.166 HD
ENDBRANCH   3   7
BRANCH   1  18
HETATM   18  C   UNL     1     -42.994  55.866 -51.968  1.00  0.00     0.077 A 
HETATM   19  C   UNL     1     -41.913  56.431 -51.285  1.00  0.00     0.152 A 
HETATM   20  N   UNL     1     -40.922  55.723 -50.694  1.00  0.00    -0.247 NA
HETATM   21 CL   UNL     1     -41.769  58.114 -50.937  1.00  0.00    -0.060 Cl
HETATM   22  C   UNL     1     -41.021  54.380 -50.737  1.00  0.00     0.118 A 
HETATM   23  C   UNL     1     -42.079  53.714 -51.327  1.00  0.00     0.022 A 
HETATM   24  C   UNL     1     -43.079  54.468 -51.937  1.00  0.00     0.034 A 
ENDBRANCH   1  18
TORSDOF 2
ENDMDL
