MODEL 1
REMARK VINA RESULT:      -9.9      0.000      0.000
REMARK  6 active torsions:
REMARK  status: ('A' for Active; 'I' for Inactive)
REMARK    1  A    between atoms: N_4  and  C_5 
REMARK    2  A    between atoms: C_13  and  C_14 
REMARK    3  A    between atoms: C_18  and  C_19 
REMARK       I    between atoms: C_19  and  N_20 
REMARK    4  A    between atoms: N_20  and  N_21 
REMARK    5  A    between atoms: C_22  and  C_23 
REMARK    6  A    between atoms: C_24  and  O_25 
ROOT
HETATM    1  C   UNL     1     -45.083  61.577 -48.587  1.00  0.00     0.093 A 
HETATM    2  N   UNL     1     -46.242  61.257 -49.170  1.00  0.00    -0.173 NA
HETATM    3  N   UNL     1     -45.883  60.463 -50.190  1.00  0.00    -0.272 N 
HETATM    4  H   UNL     1     -46.602  60.081 -50.798  1.00  0.00     0.189 HD
HETATM    5  C   UNL     1     -44.531  60.268 -50.299  1.00  0.00     0.121 A 
HETATM    6  C   UNL     1     -43.983  60.989 -49.254  1.00  0.00     0.071 A 
ENDROOT
BRANCH   5   7
HETATM    7  C   UNL     1     -43.984  59.463 -51.361  1.00  0.00     0.289 C 
HETATM    8  N   UNL     1     -43.775  58.129 -51.041  1.00  0.00    -0.242 N 
HETATM    9  H   UNL     1     -44.003  57.777 -50.121  1.00  0.00     0.192 HD
HETATM   10  O   UNL     1     -43.727  59.947 -52.461  1.00  0.00    -0.264 OA
BRANCH   8  11
HETATM   11  N   UNL     1     -43.216  57.295 -51.963  1.00  0.00    -0.183 NA
HETATM   12  C   UNL     1     -43.497  56.035 -51.844  1.00  0.00     0.153 C 
BRANCH  12  13
HETATM   13  C   UNL     1     -42.918  55.028 -52.770  1.00  0.00     0.027 A 
HETATM   14  C   UNL     1     -43.435  54.921 -54.075  1.00  0.00     0.078 A 
HETATM   15  C   UNL     1     -42.887  54.027 -54.985  1.00  0.00     0.038 A 
HETATM   16  C   UNL     1     -41.818  53.223 -54.604  1.00  0.00     0.015 A 
HETATM   17  C   UNL     1     -41.287  53.292 -53.309  1.00  0.00    -0.025 A 
HETATM   18  C   UNL     1     -41.830  54.198 -52.357  1.00  0.00    -0.012 A 
HETATM   19  C   UNL     1     -40.213  52.456 -52.964  1.00  0.00     0.012 A 
HETATM   20  C   UNL     1     -41.245  54.190 -51.062  1.00  0.00     0.013 A 
HETATM   21  C   UNL     1     -40.179  53.347 -50.735  1.00  0.00     0.001 A 
HETATM   22  C   UNL     1     -39.660  52.483 -51.687  1.00  0.00     0.001 A 
BRANCH  14  23
HETATM   23  O   UNL     1     -44.479  55.668 -54.551  1.00  0.00    -0.360 OA
HETATM   24  H   UNL     1     -44.254  56.622 -54.461  1.00  0.00     0.217 HD
ENDBRANCH  14  23
ENDBRANCH  12  13
ENDBRANCH   8  11
ENDBRANCH   5   7
BRANCH   1  25
HETATM   25  C   UNL     1     -45.001  62.466 -47.429  1.00  0.00     0.045 C 
HETATM   26  C   UNL     1     -44.818  63.863 -47.446  1.00  0.00     0.066 C 
HETATM   27  C   UNL     1     -44.622  64.782 -48.595  1.00  0.00     0.073 C 
HETATM   28  N   UNL     1     -44.850  64.370 -46.211  1.00  0.00    -0.171 NA
HETATM   29  N   UNL     1     -44.890  63.294 -45.376  1.00  0.00    -0.237 N 
HETATM   30  C   UNL     1     -45.113  62.122 -46.091  1.00  0.00     0.047 C 
HETATM   31  C   UNL     1     -45.464  60.801 -45.504  1.00  0.00     0.071 C 
BRANCH  29  32
HETATM   32  C   UNL     1     -44.714  63.509 -43.973  1.00  0.00     0.058 A 
HETATM   33  C   UNL     1     -45.626  64.335 -43.292  1.00  0.00     0.031 A 
HETATM   34  C   UNL     1     -45.488  64.574 -41.923  1.00  0.00     0.002 A 
HETATM   35  C   UNL     1     -44.431  64.005 -41.220  1.00  0.00     0.000 A 
HETATM   36  C   UNL     1     -43.504  63.208 -41.889  1.00  0.00     0.002 A 
HETATM   37  C   UNL     1     -43.640  62.963 -43.260  1.00  0.00     0.031 A 
ENDBRANCH  29  32
ENDBRANCH   1  25
TORSDOF 6
ENDMDL
MODEL 2
REMARK VINA RESULT:      -9.6      8.687     11.891
REMARK  6 active torsions:
REMARK  status: ('A' for Active; 'I' for Inactive)
REMARK    1  A    between atoms: N_4  and  C_5 
REMARK    2  A    between atoms: C_13  and  C_14 
REMARK    3  A    between atoms: C_18  and  C_19 
REMARK       I    between atoms: C_19  and  N_20 
REMARK    4  A    between atoms: N_20  and  N_21 
REMARK    5  A    between atoms: C_22  and  C_23 
REMARK    6  A    between atoms: C_24  and  O_25 
ROOT
HETATM    1  C   UNL     1     -44.149  57.818 -59.076  1.00  0.00     0.093 A 
HETATM    2  N   UNL     1     -43.053  57.227 -59.561  1.00  0.00    -0.173 NA
HETATM    3  N   UNL     1     -42.407  56.798 -58.467  1.00  0.00    -0.272 N 
HETATM    4  H   UNL     1     -41.524  56.305 -58.573  1.00  0.00     0.189 HD
HETATM    5  C   UNL     1     -43.036  57.105 -57.288  1.00  0.00     0.121 A 
HETATM    6  C   UNL     1     -44.186  57.773 -57.663  1.00  0.00     0.071 A 
ENDROOT
BRANCH   5   7
HETATM    7  C   UNL     1     -42.452  56.738 -56.023  1.00  0.00     0.289 C 
HETATM    8  N   UNL     1     -41.530  55.702 -56.078  1.00  0.00    -0.242 N 
HETATM    9  H   UNL     1     -41.302  55.260 -56.958  1.00  0.00     0.192 HD
HETATM   10  O   UNL     1     -42.769  57.312 -54.984  1.00  0.00    -0.264 OA
BRANCH   8  11
HETATM   11  N   UNL     1     -40.958  55.249 -54.927  1.00  0.00    -0.183 NA
HETATM   12  C   UNL     1     -41.318  54.067 -54.533  1.00  0.00     0.153 C 
BRANCH  12  13
HETATM   13  C   UNL     1     -40.787  53.481 -53.275  1.00  0.00     0.027 A 
HETATM   14  C   UNL     1     -40.750  54.275 -52.113  1.00  0.00     0.078 A 
HETATM   15  C   UNL     1     -40.307  53.748 -50.908  1.00  0.00     0.038 A 
HETATM   16  C   UNL     1     -39.890  52.422 -50.845  1.00  0.00     0.015 A 
HETATM   17  C   UNL     1     -39.901  51.607 -51.985  1.00  0.00    -0.025 A 
HETATM   18  C   UNL     1     -40.348  52.121 -53.233  1.00  0.00    -0.012 A 
HETATM   19  C   UNL     1     -39.464  50.276 -51.879  1.00  0.00     0.012 A 
HETATM   20  C   UNL     1     -40.309  51.233 -54.340  1.00  0.00     0.013 A 
HETATM   21  C   UNL     1     -39.866  49.912 -54.218  1.00  0.00     0.001 A 
HETATM   22  C   UNL     1     -39.448  49.433 -52.986  1.00  0.00     0.001 A 
BRANCH  14  23
HETATM   23  O   UNL     1     -41.141  55.586 -52.066  1.00  0.00    -0.360 OA
HETATM   24  H   UNL     1     -41.171  55.875 -51.126  1.00  0.00     0.217 HD
ENDBRANCH  14  23
ENDBRANCH  12  13
ENDBRANCH   8  11
ENDBRANCH   5   7
BRANCH   1  25
HETATM   25  C   UNL     1     -45.142  58.462 -59.935  1.00  0.00     0.045 C 
HETATM   26  C   UNL     1     -45.011  59.695 -60.605  1.00  0.00     0.066 C 
HETATM   27  C   UNL     1     -43.889  60.667 -60.595  1.00  0.00     0.073 C 
HETATM   28  N   UNL     1     -46.086  59.957 -61.352  1.00  0.00    -0.171 NA
HETATM   29  N   UNL     1     -46.988  58.982 -61.047  1.00  0.00    -0.237 N 
HETATM   30  C   UNL     1     -46.396  57.983 -60.282  1.00  0.00     0.047 C 
HETATM   31  C   UNL     1     -46.992  56.655 -59.978  1.00  0.00     0.071 C 
BRANCH  29  32
HETATM   32  C   UNL     1     -48.328  59.114 -61.529  1.00  0.00     0.058 A 
HETATM   33  C   UNL     1     -49.168  60.080 -60.946  1.00  0.00     0.031 A 
HETATM   34  C   UNL     1     -50.484  60.239 -61.385  1.00  0.00     0.002 A 
HETATM   35  C   UNL     1     -50.983  59.429 -62.401  1.00  0.00     0.000 A 
HETATM   36  C   UNL     1     -50.169  58.450 -62.967  1.00  0.00     0.002 A 
HETATM   37  C   UNL     1     -48.849  58.288 -62.533  1.00  0.00     0.031 A 
ENDBRANCH  29  32
ENDBRANCH   1  25
TORSDOF 6
ENDMDL
MODEL 3
REMARK VINA RESULT:      -9.1      2.390     11.729
REMARK  6 active torsions:
REMARK  status: ('A' for Active; 'I' for Inactive)
REMARK    1  A    between atoms: N_4  and  C_5 
REMARK    2  A    between atoms: C_13  and  C_14 
REMARK    3  A    between atoms: C_18  and  C_19 
REMARK       I    between atoms: C_19  and  N_20 
REMARK    4  A    between atoms: N_20  and  N_21 
REMARK    5  A    between atoms: C_22  and  C_23 
REMARK    6  A    between atoms: C_24  and  O_25 
ROOT
HETATM    1  C   UNL     1     -42.206  56.548 -51.936  1.00  0.00     0.093 A 
HETATM    2  N   UNL     1     -41.540  57.618 -51.493  1.00  0.00    -0.173 NA
HETATM    3  N   UNL     1     -42.501  58.421 -51.013  1.00  0.00    -0.272 N 
HETATM    4  H   UNL     1     -42.243  59.319 -50.612  1.00  0.00     0.189 HD
HETATM    5  C   UNL     1     -43.769  57.918 -51.143  1.00  0.00     0.121 A 
HETATM    6  C   UNL     1     -43.601  56.684 -51.745  1.00  0.00     0.071 A 
ENDROOT
BRANCH   5   7
HETATM    7  C   UNL     1     -44.912  58.675 -50.702  1.00  0.00     0.289 C 
HETATM    8  N   UNL     1     -44.618  59.893 -50.106  1.00  0.00    -0.242 N 
HETATM    9  H   UNL     1     -43.660  60.201 -50.006  1.00  0.00     0.192 HD
HETATM   10  O   UNL     1     -46.055  58.249 -50.851  1.00  0.00    -0.264 OA
BRANCH   8  11
HETATM   11  N   UNL     1     -45.628  60.662 -49.611  1.00  0.00    -0.183 NA
HETATM   12  C   UNL     1     -45.293  61.830 -49.158  1.00  0.00     0.153 C 
BRANCH  12  13
HETATM   13  C   UNL     1     -46.304  62.742 -48.563  1.00  0.00     0.027 A 
HETATM   14  C   UNL     1     -47.368  63.201 -49.363  1.00  0.00     0.078 A 
HETATM   15  C   UNL     1     -48.358  64.013 -48.830  1.00  0.00     0.038 A 
HETATM   16  C   UNL     1     -48.300  64.385 -47.491  1.00  0.00     0.015 A 
HETATM   17  C   UNL     1     -47.248  63.959 -46.668  1.00  0.00    -0.025 A 
HETATM   18  C   UNL     1     -46.219  63.127 -47.189  1.00  0.00    -0.012 A 
HETATM   19  C   UNL     1     -47.223  64.365 -45.324  1.00  0.00     0.012 A 
HETATM   20  C   UNL     1     -45.182  62.757 -46.292  1.00  0.00     0.013 A 
HETATM   21  C   UNL     1     -45.170  63.174 -44.958  1.00  0.00     0.001 A 
HETATM   22  C   UNL     1     -46.193  63.975 -44.473  1.00  0.00     0.001 A 
BRANCH  14  23
HETATM   23  O   UNL     1     -47.521  62.890 -50.688  1.00  0.00    -0.360 OA
HETATM   24  H   UNL     1     -47.349  61.928 -50.811  1.00  0.00     0.217 HD
ENDBRANCH  14  23
ENDBRANCH  12  13
ENDBRANCH   8  11
ENDBRANCH   5   7
BRANCH   1  25
HETATM   25  C   UNL     1     -41.541  55.413 -52.575  1.00  0.00     0.045 C 
HETATM   26  C   UNL     1     -41.194  55.291 -53.936  1.00  0.00     0.066 C 
HETATM   27  C   UNL     1     -41.436  56.224 -55.065  1.00  0.00     0.073 C 
HETATM   28  N   UNL     1     -40.544  54.150 -54.169  1.00  0.00    -0.171 NA
HETATM   29  N   UNL     1     -40.605  53.449 -53.001  1.00  0.00    -0.237 N 
HETATM   30  C   UNL     1     -41.095  54.247 -51.973  1.00  0.00     0.047 C 
HETATM   31  C   UNL     1     -41.067  53.909 -50.524  1.00  0.00     0.071 C 
BRANCH  29  32
HETATM   32  C   UNL     1     -40.181  52.084 -52.999  1.00  0.00     0.058 A 
HETATM   33  C   UNL     1     -40.246  51.349 -54.197  1.00  0.00     0.031 A 
HETATM   34  C   UNL     1     -39.844  50.012 -54.237  1.00  0.00     0.002 A 
HETATM   35  C   UNL     1     -39.387  49.388 -53.081  1.00  0.00     0.000 A 
HETATM   36  C   UNL     1     -39.343  50.096 -51.882  1.00  0.00     0.002 A 
HETATM   37  C   UNL     1     -39.742  51.437 -51.837  1.00  0.00     0.031 A 
ENDBRANCH  29  32
ENDBRANCH   1  25
TORSDOF 6
ENDMDL
MODEL 4
REMARK VINA RESULT:      -9.0      8.263     10.930
REMARK  6 active torsions:
REMARK  status: ('A' for Active; 'I' for Inactive)
REMARK    1  A    between atoms: N_4  and  C_5 
REMARK    2  A    between atoms: C_13  and  C_14 
REMARK    3  A    between atoms: C_18  and  C_19 
REMARK       I    between atoms: C_19  and  N_20 
REMARK    4  A    between atoms: N_20  and  N_21 
REMARK    5  A    between atoms: C_22  and  C_23 
REMARK    6  A    between atoms: C_24  and  O_25 
ROOT
HETATM    1  C   UNL     1     -43.118  58.631 -57.636  1.00  0.00     0.093 A 
HETATM    2  N   UNL     1     -44.438  58.514 -57.468  1.00  0.00    -0.173 NA
HETATM    3  N   UNL     1     -44.558  57.682 -56.422  1.00  0.00    -0.272 N 
HETATM    4  H   UNL     1     -45.485  57.430 -56.092  1.00  0.00     0.189 HD
HETATM    5  C   UNL     1     -43.362  57.243 -55.916  1.00  0.00     0.121 A 
HETATM    6  C   UNL     1     -42.399  57.856 -56.696  1.00  0.00     0.071 A 
ENDROOT
BRANCH   5   7
HETATM    7  C   UNL     1     -43.323  56.321 -54.810  1.00  0.00     0.289 C 
HETATM    8  N   UNL     1     -42.084  55.746 -54.565  1.00  0.00    -0.242 N 
HETATM    9  H   UNL     1     -41.284  55.981 -55.137  1.00  0.00     0.192 HD
HETATM   10  O   UNL     1     -44.330  56.074 -54.150  1.00  0.00    -0.264 OA
BRANCH   8  11
HETATM   11  N   UNL     1     -41.954  54.823 -53.571  1.00  0.00    -0.183 NA
HETATM   12  C   UNL     1     -40.750  54.411 -53.322  1.00  0.00     0.153 C 
BRANCH  12  13
HETATM   13  C   UNL     1     -40.490  53.381 -52.284  1.00  0.00     0.027 A 
HETATM   14  C   UNL     1     -40.622  53.729 -50.926  1.00  0.00     0.078 A 
HETATM   15  C   UNL     1     -40.436  52.782 -49.929  1.00  0.00     0.038 A 
HETATM   16  C   UNL     1     -40.111  51.473 -50.271  1.00  0.00     0.015 A 
HETATM   17  C   UNL     1     -39.959  51.094 -51.612  1.00  0.00    -0.025 A 
HETATM   18  C   UNL     1     -40.142  52.045 -52.653  1.00  0.00    -0.012 A 
HETATM   19  C   UNL     1     -39.622  49.764 -51.913  1.00  0.00     0.012 A 
HETATM   20  C   UNL     1     -39.950  51.580 -53.982  1.00  0.00     0.013 A 
HETATM   21  C   UNL     1     -39.610  50.254 -54.264  1.00  0.00     0.001 A 
HETATM   22  C   UNL     1     -39.451  49.344 -53.229  1.00  0.00     0.001 A 
BRANCH  14  23
HETATM   23  O   UNL     1     -40.942  54.985 -50.483  1.00  0.00    -0.360 OA
HETATM   24  H   UNL     1     -40.346  55.636 -50.918  1.00  0.00     0.217 HD
ENDBRANCH  14  23
ENDBRANCH  12  13
ENDBRANCH   8  11
ENDBRANCH   5   7
BRANCH   1  25
HETATM   25  C   UNL     1     -42.527  59.438 -58.704  1.00  0.00     0.045 C 
HETATM   26  C   UNL     1     -42.319  59.050 -60.043  1.00  0.00     0.066 C 
HETATM   27  C   UNL     1     -42.590  57.751 -60.708  1.00  0.00     0.073 C 
HETATM   28  N   UNL     1     -41.813  60.052 -60.764  1.00  0.00    -0.171 NA
HETATM   29  N   UNL     1     -41.538  61.043 -59.869  1.00  0.00    -0.237 N 
HETATM   30  C   UNL     1     -42.080  60.748 -58.623  1.00  0.00     0.047 C 
HETATM   31  C   UNL     1     -42.198  61.694 -57.482  1.00  0.00     0.071 C 
BRANCH  29  32
HETATM   32  C   UNL     1     -40.782  62.174 -60.311  1.00  0.00     0.058 A 
HETATM   33  C   UNL     1     -41.014  62.684 -61.602  1.00  0.00     0.031 A 
HETATM   34  C   UNL     1     -40.295  63.785 -62.073  1.00  0.00     0.002 A 
HETATM   35  C   UNL     1     -39.328  64.381 -61.271  1.00  0.00     0.000 A 
HETATM   36  C   UNL     1     -39.070  63.868 -60.001  1.00  0.00     0.002 A 
HETATM   37  C   UNL     1     -39.789  62.767 -59.523  1.00  0.00     0.031 A 
ENDBRANCH  29  32
ENDBRANCH   1  25
TORSDOF 6
ENDMDL
MODEL 5
REMARK VINA RESULT:      -8.9     20.626     23.985
REMARK  6 active torsions:
REMARK  status: ('A' for Active; 'I' for Inactive)
REMARK    1  A    between atoms: N_4  and  C_5 
REMARK    2  A    between atoms: C_13  and  C_14 
REMARK    3  A    between atoms: C_18  and  C_19 
REMARK       I    between atoms: C_19  and  N_20 
REMARK    4  A    between atoms: N_20  and  N_21 
REMARK    5  A    between atoms: C_22  and  C_23 
REMARK    6  A    between atoms: C_24  and  O_25 
ROOT
HETATM    1  C   UNL     1     -34.822  40.917 -52.699  1.00  0.00     0.093 A 
HETATM    2  N   UNL     1     -34.724  41.841 -51.739  1.00  0.00    -0.173 NA
HETATM    3  N   UNL     1     -33.768  41.364 -50.928  1.00  0.00    -0.272 N 
HETATM    4  H   UNL     1     -33.505  41.897 -50.104  1.00  0.00     0.189 HD
HETATM    5  C   UNL     1     -33.254  40.155 -51.318  1.00  0.00     0.121 A 
HETATM    6  C   UNL     1     -33.930  39.841 -52.483  1.00  0.00     0.071 A 
ENDROOT
BRANCH   5   7
HETATM    7  C   UNL     1     -32.240  39.496 -50.535  1.00  0.00     0.289 C 
HETATM    8  N   UNL     1     -31.918  40.125 -49.340  1.00  0.00    -0.242 N 
HETATM    9  H   UNL     1     -32.382  40.980 -49.065  1.00  0.00     0.192 HD
HETATM   10  O   UNL     1     -31.711  38.457 -50.921  1.00  0.00    -0.264 OA
BRANCH   8  11
HETATM   11  N   UNL     1     -30.936  39.607 -48.550  1.00  0.00    -0.183 NA
HETATM   12  C   UNL     1     -31.016  39.872 -47.283  1.00  0.00     0.153 C 
BRANCH  12  13
HETATM   13  C   UNL     1     -29.984  39.390 -46.330  1.00  0.00     0.027 A 
HETATM   14  C   UNL     1     -28.624  39.506 -46.677  1.00  0.00     0.078 A 
HETATM   15  C   UNL     1     -27.630  39.113 -45.793  1.00  0.00     0.038 A 
HETATM   16  C   UNL     1     -27.977  38.592 -44.550  1.00  0.00     0.015 A 
HETATM   17  C   UNL     1     -29.320  38.449 -44.177  1.00  0.00    -0.025 A 
HETATM   18  C   UNL     1     -30.359  38.842 -45.064  1.00  0.00    -0.012 A 
HETATM   19  C   UNL     1     -29.626  37.911 -42.917  1.00  0.00     0.012 A 
HETATM   20  C   UNL     1     -31.692  38.645 -44.614  1.00  0.00     0.013 A 
HETATM   21  C   UNL     1     -31.978  38.104 -43.357  1.00  0.00     0.001 A 
HETATM   22  C   UNL     1     -30.945  37.740 -42.507  1.00  0.00     0.001 A 
BRANCH  14  23
HETATM   23  O   UNL     1     -28.177  40.009 -47.870  1.00  0.00    -0.360 OA
HETATM   24  H   UNL     1     -28.654  39.557 -48.604  1.00  0.00     0.217 HD
ENDBRANCH  14  23
ENDBRANCH  12  13
ENDBRANCH   8  11
ENDBRANCH   5   7
BRANCH   1  25
HETATM   25  C   UNL     1     -35.781  41.021 -53.798  1.00  0.00     0.045 C 
HETATM   26  C   UNL     1     -37.186  41.052 -53.697  1.00  0.00     0.066 C 
HETATM   27  C   UNL     1     -38.054  40.949 -52.497  1.00  0.00     0.073 C 
HETATM   28  N   UNL     1     -37.755  41.213 -54.893  1.00  0.00    -0.171 NA
HETATM   29  N   UNL     1     -36.737  41.125 -55.796  1.00  0.00    -0.237 N 
HETATM   30  C   UNL     1     -35.505  41.136 -55.152  1.00  0.00     0.047 C 
HETATM   31  C   UNL     1     -34.182  41.306 -55.812  1.00  0.00     0.071 C 
BRANCH  29  32
HETATM   32  C   UNL     1     -37.060  41.043 -57.186  1.00  0.00     0.058 A 
HETATM   33  C   UNL     1     -37.575  39.836 -57.695  1.00  0.00     0.031 A 
HETATM   34  C   UNL     1     -37.901  39.713 -59.047  1.00  0.00     0.002 A 
HETATM   35  C   UNL     1     -37.703  40.785 -59.911  1.00  0.00     0.000 A 
HETATM   36  C   UNL     1     -37.168  41.977 -59.426  1.00  0.00     0.002 A 
HETATM   37  C   UNL     1     -36.843  42.106 -58.071  1.00  0.00     0.031 A 
ENDBRANCH  29  32
ENDBRANCH   1  25
TORSDOF 6
ENDMDL
MODEL 6
REMARK VINA RESULT:      -8.6      8.680     11.972
REMARK  6 active torsions:
REMARK  status: ('A' for Active; 'I' for Inactive)
REMARK    1  A    between atoms: N_4  and  C_5 
REMARK    2  A    between atoms: C_13  and  C_14 
REMARK    3  A    between atoms: C_18  and  C_19 
REMARK       I    between atoms: C_19  and  N_20 
REMARK    4  A    between atoms: N_20  and  N_21 
REMARK    5  A    between atoms: C_22  and  C_23 
REMARK    6  A    between atoms: C_24  and  O_25 
ROOT
HETATM    1  C   UNL     1     -44.376  57.463 -59.148  1.00  0.00     0.093 A 
HETATM    2  N   UNL     1     -43.341  56.813 -59.688  1.00  0.00    -0.173 NA
HETATM    3  N   UNL     1     -42.700  56.292 -58.631  1.00  0.00    -0.272 N 
HETATM    4  H   UNL     1     -41.860  55.740 -58.782  1.00  0.00     0.189 HD
HETATM    5  C   UNL     1     -43.273  56.595 -57.423  1.00  0.00     0.121 A 
HETATM    6  C   UNL     1     -44.379  57.362 -57.738  1.00  0.00     0.071 A 
ENDROOT
BRANCH   5   7
HETATM    7  C   UNL     1     -42.685  56.133 -56.191  1.00  0.00     0.289 C 
HETATM    8  N   UNL     1     -43.192  54.934 -55.709  1.00  0.00    -0.242 N 
HETATM    9  H   UNL     1     -43.919  54.442 -56.212  1.00  0.00     0.192 HD
HETATM   10  O   UNL     1     -41.804  56.775 -55.625  1.00  0.00    -0.264 OA
BRANCH   8  11
HETATM   11  N   UNL     1     -42.737  54.439 -54.525  1.00  0.00    -0.183 NA
HETATM   12  C   UNL     1     -41.492  54.075 -54.494  1.00  0.00     0.153 C 
BRANCH  12  13
HETATM   13  C   UNL     1     -40.893  53.488 -53.267  1.00  0.00     0.027 A 
HETATM   14  C   UNL     1     -40.836  54.265 -52.094  1.00  0.00     0.078 A 
HETATM   15  C   UNL     1     -40.330  53.735 -50.916  1.00  0.00     0.038 A 
HETATM   16  C   UNL     1     -39.868  52.424 -50.891  1.00  0.00     0.015 A 
HETATM   17  C   UNL     1     -39.897  51.626 -52.043  1.00  0.00    -0.025 A 
HETATM   18  C   UNL     1     -40.409  52.144 -53.264  1.00  0.00    -0.012 A 
HETATM   19  C   UNL     1     -39.413  50.309 -51.976  1.00  0.00     0.012 A 
HETATM   20  C   UNL     1     -40.383  51.274 -54.387  1.00  0.00     0.013 A 
HETATM   21  C   UNL     1     -39.893  49.967 -54.303  1.00  0.00     0.001 A 
HETATM   22  C   UNL     1     -39.412  49.483 -53.096  1.00  0.00     0.001 A 
BRANCH  14  23
HETATM   23  O   UNL     1     -41.268  55.562 -52.011  1.00  0.00    -0.360 OA
HETATM   24  H   UNL     1     -42.251  55.567 -51.957  1.00  0.00     0.217 HD
ENDBRANCH  14  23
ENDBRANCH  12  13
ENDBRANCH   8  11
ENDBRANCH   5   7
BRANCH   1  25
HETATM   25  C   UNL     1     -45.340  58.214 -59.951  1.00  0.00     0.045 C 
HETATM   26  C   UNL     1     -46.562  57.740 -60.470  1.00  0.00     0.066 C 
HETATM   27  C   UNL     1     -47.168  56.387 -60.388  1.00  0.00     0.073 C 
HETATM   28  N   UNL     1     -47.226  58.708 -61.106  1.00  0.00    -0.171 NA
HETATM   29  N   UNL     1     -46.372  59.770 -61.146  1.00  0.00    -0.237 N 
HETATM   30  C   UNL     1     -45.263  59.543 -60.338  1.00  0.00     0.047 C 
HETATM   31  C   UNL     1     -44.257  60.563 -59.939  1.00  0.00     0.071 C 
BRANCH  29  32
HETATM   32  C   UNL     1     -46.718  60.895 -61.958  1.00  0.00     0.058 A 
HETATM   33  C   UNL     1     -46.201  60.976 -63.263  1.00  0.00     0.031 A 
HETATM   34  C   UNL     1     -46.511  62.060 -64.087  1.00  0.00     0.002 A 
HETATM   35  C   UNL     1     -47.328  63.083 -63.615  1.00  0.00     0.000 A 
HETATM   36  C   UNL     1     -47.824  63.028 -62.315  1.00  0.00     0.002 A 
HETATM   37  C   UNL     1     -47.518  61.943 -61.486  1.00  0.00     0.031 A 
ENDBRANCH  29  32
ENDBRANCH   1  25
TORSDOF 6
ENDMDL
MODEL 7
REMARK VINA RESULT:      -8.6      6.938     11.793
REMARK  6 active torsions:
REMARK  status: ('A' for Active; 'I' for Inactive)
REMARK    1  A    between atoms: N_4  and  C_5 
REMARK    2  A    between atoms: C_13  and  C_14 
REMARK    3  A    between atoms: C_18  and  C_19 
REMARK       I    between atoms: C_19  and  N_20 
REMARK    4  A    between atoms: N_20  and  N_21 
REMARK    5  A    between atoms: C_22  and  C_23 
REMARK    6  A    between atoms: C_24  and  O_25 
ROOT
HETATM    1  C   UNL     1     -41.362  57.124 -53.432  1.00  0.00     0.093 A 
HETATM    2  N   UNL     1     -40.689  58.089 -52.800  1.00  0.00    -0.173 NA
HETATM    3  N   UNL     1     -40.959  59.192 -53.514  1.00  0.00    -0.272 N 
HETATM    4  H   UNL     1     -40.554  60.080 -53.230  1.00  0.00     0.189 HD
HETATM    5  C   UNL     1     -41.771  58.973 -54.597  1.00  0.00     0.121 A 
HETATM    6  C   UNL     1     -42.052  57.620 -54.562  1.00  0.00     0.071 A 
ENDROOT
BRANCH   5   7
HETATM    7  C   UNL     1     -42.130  60.053 -55.481  1.00  0.00     0.289 C 
HETATM    8  N   UNL     1     -42.015  59.769 -56.834  1.00  0.00    -0.242 N 
HETATM    9  H   UNL     1     -41.702  58.860 -57.146  1.00  0.00     0.192 HD
HETATM   10  O   UNL     1     -42.503  61.138 -55.042  1.00  0.00    -0.264 OA
BRANCH   8  11
HETATM   11  N   UNL     1     -42.283  60.741 -57.751  1.00  0.00    -0.183 NA
HETATM   12  C   UNL     1     -41.597  60.700 -58.851  1.00  0.00     0.153 C 
BRANCH  12  13
HETATM   13  C   UNL     1     -41.779  61.727 -59.909  1.00  0.00     0.027 A 
HETATM   14  C   UNL     1     -42.964  61.725 -60.669  1.00  0.00     0.078 A 
HETATM   15  C   UNL     1     -43.192  62.698 -61.631  1.00  0.00     0.038 A 
HETATM   16  C   UNL     1     -42.239  63.686 -61.854  1.00  0.00     0.015 A 
HETATM   17  C   UNL     1     -41.042  63.711 -61.126  1.00  0.00    -0.025 A 
HETATM   18  C   UNL     1     -40.781  62.726 -60.135  1.00  0.00    -0.012 A 
HETATM   19  C   UNL     1     -40.102  64.722 -61.388  1.00  0.00     0.012 A 
HETATM   20  C   UNL     1     -39.536  62.815 -59.457  1.00  0.00     0.013 A 
HETATM   21  C   UNL     1     -38.610  63.825 -59.735  1.00  0.00     0.001 A 
HETATM   22  C   UNL     1     -38.895  64.781 -60.698  1.00  0.00     0.001 A 
BRANCH  14  23
HETATM   23  O   UNL     1     -43.966  60.801 -60.525  1.00  0.00    -0.360 OA
HETATM   24  H   UNL     1     -43.577  59.899 -60.586  1.00  0.00     0.217 HD
ENDBRANCH  14  23
ENDBRANCH  12  13
ENDBRANCH   8  11
ENDBRANCH   5   7
BRANCH   1  25
HETATM   25  C   UNL     1     -41.327  55.726 -53.001  1.00  0.00     0.045 C 
HETATM   26  C   UNL     1     -41.887  55.188 -51.825  1.00  0.00     0.066 C 
HETATM   27  C   UNL     1     -42.603  55.867 -50.717  1.00  0.00     0.073 C 
HETATM   28  N   UNL     1     -41.723  53.864 -51.773  1.00  0.00    -0.171 NA
HETATM   29  N   UNL     1     -40.917  53.555 -52.828  1.00  0.00    -0.237 N 
HETATM   30  C   UNL     1     -40.763  54.651 -53.670  1.00  0.00     0.047 C 
HETATM   31  C   UNL     1     -40.170  54.621 -55.034  1.00  0.00     0.071 C 
BRANCH  29  32
HETATM   32  C   UNL     1     -40.383  52.231 -52.916  1.00  0.00     0.058 A 
HETATM   33  C   UNL     1     -40.504  51.528 -54.128  1.00  0.00     0.031 A 
HETATM   34  C   UNL     1     -39.998  50.233 -54.255  1.00  0.00     0.002 A 
HETATM   35  C   UNL     1     -39.380  49.617 -53.171  1.00  0.00     0.000 A 
HETATM   36  C   UNL     1     -39.279  50.292 -51.957  1.00  0.00     0.002 A 
HETATM   37  C   UNL     1     -39.782  51.591 -51.825  1.00  0.00     0.031 A 
ENDBRANCH  29  32
ENDBRANCH   1  25
TORSDOF 6
ENDMDL
MODEL 8
REMARK VINA RESULT:      -8.4      4.200      6.441
REMARK  6 active torsions:
REMARK  status: ('A' for Active; 'I' for Inactive)
REMARK    1  A    between atoms: N_4  and  C_5 
REMARK    2  A    between atoms: C_13  and  C_14 
REMARK    3  A    between atoms: C_18  and  C_19 
REMARK       I    between atoms: C_19  and  N_20 
REMARK    4  A    between atoms: N_20  and  N_21 
REMARK    5  A    between atoms: C_22  and  C_23 
REMARK    6  A    between atoms: C_24  and  O_25 
ROOT
HETATM    1  C   UNL     1     -45.658  62.619 -50.677  1.00  0.00     0.093 A 
HETATM    2  N   UNL     1     -44.659  63.425 -50.307  1.00  0.00    -0.173 NA
HETATM    3  N   UNL     1     -43.583  62.623 -50.299  1.00  0.00    -0.272 N 
HETATM    4  H   UNL     1     -42.679  63.009 -50.043  1.00  0.00     0.189 HD
HETATM    5  C   UNL     1     -43.852  61.322 -50.635  1.00  0.00     0.121 A 
HETATM    6  C   UNL     1     -45.211  61.295 -50.892  1.00  0.00     0.071 A 
ENDROOT
BRANCH   5   7
HETATM    7  C   UNL     1     -42.806  60.331 -50.643  1.00  0.00     0.289 C 
HETATM    8  N   UNL     1     -43.192  59.072 -51.082  1.00  0.00    -0.242 N 
HETATM    9  H   UNL     1     -44.144  58.895 -51.372  1.00  0.00     0.192 HD
HETATM   10  O   UNL     1     -41.666  60.605 -50.279  1.00  0.00    -0.264 OA
BRANCH   8  11
HETATM   11  N   UNL     1     -42.287  58.052 -51.081  1.00  0.00    -0.183 NA
HETATM   12  C   UNL     1     -42.770  56.855 -51.199  1.00  0.00     0.153 C 
BRANCH  12  13
HETATM   13  C   UNL     1     -41.883  55.663 -51.176  1.00  0.00     0.027 A 
HETATM   14  C   UNL     1     -41.193  55.345 -49.991  1.00  0.00     0.078 A 
HETATM   15  C   UNL     1     -40.395  54.213 -49.916  1.00  0.00     0.038 A 
HETATM   16  C   UNL     1     -40.269  53.382 -51.024  1.00  0.00     0.015 A 
HETATM   17  C   UNL     1     -40.930  53.675 -52.225  1.00  0.00    -0.025 A 
HETATM   18  C   UNL     1     -41.753  54.829 -52.330  1.00  0.00    -0.012 A 
HETATM   19  C   UNL     1     -40.769  52.813 -53.322  1.00  0.00     0.012 A 
HETATM   20  C   UNL     1     -42.371  55.060 -53.588  1.00  0.00     0.013 A 
HETATM   21  C   UNL     1     -42.196  54.194 -54.671  1.00  0.00     0.001 A 
HETATM   22  C   UNL     1     -41.398  53.068 -54.537  1.00  0.00     0.001 A 
BRANCH  14  23
HETATM   23  O   UNL     1     -41.253  56.093 -48.844  1.00  0.00    -0.360 OA
HETATM   24  H   UNL     1     -40.471  56.690 -48.814  1.00  0.00     0.217 HD
ENDBRANCH  14  23
ENDBRANCH  12  13
ENDBRANCH   8  11
ENDBRANCH   5   7
BRANCH   1  25
HETATM   25  C   UNL     1     -47.042  63.079 -50.792  1.00  0.00     0.045 C 
HETATM   26  C   UNL     1     -47.855  63.583 -49.757  1.00  0.00     0.066 C 
HETATM   27  C   UNL     1     -47.563  63.741 -48.310  1.00  0.00     0.073 C 
HETATM   28  N   UNL     1     -49.046  63.968 -50.221  1.00  0.00    -0.171 NA
HETATM   29  N   UNL     1     -49.076  63.570 -51.525  1.00  0.00    -0.237 N 
HETATM   30  C   UNL     1     -47.820  63.139 -51.938  1.00  0.00     0.047 C 
HETATM   31  C   UNL     1     -47.413  62.872 -53.344  1.00  0.00     0.071 C 
BRANCH  29  32
HETATM   32  C   UNL     1     -50.313  63.649 -52.237  1.00  0.00     0.058 A 
HETATM   33  C   UNL     1     -51.418  62.919 -51.763  1.00  0.00     0.031 A 
HETATM   34  C   UNL     1     -52.644  62.967 -52.431  1.00  0.00     0.002 A 
HETATM   35  C   UNL     1     -52.779  63.731 -53.586  1.00  0.00     0.000 A 
HETATM   36  C   UNL     1     -51.684  64.436 -54.081  1.00  0.00     0.002 A 
HETATM   37  C   UNL     1     -50.454  64.394 -53.414  1.00  0.00     0.031 A 
ENDBRANCH  29  32
ENDBRANCH   1  25
TORSDOF 6
ENDMDL
MODEL 9
REMARK VINA RESULT:      -8.4      6.916     11.892
REMARK  6 active torsions:
REMARK  status: ('A' for Active; 'I' for Inactive)
REMARK    1  A    between atoms: N_4  and  C_5 
REMARK    2  A    between atoms: C_13  and  C_14 
REMARK    3  A    between atoms: C_18  and  C_19 
REMARK       I    between atoms: C_19  and  N_20 
REMARK    4  A    between atoms: N_20  and  N_21 
REMARK    5  A    between atoms: C_22  and  C_23 
REMARK    6  A    between atoms: C_24  and  O_25 
ROOT
HETATM    1  C   UNL     1     -41.359  57.125 -53.305  1.00  0.00     0.093 A 
HETATM    2  N   UNL     1     -40.631  58.040 -52.659  1.00  0.00    -0.173 NA
HETATM    3  N   UNL     1     -40.890  59.181 -53.315  1.00  0.00    -0.272 N 
HETATM    4  H   UNL     1     -40.445  60.042 -53.008  1.00  0.00     0.189 HD
HETATM    5  C   UNL     1     -41.747  59.036 -54.374  1.00  0.00     0.121 A 
HETATM    6  C   UNL     1     -42.072  57.692 -54.386  1.00  0.00     0.071 A 
ENDROOT
BRANCH   5   7
HETATM    7  C   UNL     1     -42.101  60.165 -55.197  1.00  0.00     0.289 C 
HETATM    8  N   UNL     1     -41.558  60.156 -56.474  1.00  0.00    -0.242 N 
HETATM    9  H   UNL     1     -40.964  59.396 -56.777  1.00  0.00     0.192 HD
HETATM   10  O   UNL     1     -42.829  61.059 -54.773  1.00  0.00    -0.264 OA
BRANCH   8  11
HETATM   11  N   UNL     1     -41.794  61.204 -57.312  1.00  0.00    -0.183 NA
HETATM   12  C   UNL     1     -41.037  61.281 -58.363  1.00  0.00     0.153 C 
BRANCH  12  13
HETATM   13  C   UNL     1     -41.179  62.399 -59.331  1.00  0.00     0.027 A 
HETATM   14  C   UNL     1     -40.857  63.706 -58.920  1.00  0.00     0.078 A 
HETATM   15  C   UNL     1     -40.929  64.768 -59.810  1.00  0.00     0.038 A 
HETATM   16  C   UNL     1     -41.328  64.543 -61.123  1.00  0.00     0.015 A 
HETATM   17  C   UNL     1     -41.669  63.258 -61.564  1.00  0.00    -0.025 A 
HETATM   18  C   UNL     1     -41.605  62.151 -60.673  1.00  0.00    -0.012 A 
HETATM   19  C   UNL     1     -42.074  63.076 -62.896  1.00  0.00     0.012 A 
HETATM   20  C   UNL     1     -41.986  60.887 -61.197  1.00  0.00     0.013 A 
HETATM   21  C   UNL     1     -42.392  60.725 -62.525  1.00  0.00     0.001 A 
HETATM   22  C   UNL     1     -42.432  61.819 -63.376  1.00  0.00     0.001 A 
BRANCH  14  23
HETATM   23  O   UNL     1     -40.450  64.034 -57.654  1.00  0.00    -0.360 OA
HETATM   24  H   UNL     1     -40.908  64.859 -57.377  1.00  0.00     0.217 HD
ENDBRANCH  14  23
ENDBRANCH  12  13
ENDBRANCH   8  11
ENDBRANCH   5   7
BRANCH   1  25
HETATM   25  C   UNL     1     -41.355  55.710 -52.936  1.00  0.00     0.045 C 
HETATM   26  C   UNL     1     -41.941  55.131 -51.792  1.00  0.00     0.066 C 
HETATM   27  C   UNL     1     -42.659  55.775 -50.664  1.00  0.00     0.073 C 
HETATM   28  N   UNL     1     -41.802  53.804 -51.796  1.00  0.00    -0.171 NA
HETATM   29  N   UNL     1     -40.988  53.525 -52.854  1.00  0.00    -0.237 N 
HETATM   30  C   UNL     1     -40.803  54.654 -53.645  1.00  0.00     0.047 C 
HETATM   31  C   UNL     1     -40.192  54.673 -55.001  1.00  0.00     0.071 C 
BRANCH  29  32
HETATM   32  C   UNL     1     -40.478  52.197 -52.993  1.00  0.00     0.058 A 
HETATM   33  C   UNL     1     -39.945  51.551 -51.863  1.00  0.00     0.031 A 
HETATM   34  C   UNL     1     -39.433  50.255 -51.956  1.00  0.00     0.002 A 
HETATM   35  C   UNL     1     -39.432  49.593 -53.180  1.00  0.00     0.000 A 
HETATM   36  C   UNL     1     -39.931  50.232 -54.313  1.00  0.00     0.002 A 
HETATM   37  C   UNL     1     -40.448  51.530 -54.224  1.00  0.00     0.031 A 
ENDBRANCH  29  32
ENDBRANCH   1  25
TORSDOF 6
ENDMDL
MODEL 10
REMARK VINA RESULT:      -8.0     20.798     22.735
REMARK  6 active torsions:
REMARK  status: ('A' for Active; 'I' for Inactive)
REMARK    1  A    between atoms: N_4  and  C_5 
REMARK    2  A    between atoms: C_13  and  C_14 
REMARK    3  A    between atoms: C_18  and  C_19 
REMARK       I    between atoms: C_19  and  N_20 
REMARK    4  A    between atoms: N_20  and  N_21 
REMARK    5  A    between atoms: C_22  and  C_23 
REMARK    6  A    between atoms: C_24  and  O_25 
ROOT
HETATM    1  C   UNL     1     -36.082  40.859 -53.395  1.00  0.00     0.093 A 
HETATM    2  N   UNL     1     -36.329  42.166 -53.519  1.00  0.00    -0.173 NA
HETATM    3  N   UNL     1     -36.653  42.313 -54.812  1.00  0.00    -0.272 N 
HETATM    4  H   UNL     1     -36.888  43.237 -55.163  1.00  0.00     0.189 HD
HETATM    5  C   UNL     1     -36.609  41.150 -55.536  1.00  0.00     0.121 A 
HETATM    6  C   UNL     1     -36.239  40.178 -54.625  1.00  0.00     0.071 A 
ENDROOT
BRANCH   5   7
HETATM    7  C   UNL     1     -36.902  41.147 -56.947  1.00  0.00     0.289 C 
HETATM    8  N   UNL     1     -37.747  40.131 -57.371  1.00  0.00    -0.242 N 
HETATM    9  H   UNL     1     -38.117  39.459 -56.713  1.00  0.00     0.192 HD
HETATM   10  O   UNL     1     -36.421  41.991 -57.699  1.00  0.00    -0.264 OA
BRANCH   8  11
HETATM   11  N   UNL     1     -38.045  40.013 -58.696  1.00  0.00    -0.183 NA
HETATM   12  C   UNL     1     -38.096  38.806 -59.168  1.00  0.00     0.153 C 
BRANCH  12  13
HETATM   13  C   UNL     1     -38.379  38.555 -60.605  1.00  0.00     0.027 A 
HETATM   14  C   UNL     1     -37.389  38.854 -61.560  1.00  0.00     0.078 A 
HETATM   15  C   UNL     1     -37.598  38.587 -62.906  1.00  0.00     0.038 A 
HETATM   16  C   UNL     1     -38.800  38.022 -63.320  1.00  0.00     0.015 A 
HETATM   17  C   UNL     1     -39.813  37.724 -62.398  1.00  0.00    -0.025 A 
HETATM   18  C   UNL     1     -39.626  37.988 -61.014  1.00  0.00    -0.012 A 
HETATM   19  C   UNL     1     -41.014  37.161 -62.860  1.00  0.00     0.012 A 
HETATM   20  C   UNL     1     -40.710  37.673 -60.152  1.00  0.00     0.013 A 
HETATM   21  C   UNL     1     -41.901  37.117 -60.630  1.00  0.00     0.001 A 
HETATM   22  C   UNL     1     -42.051  36.858 -61.983  1.00  0.00     0.001 A 
BRANCH  14  23
HETATM   23  O   UNL     1     -36.173  39.406 -61.258  1.00  0.00    -0.360 OA
HETATM   24  H   UNL     1     -35.572  38.695 -60.939  1.00  0.00     0.217 HD
ENDBRANCH  14  23
ENDBRANCH  12  13
ENDBRANCH   8  11
ENDBRANCH   5   7
BRANCH   1  25
HETATM   25  C   UNL     1     -35.659  40.252 -52.134  1.00  0.00     0.045 C 
HETATM   26  C   UNL     1     -36.489  39.674 -51.152  1.00  0.00     0.066 C 
HETATM   27  C   UNL     1     -37.968  39.563 -51.103  1.00  0.00     0.073 C 
HETATM   28  N   UNL     1     -35.769  39.159 -50.152  1.00  0.00    -0.171 NA
HETATM   29  N   UNL     1     -34.483  39.540 -50.395  1.00  0.00    -0.237 N 
HETATM   30  C   UNL     1     -34.364  40.098 -51.663  1.00  0.00     0.047 C 
HETATM   31  C   UNL     1     -33.087  40.393 -52.365  1.00  0.00     0.071 C 
BRANCH  29  32
HETATM   32  C   UNL     1     -33.501  39.321 -49.378  1.00  0.00     0.058 A 
HETATM   33  C   UNL     1     -33.740  38.335 -48.404  1.00  0.00     0.031 A 
HETATM   34  C   UNL     1     -32.808  38.092 -47.392  1.00  0.00     0.002 A 
HETATM   35  C   UNL     1     -31.635  38.839 -47.331  1.00  0.00     0.000 A 
HETATM   36  C   UNL     1     -31.400  39.837 -48.274  1.00  0.00     0.002 A 
HETATM   37  C   UNL     1     -32.330  40.083 -49.291  1.00  0.00     0.031 A 
ENDBRANCH  29  32
ENDBRANCH   1  25
TORSDOF 6
ENDMDL
