MODEL 1
REMARK VINA RESULT:      -6.9      0.000      0.000
REMARK  9 active torsions:
REMARK  status: ('A' for Active; 'I' for Inactive)
REMARK    1  A    between atoms: C_2  and  O_3 
REMARK    2  A    between atoms: O_3  and  C_4 
REMARK    3  A    between atoms: C_4  and  C_5 
REMARK    4  A    between atoms: C_11  and  O_12 
REMARK    5  A    between atoms: C_13  and  C_14 
REMARK    6  A    between atoms: C_14  and  N_15 
REMARK    7  A    between atoms: N_19  and  C_20 
REMARK    8  A    between atoms: C_26  and  C_27 
REMARK    9  A    between atoms: C_27  and  N_28 
ROOT
HETATM    1  C   UNL     1     -42.482  59.098 -56.381  1.00  0.00     0.077 A 
HETATM    2  C   UNL     1     -43.122  58.233 -57.375  1.00  0.00     0.020 A 
HETATM    3  C   UNL     1     -42.988  56.925 -56.891  1.00  0.00     0.053 A 
HETATM    4  C   UNL     1     -43.416  55.796 -57.616  1.00  0.00     0.053 A 
HETATM    5  C   UNL     1     -43.913  55.976 -58.895  1.00  0.00     0.047 A 
HETATM    6 BR   UNL     1     -44.393  54.450 -59.911  1.00  0.00    -0.048 Br
HETATM    7  C   UNL     1     -44.061  57.257 -59.414  1.00  0.00     0.092 A 
HETATM    8  C   UNL     1     -43.755  58.425 -58.666  1.00  0.00     0.016 A 
HETATM    9  N   UNL     1     -42.421  56.975 -55.624  1.00  0.00    -0.312 N 
HETATM   10  C   UNL     1     -42.069  58.282 -55.312  1.00  0.00     0.060 A 
ENDROOT
BRANCH  10  11
HETATM   11  C   UNL     1     -41.198  58.575 -54.117  1.00  0.00     0.293 C 
BRANCH  11  12
HETATM   12  N   UNL     1     -41.828  59.452 -53.072  1.00  0.00    -0.062 N 
HETATM   13  H   UNL     1     -41.671  60.419 -53.383  1.00  0.00     0.280 HD
HETATM   14  C   UNL     1     -43.319  59.244 -52.878  1.00  0.00     0.261 C 
HETATM   15  C   UNL     1     -43.836  60.220 -51.815  1.00  0.00     0.195 C 
HETATM   16  O   UNL     1     -43.139  60.043 -50.578  1.00  0.00    -0.388 OA
HETATM   17  C   UNL     1     -41.734  60.279 -50.713  1.00  0.00     0.195 C 
HETATM   18  C   UNL     1     -41.112  59.311 -51.724  1.00  0.00     0.261 C 
ENDBRANCH  11  12
ENDBRANCH  10  11
BRANCH   1  19
HETATM   19  C   UNL     1     -42.213  60.541 -56.518  1.00  0.00     0.296 C 
HETATM   20  O   UNL     1     -42.837  61.395 -55.910  1.00  0.00    -0.259 OA
BRANCH  19  21
HETATM   21  O   UNL     1     -41.200  60.833 -57.392  1.00  0.00    -0.318 OA
BRANCH  21  22
HETATM   22  C   UNL     1     -41.318  62.104 -58.069  1.00  0.00     0.174 C 
HETATM   23  C   UNL     1     -40.062  62.421 -58.862  1.00  0.00     0.034 C 
ENDBRANCH  21  22
ENDBRANCH  19  21
ENDBRANCH   1  19
BRANCH   9  24
HETATM   24  C   UNL     1     -42.160  55.834 -54.824  1.00  0.00     0.040 A 
HETATM   25  C   UNL     1     -40.980  55.109 -55.019  1.00  0.00     0.030 A 
HETATM   26  C   UNL     1     -40.725  53.992 -54.223  1.00  0.00     0.002 A 
HETATM   27  C   UNL     1     -41.644  53.602 -53.249  1.00  0.00     0.000 A 
HETATM   28  C   UNL     1     -42.827  54.321 -53.069  1.00  0.00     0.002 A 
HETATM   29  C   UNL     1     -43.092  55.441 -53.857  1.00  0.00     0.030 A 
ENDBRANCH   9  24
BRANCH   8  30
HETATM   30  C   UNL     1     -44.022  59.798 -59.271  1.00  0.00     0.276 C 
BRANCH  30  31
HETATM   31  N   UNL     1     -43.433  60.096 -60.635  1.00  0.00    -0.075 N 
HETATM   32  H   UNL     1     -43.922  59.445 -61.273  1.00  0.00     0.279 HD
HETATM   33  C   UNL     1     -43.732  61.477 -61.131  1.00  0.00     0.269 C 
HETATM   34  C   UNL     1     -41.972  59.775 -60.709  1.00  0.00     0.269 C 
ENDBRANCH  30  31
ENDBRANCH   8  30
BRANCH   7  35
HETATM   35  O   UNL     1     -44.518  57.405 -60.708  1.00  0.00    -0.359 OA
HETATM   36  H   UNL     1     -43.788  57.819 -61.223  1.00  0.00     0.218 HD
ENDBRANCH   7  35
TORSDOF 9
ENDMDL
MODEL 2
REMARK VINA RESULT:      -6.7      1.185      1.834
REMARK  9 active torsions:
REMARK  status: ('A' for Active; 'I' for Inactive)
REMARK    1  A    between atoms: C_2  and  O_3 
REMARK    2  A    between atoms: O_3  and  C_4 
REMARK    3  A    between atoms: C_4  and  C_5 
REMARK    4  A    between atoms: C_11  and  O_12 
REMARK    5  A    between atoms: C_13  and  C_14 
REMARK    6  A    between atoms: C_14  and  N_15 
REMARK    7  A    between atoms: N_19  and  C_20 
REMARK    8  A    between atoms: C_26  and  C_27 
REMARK    9  A    between atoms: C_27  and  N_28 
ROOT
HETATM    1  C   UNL     1     -42.611  58.730 -56.092  1.00  0.00     0.077 A 
HETATM    2  C   UNL     1     -43.249  57.950 -57.156  1.00  0.00     0.020 A 
HETATM    3  C   UNL     1     -42.973  56.607 -56.865  1.00  0.00     0.053 A 
HETATM    4  C   UNL     1     -43.360  55.550 -57.713  1.00  0.00     0.053 A 
HETATM    5  C   UNL     1     -43.961  55.852 -58.923  1.00  0.00     0.047 A 
HETATM    6 BR   UNL     1     -44.386  54.437 -60.108  1.00  0.00    -0.048 Br
HETATM    7  C   UNL     1     -44.250  57.172 -59.249  1.00  0.00     0.092 A 
HETATM    8  C   UNL     1     -43.987  58.253 -58.367  1.00  0.00     0.016 A 
HETATM    9  N   UNL     1     -42.323  56.540 -55.641  1.00  0.00    -0.312 N 
HETATM   10  C   UNL     1     -42.057  57.821 -55.173  1.00  0.00     0.060 A 
ENDROOT
BRANCH  10  11
HETATM   11  C   UNL     1     -41.129  58.031 -54.004  1.00  0.00     0.293 C 
BRANCH  11  12
HETATM   12  N   UNL     1     -41.802  58.431 -52.721  1.00  0.00    -0.062 N 
HETATM   13  H   UNL     1     -41.373  57.855 -51.985  1.00  0.00     0.280 HD
HETATM   14  C   UNL     1     -41.640  59.893 -52.344  1.00  0.00     0.261 C 
HETATM   15  C   UNL     1     -42.341  60.155 -51.006  1.00  0.00     0.195 C 
HETATM   16  O   UNL     1     -43.726  59.806 -51.080  1.00  0.00    -0.388 OA
HETATM   17  C   UNL     1     -43.918  58.422 -51.387  1.00  0.00     0.195 C 
HETATM   18  C   UNL     1     -43.291  58.070 -52.740  1.00  0.00     0.261 C 
ENDBRANCH  11  12
ENDBRANCH  10  11
BRANCH   1  19
HETATM   19  C   UNL     1     -42.473  60.197 -56.044  1.00  0.00     0.296 C 
HETATM   20  O   UNL     1     -43.229  60.918 -55.413  1.00  0.00    -0.259 OA
BRANCH  19  21
HETATM   21  O   UNL     1     -41.418  60.676 -56.774  1.00  0.00    -0.318 OA
BRANCH  21  22
HETATM   22  C   UNL     1     -41.750  61.700 -57.738  1.00  0.00     0.174 C 
HETATM   23  C   UNL     1     -40.520  62.143 -58.512  1.00  0.00     0.034 C 
ENDBRANCH  21  22
ENDBRANCH  19  21
ENDBRANCH   1  19
BRANCH   9  24
HETATM   24  C   UNL     1     -41.913  55.332 -55.023  1.00  0.00     0.040 A 
HETATM   25  C   UNL     1     -42.720  54.752 -54.038  1.00  0.00     0.030 A 
HETATM   26  C   UNL     1     -42.315  53.560 -53.438  1.00  0.00     0.002 A 
HETATM   27  C   UNL     1     -41.114  52.959 -53.815  1.00  0.00     0.000 A 
HETATM   28  C   UNL     1     -40.306  53.550 -54.788  1.00  0.00     0.002 A 
HETATM   29  C   UNL     1     -40.701  54.741 -55.396  1.00  0.00     0.030 A 
ENDBRANCH   9  24
BRANCH   8  30
HETATM   30  C   UNL     1     -44.409  59.664 -58.759  1.00  0.00     0.276 C 
BRANCH  30  31
HETATM   31  N   UNL     1     -45.376  60.392 -57.846  1.00  0.00    -0.075 N 
HETATM   32  H   UNL     1     -44.922  60.361 -56.917  1.00  0.00     0.279 HD
HETATM   33  C   UNL     1     -45.548  61.840 -58.184  1.00  0.00     0.269 C 
HETATM   34  C   UNL     1     -46.688  59.682 -57.722  1.00  0.00     0.269 C 
ENDBRANCH  30  31
ENDBRANCH   8  30
BRANCH   7  35
HETATM   35  O   UNL     1     -44.810  57.448 -60.480  1.00  0.00    -0.359 OA
HETATM   36  H   UNL     1     -44.721  58.418 -60.623  1.00  0.00     0.218 HD
ENDBRANCH   7  35
TORSDOF 9
ENDMDL
MODEL 3
REMARK VINA RESULT:      -6.5      3.190      8.089
REMARK  9 active torsions:
REMARK  status: ('A' for Active; 'I' for Inactive)
REMARK    1  A    between atoms: C_2  and  O_3 
REMARK    2  A    between atoms: O_3  and  C_4 
REMARK    3  A    between atoms: C_4  and  C_5 
REMARK    4  A    between atoms: C_11  and  O_12 
REMARK    5  A    between atoms: C_13  and  C_14 
REMARK    6  A    between atoms: C_14  and  N_15 
REMARK    7  A    between atoms: N_19  and  C_20 
REMARK    8  A    between atoms: C_26  and  C_27 
REMARK    9  A    between atoms: C_27  and  N_28 
ROOT
HETATM    1  C   UNL     1     -42.759  56.325 -55.227  1.00  0.00     0.077 A 
HETATM    2  C   UNL     1     -42.701  57.070 -53.966  1.00  0.00     0.020 A 
HETATM    3  C   UNL     1     -42.810  58.423 -54.315  1.00  0.00     0.053 A 
HETATM    4  C   UNL     1     -42.716  59.463 -53.369  1.00  0.00     0.053 A 
HETATM    5  C   UNL     1     -42.419  59.143 -52.055  1.00  0.00     0.047 A 
HETATM    6 BR   UNL     1     -42.190  60.547 -50.804  1.00  0.00    -0.048 Br
HETATM    7  C   UNL     1     -42.301  57.813 -51.669  1.00  0.00     0.092 A 
HETATM    8  C   UNL     1     -42.511  56.734 -52.568  1.00  0.00     0.016 A 
HETATM    9  N   UNL     1     -43.050  58.514 -55.679  1.00  0.00    -0.312 N 
HETATM   10  C   UNL     1     -42.984  57.254 -56.259  1.00  0.00     0.060 A 
ENDROOT
BRANCH  10  11
HETATM   11  C   UNL     1     -42.941  57.103 -57.758  1.00  0.00     0.293 C 
BRANCH  11  12
HETATM   12  N   UNL     1     -44.155  56.458 -58.367  1.00  0.00    -0.062 N 
HETATM   13  H   UNL     1     -44.627  55.965 -57.598  1.00  0.00     0.280 HD
HETATM   14  C   UNL     1     -45.142  57.424 -58.998  1.00  0.00     0.261 C 
HETATM   15  C   UNL     1     -46.341  56.641 -59.545  1.00  0.00     0.195 C 
HETATM   16  O   UNL     1     -45.919  55.661 -60.496  1.00  0.00    -0.388 OA
HETATM   17  C   UNL     1     -45.024  54.704 -59.923  1.00  0.00     0.195 C 
HETATM   18  C   UNL     1     -43.761  55.388 -59.389  1.00  0.00     0.261 C 
ENDBRANCH  11  12
ENDBRANCH  10  11
BRANCH   1  19
HETATM   19  C   UNL     1     -42.516  54.882 -55.403  1.00  0.00     0.296 C 
HETATM   20  O   UNL     1     -43.367  54.032 -55.192  1.00  0.00    -0.259 OA
BRANCH  19  21
HETATM   21  O   UNL     1     -41.249  54.583 -55.825  1.00  0.00    -0.318 OA
BRANCH  21  22
HETATM   22  C   UNL     1     -40.286  54.355 -54.772  1.00  0.00     0.174 C 
HETATM   23  C   UNL     1     -40.254  52.891 -54.367  1.00  0.00     0.034 C 
ENDBRANCH  21  22
ENDBRANCH  19  21
ENDBRANCH   1  19
BRANCH   9  24
HETATM   24  C   UNL     1     -43.238  59.736 -56.374  1.00  0.00     0.040 A 
HETATM   25  C   UNL     1     -44.534  60.217 -56.585  1.00  0.00     0.030 A 
HETATM   26  C   UNL     1     -44.713  61.423 -57.263  1.00  0.00     0.002 A 
HETATM   27  C   UNL     1     -43.608  62.134 -57.729  1.00  0.00     0.000 A 
HETATM   28  C   UNL     1     -42.317  61.642 -57.528  1.00  0.00     0.002 A 
HETATM   29  C   UNL     1     -42.125  60.439 -56.850  1.00  0.00     0.030 A 
ENDBRANCH   9  24
BRANCH   8  30
HETATM   30  C   UNL     1     -42.447  55.301 -52.054  1.00  0.00     0.276 C 
BRANCH  30  31
HETATM   31  N   UNL     1     -42.827  55.053 -50.608  1.00  0.00    -0.075 N 
HETATM   32  H   UNL     1     -42.814  55.992 -50.175  1.00  0.00     0.279 HD
HETATM   33  C   UNL     1     -44.219  54.528 -50.433  1.00  0.00     0.269 C 
HETATM   34  C   UNL     1     -41.815  54.218 -49.886  1.00  0.00     0.269 C 
ENDBRANCH  30  31
ENDBRANCH   8  30
BRANCH   7  35
HETATM   35  O   UNL     1     -41.963  57.524 -50.362  1.00  0.00    -0.359 OA
HETATM   36  H   UNL     1     -41.809  58.385 -49.910  1.00  0.00     0.218 HD
ENDBRANCH   7  35
TORSDOF 9
ENDMDL
MODEL 4
REMARK VINA RESULT:      -6.5      1.094      2.004
REMARK  9 active torsions:
REMARK  status: ('A' for Active; 'I' for Inactive)
REMARK    1  A    between atoms: C_2  and  O_3 
REMARK    2  A    between atoms: O_3  and  C_4 
REMARK    3  A    between atoms: C_4  and  C_5 
REMARK    4  A    between atoms: C_11  and  O_12 
REMARK    5  A    between atoms: C_13  and  C_14 
REMARK    6  A    between atoms: C_14  and  N_15 
REMARK    7  A    between atoms: N_19  and  C_20 
REMARK    8  A    between atoms: C_26  and  C_27 
REMARK    9  A    between atoms: C_27  and  N_28 
ROOT
HETATM    1  C   UNL     1     -42.585  58.750 -55.979  1.00  0.00     0.077 A 
HETATM    2  C   UNL     1     -43.207  57.992 -57.067  1.00  0.00     0.020 A 
HETATM    3  C   UNL     1     -42.926  56.644 -56.806  1.00  0.00     0.053 A 
HETATM    4  C   UNL     1     -43.297  55.605 -57.682  1.00  0.00     0.053 A 
HETATM    5  C   UNL     1     -43.888  55.933 -58.891  1.00  0.00     0.047 A 
HETATM    6 BR   UNL     1     -44.292  54.544 -60.114  1.00  0.00    -0.048 Br
HETATM    7  C   UNL     1     -44.181  57.258 -59.189  1.00  0.00     0.092 A 
HETATM    8  C   UNL     1     -43.934  58.320 -58.279  1.00  0.00     0.016 A 
HETATM    9  N   UNL     1     -42.288  56.552 -55.577  1.00  0.00    -0.312 N 
HETATM   10  C   UNL     1     -42.035  57.822 -55.075  1.00  0.00     0.060 A 
ENDROOT
BRANCH  10  11
HETATM   11  C   UNL     1     -41.120  58.010 -53.892  1.00  0.00     0.293 C 
BRANCH  11  12
HETATM   12  N   UNL     1     -41.807  58.395 -52.612  1.00  0.00    -0.062 N 
HETATM   13  H   UNL     1     -41.443  57.756 -51.893  1.00  0.00     0.280 HD
HETATM   14  C   UNL     1     -41.559  59.822 -52.159  1.00  0.00     0.261 C 
HETATM   15  C   UNL     1     -42.285  60.069 -50.831  1.00  0.00     0.195 C 
HETATM   16  O   UNL     1     -43.687  59.820 -50.964  1.00  0.00    -0.388 OA
HETATM   17  C   UNL     1     -43.961  58.468 -51.344  1.00  0.00     0.195 C 
HETATM   18  C   UNL     1     -43.315  58.138 -52.693  1.00  0.00     0.261 C 
ENDBRANCH  11  12
ENDBRANCH  10  11
BRANCH   1  19
HETATM   19  C   UNL     1     -42.455  60.216 -55.895  1.00  0.00     0.296 C 
HETATM   20  O   UNL     1     -41.610  60.847 -56.510  1.00  0.00    -0.259 OA
BRANCH  19  21
HETATM   21  O   UNL     1     -43.369  60.805 -55.062  1.00  0.00    -0.318 OA
BRANCH  21  22
HETATM   22  C   UNL     1     -43.362  62.249 -55.062  1.00  0.00     0.174 C 
HETATM   23  C   UNL     1     -43.218  62.796 -53.652  1.00  0.00     0.034 C 
ENDBRANCH  21  22
ENDBRANCH  19  21
ENDBRANCH   1  19
BRANCH   9  24
HETATM   24  C   UNL     1     -41.877  55.331 -54.983  1.00  0.00     0.040 A 
HETATM   25  C   UNL     1     -42.683  54.733 -54.009  1.00  0.00     0.030 A 
HETATM   26  C   UNL     1     -42.278  53.528 -53.434  1.00  0.00     0.002 A 
HETATM   27  C   UNL     1     -41.078  52.935 -53.824  1.00  0.00     0.000 A 
HETATM   28  C   UNL     1     -40.271  53.544 -54.786  1.00  0.00     0.002 A 
HETATM   29  C   UNL     1     -40.666  54.747 -55.370  1.00  0.00     0.030 A 
ENDBRANCH   9  24
BRANCH   8  30
HETATM   30  C   UNL     1     -44.360  59.737 -58.641  1.00  0.00     0.276 C 
BRANCH  30  31
HETATM   31  N   UNL     1     -43.460  60.530 -59.567  1.00  0.00    -0.075 N 
HETATM   32  H   UNL     1     -43.255  61.398 -59.043  1.00  0.00     0.279 HD
HETATM   33  C   UNL     1     -42.140  59.875 -59.831  1.00  0.00     0.269 C 
HETATM   34  C   UNL     1     -44.154  60.931 -60.832  1.00  0.00     0.269 C 
ENDBRANCH  30  31
ENDBRANCH   8  30
BRANCH   7  35
HETATM   35  O   UNL     1     -44.730  57.561 -60.419  1.00  0.00    -0.359 OA
HETATM   36  H   UNL     1     -44.645  58.534 -60.538  1.00  0.00     0.218 HD
ENDBRANCH   7  35
TORSDOF 9
ENDMDL
MODEL 5
REMARK VINA RESULT:      -6.2      2.286      3.729
REMARK  9 active torsions:
REMARK  status: ('A' for Active; 'I' for Inactive)
REMARK    1  A    between atoms: C_2  and  O_3 
REMARK    2  A    between atoms: O_3  and  C_4 
REMARK    3  A    between atoms: C_4  and  C_5 
REMARK    4  A    between atoms: C_11  and  O_12 
REMARK    5  A    between atoms: C_13  and  C_14 
REMARK    6  A    between atoms: C_14  and  N_15 
REMARK    7  A    between atoms: N_19  and  C_20 
REMARK    8  A    between atoms: C_26  and  C_27 
REMARK    9  A    between atoms: C_27  and  N_28 
ROOT
HETATM    1  C   UNL     1     -43.424  58.351 -54.541  1.00  0.00     0.077 A 
HETATM    2  C   UNL     1     -43.808  57.929 -55.890  1.00  0.00     0.020 A 
HETATM    3  C   UNL     1     -43.165  56.702 -56.106  1.00  0.00     0.053 A 
HETATM    4  C   UNL     1     -43.230  56.014 -57.334  1.00  0.00     0.053 A 
HETATM    5  C   UNL     1     -43.883  56.611 -58.398  1.00  0.00     0.047 A 
HETATM    6 BR   UNL     1     -43.881  55.734 -60.077  1.00  0.00    -0.048 Br
HETATM    7  C   UNL     1     -44.531  57.828 -58.227  1.00  0.00     0.092 A 
HETATM    8  C   UNL     1     -44.592  58.493 -56.972  1.00  0.00     0.016 A 
HETATM    9  N   UNL     1     -42.531  56.319 -54.932  1.00  0.00    -0.312 N 
HETATM   10  C   UNL     1     -42.642  57.324 -53.981  1.00  0.00     0.060 A 
ENDROOT
BRANCH  10  11
HETATM   11  C   UNL     1     -41.820  57.278 -52.718  1.00  0.00     0.293 C 
BRANCH  11  12
HETATM   12  N   UNL     1     -42.026  56.054 -51.871  1.00  0.00    -0.062 N 
HETATM   13  H   UNL     1     -41.854  55.251 -52.489  1.00  0.00     0.280 HD
HETATM   14  C   UNL     1     -41.099  55.945 -50.672  1.00  0.00     0.261 C 
HETATM   15  C   UNL     1     -41.391  54.641 -49.920  1.00  0.00     0.195 C 
HETATM   16  O   UNL     1     -42.759  54.588 -49.505  1.00  0.00    -0.388 OA
HETATM   17  C   UNL     1     -43.661  54.639 -50.614  1.00  0.00     0.195 C 
HETATM   18  C   UNL     1     -43.480  55.939 -51.405  1.00  0.00     0.261 C 
ENDBRANCH  11  12
ENDBRANCH  10  11
BRANCH   1  19
HETATM   19  C   UNL     1     -43.706  59.657 -53.919  1.00  0.00     0.296 C 
HETATM   20  O   UNL     1     -42.888  60.562 -53.867  1.00  0.00    -0.259 OA
BRANCH  19  21
HETATM   21  O   UNL     1     -44.971  59.762 -53.403  1.00  0.00    -0.318 OA
BRANCH  21  22
HETATM   22  C   UNL     1     -45.108  59.362 -52.022  1.00  0.00     0.174 C 
HETATM   23  C   UNL     1     -46.286  60.061 -51.365  1.00  0.00     0.034 C 
ENDBRANCH  21  22
ENDBRANCH  19  21
ENDBRANCH   1  19
BRANCH   9  24
HETATM   24  C   UNL     1     -41.800  55.113 -54.780  1.00  0.00     0.040 A 
HETATM   25  C   UNL     1     -40.422  55.107 -55.017  1.00  0.00     0.030 A 
HETATM   26  C   UNL     1     -39.707  53.920 -54.858  1.00  0.00     0.002 A 
HETATM   27  C   UNL     1     -40.365  52.752 -54.474  1.00  0.00     0.000 A 
HETATM   28  C   UNL     1     -41.743  52.761 -54.252  1.00  0.00     0.002 A 
HETATM   29  C   UNL     1     -42.469  53.942 -54.406  1.00  0.00     0.030 A 
ENDBRANCH   9  24
BRANCH   8  30
HETATM   30  C   UNL     1     -45.393  59.782 -56.841  1.00  0.00     0.276 C 
BRANCH  30  31
HETATM   31  N   UNL     1     -44.938  60.982 -57.648  1.00  0.00    -0.075 N 
HETATM   32  H   UNL     1     -44.947  60.649 -58.628  1.00  0.00     0.279 HD
HETATM   33  C   UNL     1     -45.882  62.142 -57.587  1.00  0.00     0.269 C 
HETATM   34  C   UNL     1     -43.531  61.383 -57.331  1.00  0.00     0.269 C 
ENDBRANCH  30  31
ENDBRANCH   8  30
BRANCH   7  35
HETATM   35  O   UNL     1     -45.138  58.422 -59.315  1.00  0.00    -0.359 OA
HETATM   36  H   UNL     1     -46.005  57.972 -59.440  1.00  0.00     0.218 HD
ENDBRANCH   7  35
TORSDOF 9
ENDMDL
MODEL 6
REMARK VINA RESULT:      -6.2     18.177     21.468
REMARK  9 active torsions:
REMARK  status: ('A' for Active; 'I' for Inactive)
REMARK    1  A    between atoms: C_2  and  O_3 
REMARK    2  A    between atoms: O_3  and  C_4 
REMARK    3  A    between atoms: C_4  and  C_5 
REMARK    4  A    between atoms: C_11  and  O_12 
REMARK    5  A    between atoms: C_13  and  C_14 
REMARK    6  A    between atoms: C_14  and  N_15 
REMARK    7  A    between atoms: N_19  and  C_20 
REMARK    8  A    between atoms: C_26  and  C_27 
REMARK    9  A    between atoms: C_27  and  N_28 
ROOT
HETATM    1  C   UNL     1     -34.124  39.592 -54.386  1.00  0.00     0.077 A 
HETATM    2  C   UNL     1     -35.407  39.822 -53.717  1.00  0.00     0.020 A 
HETATM    3  C   UNL     1     -36.285  40.271 -54.714  1.00  0.00     0.053 A 
HETATM    4  C   UNL     1     -37.606  40.674 -54.440  1.00  0.00     0.053 A 
HETATM    5  C   UNL     1     -38.032  40.711 -53.123  1.00  0.00     0.047 A 
HETATM    6 BR   UNL     1     -39.774  41.352 -52.745  1.00  0.00    -0.048 Br
HETATM    7  C   UNL     1     -37.191  40.276 -52.104  1.00  0.00     0.092 A 
HETATM    8  C   UNL     1     -35.897  39.748 -52.354  1.00  0.00     0.016 A 
HETATM    9  N   UNL     1     -35.638  40.203 -55.940  1.00  0.00    -0.312 N 
HETATM   10  C   UNL     1     -34.312  39.831 -55.759  1.00  0.00     0.060 A 
ENDROOT
BRANCH  10  11
HETATM   11  C   UNL     1     -33.324  39.941 -56.893  1.00  0.00     0.293 C 
BRANCH  11  12
HETATM   12  N   UNL     1     -32.155  39.000 -56.811  1.00  0.00    -0.062 N 
HETATM   13  H   UNL     1     -32.281  38.469 -55.940  1.00  0.00     0.280 HD
HETATM   14  C   UNL     1     -32.044  38.018 -57.963  1.00  0.00     0.261 C 
HETATM   15  C   UNL     1     -30.837  37.101 -57.737  1.00  0.00     0.195 C 
HETATM   16  O   UNL     1     -29.634  37.865 -57.610  1.00  0.00    -0.388 OA
HETATM   17  C   UNL     1     -29.684  38.769 -56.503  1.00  0.00     0.195 C 
HETATM   18  C   UNL     1     -30.836  39.766 -56.663  1.00  0.00     0.261 C 
ENDBRANCH  11  12
ENDBRANCH  10  11
BRANCH   1  19
HETATM   19  C   UNL     1     -32.840  39.278 -53.733  1.00  0.00     0.296 C 
HETATM   20  O   UNL     1     -32.177  40.108 -53.131  1.00  0.00    -0.259 OA
BRANCH  19  21
HETATM   21  O   UNL     1     -32.459  37.969 -53.864  1.00  0.00    -0.318 OA
BRANCH  21  22
HETATM   22  C   UNL     1     -31.436  37.529 -52.944  1.00  0.00     0.174 C 
HETATM   23  C   UNL     1     -32.046  36.825 -51.744  1.00  0.00     0.034 C 
ENDBRANCH  21  22
ENDBRANCH  19  21
ENDBRANCH   1  19
BRANCH   9  24
HETATM   24  C   UNL     1     -36.236  40.558 -57.176  1.00  0.00     0.040 A 
HETATM   25  C   UNL     1     -36.759  39.557 -58.002  1.00  0.00     0.030 A 
HETATM   26  C   UNL     1     -37.353  39.913 -59.213  1.00  0.00     0.002 A 
HETATM   27  C   UNL     1     -37.416  41.253 -59.595  1.00  0.00     0.000 A 
HETATM   28  C   UNL     1     -36.880  42.245 -58.773  1.00  0.00     0.002 A 
HETATM   29  C   UNL     1     -36.285  41.903 -57.559  1.00  0.00     0.030 A 
ENDBRANCH   9  24
BRANCH   8  30
HETATM   30  C   UNL     1     -35.065  39.213 -51.194  1.00  0.00     0.276 C 
BRANCH  30  31
HETATM   31  N   UNL     1     -34.400  40.220 -50.278  1.00  0.00    -0.075 N 
HETATM   32  H   UNL     1     -35.056  40.315 -49.484  1.00  0.00     0.279 HD
HETATM   33  C   UNL     1     -33.104  39.743 -49.699  1.00  0.00     0.269 C 
HETATM   34  C   UNL     1     -34.271  41.570 -50.911  1.00  0.00     0.269 C 
ENDBRANCH  30  31
ENDBRANCH   8  30
BRANCH   7  35
HETATM   35  O   UNL     1     -37.625  40.364 -50.797  1.00  0.00    -0.359 OA
HETATM   36  H   UNL     1     -38.210  39.588 -50.637  1.00  0.00     0.218 HD
ENDBRANCH   7  35
TORSDOF 9
ENDMDL
MODEL 7
REMARK VINA RESULT:      -6.1      3.419      8.043
REMARK  9 active torsions:
REMARK  status: ('A' for Active; 'I' for Inactive)
REMARK    1  A    between atoms: C_2  and  O_3 
REMARK    2  A    between atoms: O_3  and  C_4 
REMARK    3  A    between atoms: C_4  and  C_5 
REMARK    4  A    between atoms: C_11  and  O_12 
REMARK    5  A    between atoms: C_13  and  C_14 
REMARK    6  A    between atoms: C_14  and  N_15 
REMARK    7  A    between atoms: N_19  and  C_20 
REMARK    8  A    between atoms: C_26  and  C_27 
REMARK    9  A    between atoms: C_27  and  N_28 
ROOT
HETATM    1  C   UNL     1     -43.588  57.023 -55.502  1.00  0.00     0.077 A 
HETATM    2  C   UNL     1     -44.078  57.718 -54.309  1.00  0.00     0.020 A 
HETATM    3  C   UNL     1     -44.852  58.788 -54.779  1.00  0.00     0.053 A 
HETATM    4  C   UNL     1     -45.434  59.741 -53.920  1.00  0.00     0.053 A 
HETATM    5  C   UNL     1     -45.164  59.670 -52.565  1.00  0.00     0.047 A 
HETATM    6 BR   UNL     1     -45.861  61.011 -51.423  1.00  0.00    -0.048 Br
HETATM    7  C   UNL     1     -44.399  58.625 -52.059  1.00  0.00     0.092 A 
HETATM    8  C   UNL     1     -43.897  57.578 -52.877  1.00  0.00     0.016 A 
HETATM    9  N   UNL     1     -44.948  58.696 -56.161  1.00  0.00    -0.312 N 
HETATM   10  C   UNL     1     -44.155  57.654 -56.624  1.00  0.00     0.060 A 
ENDROOT
BRANCH  10  11
HETATM   11  C   UNL     1     -43.869  57.507 -58.097  1.00  0.00     0.293 C 
BRANCH  11  12
HETATM   12  N   UNL     1     -44.745  56.521 -58.819  1.00  0.00    -0.062 N 
HETATM   13  H   UNL     1     -45.402  56.159 -58.115  1.00  0.00     0.280 HD
HETATM   14  C   UNL     1     -45.547  57.103 -59.970  1.00  0.00     0.261 C 
HETATM   15  C   UNL     1     -46.418  56.005 -60.591  1.00  0.00     0.195 C 
HETATM   16  O   UNL     1     -45.614  54.911 -61.040  1.00  0.00    -0.388 OA
HETATM   17  C   UNL     1     -44.880  54.306 -59.972  1.00  0.00     0.195 C 
HETATM   18  C   UNL     1     -43.936  55.319 -59.315  1.00  0.00     0.261 C 
ENDBRANCH  11  12
ENDBRANCH  10  11
BRANCH   1  19
HETATM   19  C   UNL     1     -42.594  55.934 -55.536  1.00  0.00     0.296 C 
HETATM   20  O   UNL     1     -42.885  54.774 -55.777  1.00  0.00    -0.259 OA
BRANCH  19  21
HETATM   21  O   UNL     1     -41.316  56.345 -55.269  1.00  0.00    -0.318 OA
BRANCH  21  22
HETATM   22  C   UNL     1     -40.578  55.508 -54.352  1.00  0.00     0.174 C 
HETATM   23  C   UNL     1     -39.975  54.311 -55.068  1.00  0.00     0.034 C 
ENDBRANCH  21  22
ENDBRANCH  19  21
ENDBRANCH   1  19
BRANCH   9  24
HETATM   24  C   UNL     1     -45.679  59.603 -56.970  1.00  0.00     0.040 A 
HETATM   25  C   UNL     1     -46.964  59.260 -57.403  1.00  0.00     0.030 A 
HETATM   26  C   UNL     1     -47.681  60.159 -58.192  1.00  0.00     0.002 A 
HETATM   27  C   UNL     1     -47.116  61.382 -58.549  1.00  0.00     0.000 A 
HETATM   28  C   UNL     1     -45.827  61.713 -58.126  1.00  0.00     0.002 A 
HETATM   29  C   UNL     1     -45.101  60.823 -57.335  1.00  0.00     0.030 A 
ENDBRANCH   9  24
BRANCH   8  30
HETATM   30  C   UNL     1     -43.138  56.421 -52.239  1.00  0.00     0.276 C 
BRANCH  30  31
HETATM   31  N   UNL     1     -43.917  55.166 -51.900  1.00  0.00    -0.075 N 
HETATM   32  H   UNL     1     -44.815  55.280 -52.402  1.00  0.00     0.279 HD
HETATM   33  C   UNL     1     -43.295  53.911 -52.428  1.00  0.00     0.269 C 
HETATM   34  C   UNL     1     -44.235  55.067 -50.441  1.00  0.00     0.269 C 
ENDBRANCH  30  31
ENDBRANCH   8  30
BRANCH   7  35
HETATM   35  O   UNL     1     -44.108  58.602 -50.709  1.00  0.00    -0.359 OA
HETATM   36  H   UNL     1     -43.537  59.382 -50.527  1.00  0.00     0.218 HD
ENDBRANCH   7  35
TORSDOF 9
ENDMDL
MODEL 8
REMARK VINA RESULT:      -6.0      3.334      7.099
REMARK  9 active torsions:
REMARK  status: ('A' for Active; 'I' for Inactive)
REMARK    1  A    between atoms: C_2  and  O_3 
REMARK    2  A    between atoms: O_3  and  C_4 
REMARK    3  A    between atoms: C_4  and  C_5 
REMARK    4  A    between atoms: C_11  and  O_12 
REMARK    5  A    between atoms: C_13  and  C_14 
REMARK    6  A    between atoms: C_14  and  N_15 
REMARK    7  A    between atoms: N_19  and  C_20 
REMARK    8  A    between atoms: C_26  and  C_27 
REMARK    9  A    between atoms: C_27  and  N_28 
ROOT
HETATM    1  C   UNL     1     -42.667  58.467 -52.555  1.00  0.00     0.077 A 
HETATM    2  C   UNL     1     -43.810  59.322 -52.887  1.00  0.00     0.020 A 
HETATM    3  C   UNL     1     -43.886  59.335 -54.287  1.00  0.00     0.053 A 
HETATM    4  C   UNL     1     -44.820  60.119 -54.992  1.00  0.00     0.053 A 
HETATM    5  C   UNL     1     -45.642  60.976 -54.280  1.00  0.00     0.047 A 
HETATM    6 BR   UNL     1     -46.826  62.106 -55.234  1.00  0.00    -0.048 Br
HETATM    7  C   UNL     1     -45.597  60.995 -52.891  1.00  0.00     0.092 A 
HETATM    8  C   UNL     1     -44.755  60.131 -52.141  1.00  0.00     0.016 A 
HETATM    9  N   UNL     1     -42.942  58.451 -54.793  1.00  0.00    -0.312 N 
HETATM   10  C   UNL     1     -42.165  57.943 -53.760  1.00  0.00     0.060 A 
ENDROOT
BRANCH  10  11
HETATM   11  C   UNL     1     -40.903  57.173 -54.059  1.00  0.00     0.293 C 
BRANCH  11  12
HETATM   12  N   UNL     1     -40.972  55.701 -53.762  1.00  0.00    -0.062 N 
HETATM   13  H   UNL     1     -40.433  55.562 -52.898  1.00  0.00     0.280 HD
HETATM   14  C   UNL     1     -42.374  55.158 -53.548  1.00  0.00     0.261 C 
HETATM   15  C   UNL     1     -42.296  53.662 -53.222  1.00  0.00     0.195 C 
HETATM   16  O   UNL     1     -41.634  52.946 -54.268  1.00  0.00    -0.388 OA
HETATM   17  C   UNL     1     -40.291  53.399 -54.466  1.00  0.00     0.195 C 
HETATM   18  C   UNL     1     -40.267  54.883 -54.848  1.00  0.00     0.261 C 
ENDBRANCH  11  12
ENDBRANCH  10  11
BRANCH   1  19
HETATM   19  C   UNL     1     -42.076  58.276 -51.218  1.00  0.00     0.296 C 
HETATM   20  O   UNL     1     -41.405  59.128 -50.658  1.00  0.00    -0.259 OA
BRANCH  19  21
HETATM   21  O   UNL     1     -42.349  57.054 -50.663  1.00  0.00    -0.318 OA
BRANCH  21  22
HETATM   22  C   UNL     1     -41.205  56.350 -50.132  1.00  0.00     0.174 C 
HETATM   23  C   UNL     1     -41.582  54.945 -49.695  1.00  0.00     0.034 C 
ENDBRANCH  21  22
ENDBRANCH  19  21
ENDBRANCH   1  19
BRANCH   9  24
HETATM   24  C   UNL     1     -42.754  58.192 -56.174  1.00  0.00     0.040 A 
HETATM   25  C   UNL     1     -42.095  59.136 -56.969  1.00  0.00     0.030 A 
HETATM   26  C   UNL     1     -41.906  58.873 -58.325  1.00  0.00     0.002 A 
HETATM   27  C   UNL     1     -42.378  57.684 -58.880  1.00  0.00     0.000 A 
HETATM   28  C   UNL     1     -43.048  56.753 -58.085  1.00  0.00     0.002 A 
HETATM   29  C   UNL     1     -43.241  57.003 -56.727  1.00  0.00     0.030 A 
ENDBRANCH   9  24
BRANCH   8  30
HETATM   30  C   UNL     1     -44.821  60.149 -50.619  1.00  0.00     0.276 C 
BRANCH  30  31
HETATM   31  N   UNL     1     -44.544  61.462 -49.915  1.00  0.00    -0.075 N 
HETATM   32  H   UNL     1     -45.266  62.106 -50.282  1.00  0.00     0.279 HD
HETATM   33  C   UNL     1     -44.744  61.405 -48.433  1.00  0.00     0.269 C 
HETATM   34  C   UNL     1     -43.211  62.037 -50.283  1.00  0.00     0.269 C 
ENDBRANCH  30  31
ENDBRANCH   8  30
BRANCH   7  35
HETATM   35  O   UNL     1     -46.396  61.890 -52.208  1.00  0.00    -0.359 OA
HETATM   36  H   UNL     1     -46.680  62.572 -52.858  1.00  0.00     0.218 HD
ENDBRANCH   7  35
TORSDOF 9
ENDMDL
MODEL 9
REMARK VINA RESULT:      -5.9      2.337      6.589
REMARK  9 active torsions:
REMARK  status: ('A' for Active; 'I' for Inactive)
REMARK    1  A    between atoms: C_2  and  O_3 
REMARK    2  A    between atoms: O_3  and  C_4 
REMARK    3  A    between atoms: C_4  and  C_5 
REMARK    4  A    between atoms: C_11  and  O_12 
REMARK    5  A    between atoms: C_13  and  C_14 
REMARK    6  A    between atoms: C_14  and  N_15 
REMARK    7  A    between atoms: N_19  and  C_20 
REMARK    8  A    between atoms: C_26  and  C_27 
REMARK    9  A    between atoms: C_27  and  N_28 
ROOT
HETATM    1  C   UNL     1     -43.439  59.020 -54.612  1.00  0.00     0.077 A 
HETATM    2  C   UNL     1     -42.610  57.886 -54.195  1.00  0.00     0.020 A 
HETATM    3  C   UNL     1     -42.367  57.139 -55.356  1.00  0.00     0.053 A 
HETATM    4  C   UNL     1     -41.663  55.920 -55.344  1.00  0.00     0.053 A 
HETATM    5  C   UNL     1     -41.267  55.391 -54.127  1.00  0.00     0.047 A 
HETATM    6 BR   UNL     1     -40.412  53.701 -54.101  1.00  0.00    -0.048 Br
HETATM    7  C   UNL     1     -41.491  56.099 -52.952  1.00  0.00     0.092 A 
HETATM    8  C   UNL     1     -42.088  57.388 -52.937  1.00  0.00     0.016 A 
HETATM    9  N   UNL     1     -42.894  57.823 -56.443  1.00  0.00    -0.312 N 
HETATM   10  C   UNL     1     -43.584  58.948 -56.010  1.00  0.00     0.060 A 
ENDROOT
BRANCH  10  11
HETATM   11  C   UNL     1     -44.472  59.714 -56.957  1.00  0.00     0.293 C 
BRANCH  11  12
HETATM   12  N   UNL     1     -43.865  60.966 -57.525  1.00  0.00    -0.062 N 
HETATM   13  H   UNL     1     -44.428  61.744 -57.158  1.00  0.00     0.280 HD
HETATM   14  C   UNL     1     -42.413  61.200 -57.145  1.00  0.00     0.261 C 
HETATM   15  C   UNL     1     -41.933  62.521 -57.759  1.00  0.00     0.195 C 
HETATM   16  O   UNL     1     -42.085  62.507 -59.181  1.00  0.00    -0.388 OA
HETATM   17  C   UNL     1     -43.449  62.336 -59.576  1.00  0.00     0.195 C 
HETATM   18  C   UNL     1     -44.009  61.010 -59.050  1.00  0.00     0.261 C 
ENDBRANCH  11  12
ENDBRANCH  10  11
BRANCH   1  19
HETATM   19  C   UNL     1     -44.097  59.997 -53.726  1.00  0.00     0.296 C 
HETATM   20  O   UNL     1     -43.549  61.013 -53.331  1.00  0.00    -0.259 OA
BRANCH  19  21
HETATM   21  O   UNL     1     -45.380  59.658 -53.386  1.00  0.00    -0.318 OA
BRANCH  21  22
HETATM   22  C   UNL     1     -45.819  60.126 -52.092  1.00  0.00     0.174 C 
HETATM   23  C   UNL     1     -46.935  61.147 -52.228  1.00  0.00     0.034 C 
ENDBRANCH  21  22
ENDBRANCH  19  21
ENDBRANCH   1  19
BRANCH   9  24
HETATM   24  C   UNL     1     -42.810  57.370 -57.784  1.00  0.00     0.040 A 
HETATM   25  C   UNL     1     -43.641  56.330 -58.214  1.00  0.00     0.030 A 
HETATM   26  C   UNL     1     -43.560  55.894 -59.537  1.00  0.00     0.002 A 
HETATM   27  C   UNL     1     -42.653  56.486 -60.415  1.00  0.00     0.000 A 
HETATM   28  C   UNL     1     -41.817  57.514 -59.976  1.00  0.00     0.002 A 
HETATM   29  C   UNL     1     -41.890  57.961 -58.657  1.00  0.00     0.030 A 
ENDBRANCH   9  24
BRANCH   8  30
HETATM   30  C   UNL     1     -42.224  58.140 -51.618  1.00  0.00     0.276 C 
BRANCH  30  31
HETATM   31  N   UNL     1     -41.405  59.401 -51.436  1.00  0.00    -0.075 N 
HETATM   32  H   UNL     1     -41.571  59.941 -52.303  1.00  0.00     0.279 HD
HETATM   33  C   UNL     1     -41.871  60.264 -50.305  1.00  0.00     0.269 C 
HETATM   34  C   UNL     1     -39.935  59.123 -51.364  1.00  0.00     0.269 C 
ENDBRANCH  30  31
ENDBRANCH   8  30
BRANCH   7  35
HETATM   35  O   UNL     1     -41.125  55.530 -51.749  1.00  0.00    -0.359 OA
HETATM   36  H   UNL     1     -41.114  56.254 -51.082  1.00  0.00     0.218 HD
ENDBRANCH   7  35
TORSDOF 9
ENDMDL
MODEL 10
REMARK VINA RESULT:      -5.9      3.415      6.949
REMARK  9 active torsions:
REMARK  status: ('A' for Active; 'I' for Inactive)
REMARK    1  A    between atoms: C_2  and  O_3 
REMARK    2  A    between atoms: O_3  and  C_4 
REMARK    3  A    between atoms: C_4  and  C_5 
REMARK    4  A    between atoms: C_11  and  O_12 
REMARK    5  A    between atoms: C_13  and  C_14 
REMARK    6  A    between atoms: C_14  and  N_15 
REMARK    7  A    between atoms: N_19  and  C_20 
REMARK    8  A    between atoms: C_26  and  C_27 
REMARK    9  A    between atoms: C_27  and  N_28 
ROOT
HETATM    1  C   UNL     1     -43.524  58.028 -53.215  1.00  0.00     0.077 A 
HETATM    2  C   UNL     1     -43.542  59.447 -53.580  1.00  0.00     0.020 A 
HETATM    3  C   UNL     1     -43.638  59.482 -54.978  1.00  0.00     0.053 A 
HETATM    4  C   UNL     1     -43.604  60.683 -55.714  1.00  0.00     0.053 A 
HETATM    5  C   UNL     1     -43.381  61.871 -55.039  1.00  0.00     0.047 A 
HETATM    6 BR   UNL     1     -43.232  63.474 -56.038  1.00  0.00    -0.048 Br
HETATM    7  C   UNL     1     -43.279  61.879 -53.653  1.00  0.00     0.092 A 
HETATM    8  C   UNL     1     -43.430  60.705 -52.868  1.00  0.00     0.016 A 
HETATM    9  N   UNL     1     -43.799  58.186 -55.447  1.00  0.00    -0.312 N 
HETATM   10  C   UNL     1     -43.693  57.283 -54.396  1.00  0.00     0.060 A 
ENDROOT
BRANCH  10  11
HETATM   11  C   UNL     1     -43.564  55.806 -54.666  1.00  0.00     0.293 C 
BRANCH  11  12
HETATM   12  N   UNL     1     -42.247  55.200 -54.270  1.00  0.00    -0.062 N 
HETATM   13  H   UNL     1     -41.701  55.963 -53.848  1.00  0.00     0.280 HD
HETATM   14  C   UNL     1     -42.342  54.064 -53.267  1.00  0.00     0.261 C 
HETATM   15  C   UNL     1     -40.933  53.565 -52.927  1.00  0.00     0.195 C 
HETATM   16  O   UNL     1     -40.245  53.139 -54.105  1.00  0.00    -0.388 OA
HETATM   17  C   UNL     1     -40.093  54.199 -55.054  1.00  0.00     0.195 C 
HETATM   18  C   UNL     1     -41.459  54.734 -55.498  1.00  0.00     0.261 C 
ENDBRANCH  11  12
ENDBRANCH  10  11
BRANCH   1  19
HETATM   19  C   UNL     1     -43.263  57.472 -51.875  1.00  0.00     0.296 C 
HETATM   20  O   UNL     1     -44.127  57.361 -51.020  1.00  0.00    -0.259 OA
BRANCH  19  21
HETATM   21  O   UNL     1     -41.962  57.093 -51.677  1.00  0.00    -0.318 OA
BRANCH  21  22
HETATM   22  C   UNL     1     -41.237  57.867 -50.695  1.00  0.00     0.174 C 
HETATM   23  C   UNL     1     -40.248  58.807 -51.361  1.00  0.00     0.034 C 
ENDBRANCH  21  22
ENDBRANCH  19  21
ENDBRANCH   1  19
BRANCH   9  24
HETATM   24  C   UNL     1     -43.953  57.848 -56.815  1.00  0.00     0.040 A 
HETATM   25  C   UNL     1     -45.230  57.851 -57.387  1.00  0.00     0.030 A 
HETATM   26  C   UNL     1     -45.375  57.525 -58.735  1.00  0.00     0.002 A 
HETATM   27  C   UNL     1     -44.257  57.192 -59.499  1.00  0.00     0.000 A 
HETATM   28  C   UNL     1     -42.987  57.177 -58.920  1.00  0.00     0.002 A 
HETATM   29  C   UNL     1     -42.829  57.503 -57.573  1.00  0.00     0.030 A 
ENDBRANCH   9  24
BRANCH   8  30
HETATM   30  C   UNL     1     -43.389  60.805 -51.348  1.00  0.00     0.276 C 
BRANCH  30  31
HETATM   31  N   UNL     1     -44.546  61.494 -50.654  1.00  0.00    -0.075 N 
HETATM   32  H   UNL     1     -44.988  62.063 -51.397  1.00  0.00     0.279 HD
HETATM   33  C   UNL     1     -45.600  60.552 -50.161  1.00  0.00     0.269 C 
HETATM   34  C   UNL     1     -44.090  62.439 -49.585  1.00  0.00     0.269 C 
ENDBRANCH  30  31
ENDBRANCH   8  30
BRANCH   7  35
HETATM   35  O   UNL     1     -43.014  63.071 -53.009  1.00  0.00    -0.359 OA
HETATM   36  H   UNL     1     -43.875  63.413 -52.675  1.00  0.00     0.218 HD
ENDBRANCH   7  35
TORSDOF 9
ENDMDL
