MODEL 1
REMARK VINA RESULT:      -8.6      0.000      0.000
REMARK  4 active torsions:
REMARK  status: ('A' for Active; 'I' for Inactive)
REMARK    1  A    between atoms: C_2  and  C_3 
REMARK    2  A    between atoms: C_4  and  N_5 
REMARK       I    between atoms: N_5  and  C_6 
REMARK    3  A    between atoms: C_6  and  C_7 
REMARK    4  A    between atoms: C_19  and  C_20 
ROOT
HETATM    1  N   UNL     1     -40.923  55.003 -52.538  1.00  0.00    -0.321 N 
HETATM    2  C   UNL     1     -42.214  55.322 -52.136  1.00  0.00     0.277 C 
HETATM    3  O   UNL     1     -43.150  54.550 -52.000  1.00  0.00    -0.266 OA
HETATM    4  H   UNL     1     -40.246  55.680 -52.209  1.00  0.00     0.169 HD
ENDROOT
BRANCH   2   5
HETATM    5  C   UNL     1     -42.360  56.803 -51.761  1.00  0.00     0.156 A 
HETATM    6  N   UNL     1     -41.625  57.196 -50.756  1.00  0.00    -0.166 NA
HETATM    7  N   UNL     1     -41.735  58.486 -50.341  1.00  0.00    -0.242 N 
HETATM    8  C   UNL     1     -42.589  59.431 -50.857  1.00  0.00     0.272 A 
HETATM    9  H   UNL     1     -41.173  58.764 -49.541  1.00  0.00     0.192 HD
HETATM   10  O   UNL     1     -42.664  60.564 -50.396  1.00  0.00    -0.266 OA
HETATM   11  C   UNL     1     -43.402  59.009 -52.010  1.00  0.00     0.046 A 
HETATM   12  C   UNL     1     -43.282  57.704 -52.492  1.00  0.00     0.016 A 
HETATM   13  C   UNL     1     -44.269  59.925 -52.619  1.00  0.00     0.018 A 
HETATM   14  C   UNL     1     -44.020  57.331 -53.621  1.00  0.00     0.015 A 
HETATM   15  C   UNL     1     -44.886  58.245 -54.232  1.00  0.00     0.001 A 
HETATM   16  C   UNL     1     -45.015  59.538 -53.730  1.00  0.00     0.001 A 
ENDBRANCH   2   5
BRANCH   1  17
HETATM   17  C   UNL     1     -40.523  53.669 -52.752  1.00  0.00     0.049 A 
HETATM   18  C   UNL     1     -40.381  53.227 -54.099  1.00  0.00    -0.031 A 
HETATM   19  C   UNL     1     -40.029  51.895 -54.360  1.00  0.00     0.011 A 
HETATM   20  C   UNL     1     -39.796  51.014 -53.318  1.00  0.00     0.025 A 
HETATM   21  C   UNL     1     -39.882  51.459 -51.999  1.00  0.00     0.042 A 
HETATM   22  C   UNL     1     -40.226  52.800 -51.670  1.00  0.00    -0.009 A 
HETATM   23 CL   UNL     1     -39.560  50.257 -50.783  1.00  0.00    -0.084 Cl
BRANCH  18  24
HETATM   24  C   UNL     1     -40.448  54.156 -55.298  1.00  0.00     0.036 C 
HETATM   25  C   UNL     1     -41.889  54.499 -55.655  1.00  0.00     0.010 C 
ENDBRANCH  18  24
BRANCH  22  26
HETATM   26  C   UNL     1     -40.318  53.115 -50.182  1.00  0.00     0.038 C 
HETATM   27  C   UNL     1     -39.572  54.260 -49.519  1.00  0.00     0.010 C 
ENDBRANCH  22  26
ENDBRANCH   1  17
TORSDOF 4
ENDMDL
MODEL 2
REMARK VINA RESULT:      -8.5      2.905      4.141
REMARK  4 active torsions:
REMARK  status: ('A' for Active; 'I' for Inactive)
REMARK    1  A    between atoms: C_2  and  C_3 
REMARK    2  A    between atoms: C_4  and  N_5 
REMARK       I    between atoms: N_5  and  C_6 
REMARK    3  A    between atoms: C_6  and  C_7 
REMARK    4  A    between atoms: C_19  and  C_20 
ROOT
HETATM    1  N   UNL     1     -41.045  54.455 -53.992  1.00  0.00    -0.321 N 
HETATM    2  C   UNL     1     -42.363  54.730 -54.332  1.00  0.00     0.277 C 
HETATM    3  O   UNL     1     -43.365  54.328 -53.761  1.00  0.00    -0.266 OA
HETATM    4  H   UNL     1     -40.411  55.171 -54.324  1.00  0.00     0.169 HD
ENDROOT
BRANCH   2   5
HETATM    5  C   UNL     1     -42.472  55.717 -55.502  1.00  0.00     0.156 A 
HETATM    6  N   UNL     1     -42.664  55.171 -56.672  1.00  0.00    -0.166 NA
HETATM    7  N   UNL     1     -42.728  55.983 -57.761  1.00  0.00    -0.242 N 
HETATM    8  C   UNL     1     -42.569  57.347 -57.762  1.00  0.00     0.272 A 
HETATM    9  H   UNL     1     -42.852  55.535 -58.665  1.00  0.00     0.192 HD
HETATM   10  O   UNL     1     -42.594  58.007 -58.795  1.00  0.00    -0.266 OA
HETATM   11  C   UNL     1     -42.381  57.978 -56.445  1.00  0.00     0.046 A 
HETATM   12  C   UNL     1     -42.355  57.181 -55.300  1.00  0.00     0.016 A 
HETATM   13  C   UNL     1     -42.251  59.371 -56.356  1.00  0.00     0.018 A 
HETATM   14  C   UNL     1     -42.230  57.797 -54.049  1.00  0.00     0.015 A 
HETATM   15  C   UNL     1     -42.101  59.187 -53.957  1.00  0.00     0.001 A 
HETATM   16  C   UNL     1     -42.106  59.973 -55.108  1.00  0.00     0.001 A 
ENDBRANCH   2   5
BRANCH   1  17
HETATM   17  C   UNL     1     -40.717  53.719 -52.836  1.00  0.00     0.049 A 
HETATM   18  C   UNL     1     -40.292  52.370 -53.006  1.00  0.00    -0.031 A 
HETATM   19  C   UNL     1     -39.999  51.586 -51.881  1.00  0.00     0.011 A 
HETATM   20  C   UNL     1     -40.097  52.121 -50.608  1.00  0.00     0.025 A 
HETATM   21  C   UNL     1     -40.460  53.457 -50.443  1.00  0.00     0.042 A 
HETATM   22  C   UNL     1     -40.761  54.306 -51.544  1.00  0.00    -0.009 A 
HETATM   23 CL   UNL     1     -40.541  54.010 -48.795  1.00  0.00    -0.084 Cl
BRANCH  18  24
HETATM   24  C   UNL     1     -39.992  51.751 -54.359  1.00  0.00     0.036 C 
HETATM   25  C   UNL     1     -39.883  50.234 -54.264  1.00  0.00     0.010 C 
ENDBRANCH  18  24
BRANCH  22  26
HETATM   26  C   UNL     1     -41.183  55.728 -51.191  1.00  0.00     0.038 C 
HETATM   27  C   UNL     1     -42.602  56.111 -50.810  1.00  0.00     0.010 C 
ENDBRANCH  22  26
ENDBRANCH   1  17
TORSDOF 4
ENDMDL
MODEL 3
REMARK VINA RESULT:      -8.0      3.184      4.374
REMARK  4 active torsions:
REMARK  status: ('A' for Active; 'I' for Inactive)
REMARK    1  A    between atoms: C_2  and  C_3 
REMARK    2  A    between atoms: C_4  and  N_5 
REMARK       I    between atoms: N_5  and  C_6 
REMARK    3  A    between atoms: C_6  and  C_7 
REMARK    4  A    between atoms: C_19  and  C_20 
ROOT
HETATM    1  N   UNL     1     -41.074  55.661 -53.807  1.00  0.00    -0.321 N 
HETATM    2  C   UNL     1     -42.338  55.944 -54.309  1.00  0.00     0.277 C 
HETATM    3  O   UNL     1     -43.396  55.451 -53.949  1.00  0.00    -0.266 OA
HETATM    4  H   UNL     1     -40.429  56.428 -53.951  1.00  0.00     0.169 HD
ENDROOT
BRANCH   2   5
HETATM    5  C   UNL     1     -42.314  57.064 -55.357  1.00  0.00     0.156 A 
HETATM    6  N   UNL     1     -41.994  58.245 -54.900  1.00  0.00    -0.166 NA
HETATM    7  N   UNL     1     -41.993  59.294 -55.765  1.00  0.00    -0.242 N 
HETATM    8  C   UNL     1     -42.341  59.247 -57.093  1.00  0.00     0.272 A 
HETATM    9  H   UNL     1     -41.766  60.208 -55.383  1.00  0.00     0.192 HD
HETATM   10  O   UNL     1     -42.360  60.248 -57.799  1.00  0.00    -0.266 OA
HETATM   11  C   UNL     1     -42.675  57.916 -57.628  1.00  0.00     0.046 A 
HETATM   12  C   UNL     1     -42.642  56.808 -56.780  1.00  0.00     0.016 A 
HETATM   13  C   UNL     1     -43.002  57.776 -58.983  1.00  0.00     0.018 A 
HETATM   14  C   UNL     1     -42.910  55.541 -57.311  1.00  0.00     0.015 A 
HETATM   15  C   UNL     1     -43.236  55.399 -58.665  1.00  0.00     0.001 A 
HETATM   16  C   UNL     1     -43.287  56.514 -59.499  1.00  0.00     0.001 A 
ENDBRANCH   2   5
BRANCH   1  17
HETATM   17  C   UNL     1     -40.891  54.798 -52.709  1.00  0.00     0.049 A 
HETATM   18  C   UNL     1     -40.581  53.434 -52.982  1.00  0.00    -0.031 A 
HETATM   19  C   UNL     1     -40.434  52.528 -51.921  1.00  0.00     0.011 A 
HETATM   20  C   UNL     1     -40.566  52.955 -50.611  1.00  0.00     0.025 A 
HETATM   21  C   UNL     1     -40.816  54.300 -50.340  1.00  0.00     0.042 A 
HETATM   22  C   UNL     1     -40.966  55.269 -51.372  1.00  0.00    -0.009 A 
HETATM   23 CL   UNL     1     -40.952  54.709 -48.655  1.00  0.00    -0.084 Cl
BRANCH  18  24
HETATM   24  C   UNL     1     -40.251  52.911 -54.368  1.00  0.00     0.036 C 
HETATM   25  C   UNL     1     -40.214  51.388 -54.393  1.00  0.00     0.010 C 
ENDBRANCH  18  24
BRANCH  22  26
HETATM   26  C   UNL     1     -41.278  56.688 -50.910  1.00  0.00     0.038 C 
HETATM   27  C   UNL     1     -42.661  57.309 -50.990  1.00  0.00     0.010 C 
ENDBRANCH  22  26
ENDBRANCH   1  17
TORSDOF 4
ENDMDL
MODEL 4
REMARK VINA RESULT:      -8.0      3.281      6.606
REMARK  4 active torsions:
REMARK  status: ('A' for Active; 'I' for Inactive)
REMARK    1  A    between atoms: C_2  and  C_3 
REMARK    2  A    between atoms: C_4  and  N_5 
REMARK       I    between atoms: N_5  and  C_6 
REMARK    3  A    between atoms: C_6  and  C_7 
REMARK    4  A    between atoms: C_19  and  C_20 
ROOT
HETATM    1  N   UNL     1     -42.653  55.382 -54.090  1.00  0.00    -0.321 N 
HETATM    2  C   UNL     1     -41.306  55.498 -53.771  1.00  0.00     0.277 C 
HETATM    3  O   UNL     1     -40.583  56.458 -53.986  1.00  0.00    -0.266 OA
HETATM    4  H   UNL     1     -43.127  54.714 -53.495  1.00  0.00     0.169 HD
ENDROOT
BRANCH   2   5
HETATM    5  C   UNL     1     -40.783  54.283 -52.992  1.00  0.00     0.156 A 
HETATM    6  N   UNL     1     -40.352  53.296 -53.729  1.00  0.00    -0.166 NA
HETATM    7  N   UNL     1     -39.912  52.169 -53.107  1.00  0.00    -0.242 N 
HETATM    8  C   UNL     1     -39.912  51.942 -51.753  1.00  0.00     0.272 A 
HETATM    9  H   UNL     1     -39.605  51.404 -53.700  1.00  0.00     0.192 HD
HETATM   10  O   UNL     1     -39.542  50.879 -51.268  1.00  0.00    -0.266 OA
HETATM   11  C   UNL     1     -40.368  53.059 -50.908  1.00  0.00     0.046 A 
HETATM   12  C   UNL     1     -40.784  54.248 -51.510  1.00  0.00     0.016 A 
HETATM   13  C   UNL     1     -40.360  52.923 -49.514  1.00  0.00     0.018 A 
HETATM   14  C   UNL     1     -41.165  55.321 -50.696  1.00  0.00     0.015 A 
HETATM   15  C   UNL     1     -41.157  55.188 -49.303  1.00  0.00     0.001 A 
HETATM   16  C   UNL     1     -40.761  53.989 -48.712  1.00  0.00     0.001 A 
ENDBRANCH   2   5
BRANCH   1  17
HETATM   17  C   UNL     1     -43.378  56.457 -54.641  1.00  0.00     0.049 A 
HETATM   18  C   UNL     1     -43.442  56.555 -56.061  1.00  0.00    -0.031 A 
HETATM   19  C   UNL     1     -44.114  57.633 -56.655  1.00  0.00     0.011 A 
HETATM   20  C   UNL     1     -44.734  58.590 -55.870  1.00  0.00     0.025 A 
HETATM   21  C   UNL     1     -44.719  58.467 -54.481  1.00  0.00     0.042 A 
HETATM   22  C   UNL     1     -44.062  57.391 -53.820  1.00  0.00    -0.009 A 
HETATM   23 CL   UNL     1     -45.540  59.729 -53.611  1.00  0.00    -0.084 Cl
BRANCH  18  24
HETATM   24  C   UNL     1     -42.942  55.470 -56.999  1.00  0.00     0.036 C 
HETATM   25  C   UNL     1     -43.318  55.771 -58.445  1.00  0.00     0.010 C 
ENDBRANCH  18  24
BRANCH  22  26
HETATM   26  C   UNL     1     -44.101  57.425 -52.297  1.00  0.00     0.038 C 
HETATM   27  C   UNL     1     -43.123  58.222 -51.451  1.00  0.00     0.010 C 
ENDBRANCH  22  26
ENDBRANCH   1  17
TORSDOF 4
ENDMDL
MODEL 5
REMARK VINA RESULT:      -7.9      2.071      3.782
REMARK  4 active torsions:
REMARK  status: ('A' for Active; 'I' for Inactive)
REMARK    1  A    between atoms: C_2  and  C_3 
REMARK    2  A    between atoms: C_4  and  N_5 
REMARK       I    between atoms: N_5  and  C_6 
REMARK    3  A    between atoms: C_6  and  C_7 
REMARK    4  A    between atoms: C_19  and  C_20 
ROOT
HETATM    1  N   UNL     1     -42.270  55.508 -52.028  1.00  0.00    -0.321 N 
HETATM    2  C   UNL     1     -41.839  56.704 -52.589  1.00  0.00     0.277 C 
HETATM    3  O   UNL     1     -40.730  56.941 -53.042  1.00  0.00    -0.266 OA
HETATM    4  H   UNL     1     -43.275  55.402 -52.089  1.00  0.00     0.169 HD
ENDROOT
BRANCH   2   5
HETATM    5  C   UNL     1     -42.964  57.743 -52.688  1.00  0.00     0.156 A 
HETATM    6  N   UNL     1     -43.920  57.447 -53.528  1.00  0.00    -0.166 NA
HETATM    7  N   UNL     1     -44.929  58.342 -53.699  1.00  0.00    -0.242 N 
HETATM    8  C   UNL     1     -45.030  59.571 -53.095  1.00  0.00     0.272 A 
HETATM    9  H   UNL     1     -45.648  58.104 -54.376  1.00  0.00     0.192 HD
HETATM   10  O   UNL     1     -45.949  60.345 -53.336  1.00  0.00    -0.266 OA
HETATM   11  C   UNL     1     -43.974  59.904 -52.123  1.00  0.00     0.046 A 
HETATM   12  C   UNL     1     -42.946  58.990 -51.888  1.00  0.00     0.016 A 
HETATM   13  C   UNL     1     -44.025  61.123 -51.434  1.00  0.00     0.018 A 
HETATM   14  C   UNL     1     -41.978  59.294 -50.923  1.00  0.00     0.015 A 
HETATM   15  C   UNL     1     -42.027  60.510 -50.233  1.00  0.00     0.001 A 
HETATM   16  C   UNL     1     -43.046  61.426 -50.490  1.00  0.00     0.001 A 
ENDBRANCH   2   5
BRANCH   1  17
HETATM   17  C   UNL     1     -41.451  54.362 -52.009  1.00  0.00     0.049 A 
HETATM   18  C   UNL     1     -40.755  54.063 -50.803  1.00  0.00    -0.031 A 
HETATM   19  C   UNL     1     -39.894  52.958 -50.752  1.00  0.00     0.011 A 
HETATM   20  C   UNL     1     -39.733  52.143 -51.859  1.00  0.00     0.025 A 
HETATM   21  C   UNL     1     -40.455  52.402 -53.024  1.00  0.00     0.042 A 
HETATM   22  C   UNL     1     -41.351  53.502 -53.134  1.00  0.00    -0.009 A 
HETATM   23 CL   UNL     1     -40.169  51.301 -54.340  1.00  0.00    -0.084 Cl
BRANCH  18  24
HETATM   24  C   UNL     1     -40.996  54.794 -49.494  1.00  0.00     0.036 C 
HETATM   25  C   UNL     1     -40.323  54.080 -48.328  1.00  0.00     0.010 C 
ENDBRANCH  18  24
BRANCH  22  26
HETATM   26  C   UNL     1     -42.030  53.672 -54.488  1.00  0.00     0.038 C 
HETATM   27  C   UNL     1     -41.489  54.565 -55.591  1.00  0.00     0.010 C 
ENDBRANCH  22  26
ENDBRANCH   1  17
TORSDOF 4
ENDMDL
MODEL 6
REMARK VINA RESULT:      -7.9      2.888      4.463
REMARK  4 active torsions:
REMARK  status: ('A' for Active; 'I' for Inactive)
REMARK    1  A    between atoms: C_2  and  C_3 
REMARK    2  A    between atoms: C_4  and  N_5 
REMARK       I    between atoms: N_5  and  C_6 
REMARK    3  A    between atoms: C_6  and  C_7 
REMARK    4  A    between atoms: C_19  and  C_20 
ROOT
HETATM    1  N   UNL     1     -41.046  54.825 -54.013  1.00  0.00    -0.321 N 
HETATM    2  C   UNL     1     -42.339  54.912 -54.512  1.00  0.00     0.277 C 
HETATM    3  O   UNL     1     -43.337  54.375 -54.056  1.00  0.00    -0.266 OA
HETATM    4  H   UNL     1     -40.482  55.622 -54.282  1.00  0.00     0.169 HD
ENDROOT
BRANCH   2   5
HETATM    5  C   UNL     1     -42.443  55.870 -55.706  1.00  0.00     0.156 A 
HETATM    6  N   UNL     1     -42.604  55.294 -56.867  1.00  0.00    -0.166 NA
HETATM    7  N   UNL     1     -42.662  56.079 -57.976  1.00  0.00    -0.242 N 
HETATM    8  C   UNL     1     -42.526  57.446 -58.005  1.00  0.00     0.272 A 
HETATM    9  H   UNL     1     -42.762  55.609 -58.871  1.00  0.00     0.192 HD
HETATM   10  O   UNL     1     -42.543  58.081 -59.053  1.00  0.00    -0.266 OA
HETATM   11  C   UNL     1     -42.373  58.110 -56.700  1.00  0.00     0.046 A 
HETATM   12  C   UNL     1     -42.355  57.340 -55.536  1.00  0.00     0.016 A 
HETATM   13  C   UNL     1     -42.269  59.506 -56.640  1.00  0.00     0.018 A 
HETATM   14  C   UNL     1     -42.264  57.986 -54.298  1.00  0.00     0.015 A 
HETATM   15  C   UNL     1     -42.160  59.380 -54.236  1.00  0.00     0.001 A 
HETATM   16  C   UNL     1     -42.157  60.139 -55.405  1.00  0.00     0.001 A 
ENDBRANCH   2   5
BRANCH   1  17
HETATM   17  C   UNL     1     -40.760  54.147 -52.812  1.00  0.00     0.049 A 
HETATM   18  C   UNL     1     -40.986  54.840 -51.589  1.00  0.00    -0.031 A 
HETATM   19  C   UNL     1     -40.673  54.221 -50.370  1.00  0.00     0.011 A 
HETATM   20  C   UNL     1     -40.167  52.933 -50.347  1.00  0.00     0.025 A 
HETATM   21  C   UNL     1     -39.995  52.233 -51.541  1.00  0.00     0.042 A 
HETATM   22  C   UNL     1     -40.303  52.803 -52.808  1.00  0.00    -0.009 A 
HETATM   23 CL   UNL     1     -39.359  50.622 -51.377  1.00  0.00    -0.084 Cl
BRANCH  18  24
HETATM   24  C   UNL     1     -41.693  56.182 -51.504  1.00  0.00     0.036 C 
HETATM   25  C   UNL     1     -43.064  56.047 -50.854  1.00  0.00     0.010 C 
ENDBRANCH  18  24
BRANCH  22  26
HETATM   26  C   UNL     1     -40.018  51.922 -54.019  1.00  0.00     0.038 C 
HETATM   27  C   UNL     1     -40.852  50.707 -54.386  1.00  0.00     0.010 C 
ENDBRANCH  22  26
ENDBRANCH   1  17
TORSDOF 4
ENDMDL
MODEL 7
REMARK VINA RESULT:      -7.8      1.910      3.477
REMARK  4 active torsions:
REMARK  status: ('A' for Active; 'I' for Inactive)
REMARK    1  A    between atoms: C_2  and  C_3 
REMARK    2  A    between atoms: C_4  and  N_5 
REMARK       I    between atoms: N_5  and  C_6 
REMARK    3  A    between atoms: C_6  and  C_7 
REMARK    4  A    between atoms: C_19  and  C_20 
ROOT
HETATM    1  N   UNL     1     -42.338  55.502 -51.940  1.00  0.00    -0.321 N 
HETATM    2  C   UNL     1     -41.903  56.738 -52.403  1.00  0.00     0.277 C 
HETATM    3  O   UNL     1     -40.763  57.040 -52.720  1.00  0.00    -0.266 OA
HETATM    4  H   UNL     1     -43.324  55.358 -52.116  1.00  0.00     0.169 HD
ENDROOT
BRANCH   2   5
HETATM    5  C   UNL     1     -43.056  57.734 -52.585  1.00  0.00     0.156 A 
HETATM    6  N   UNL     1     -43.445  58.337 -51.494  1.00  0.00    -0.166 NA
HETATM    7  N   UNL     1     -44.491  59.203 -51.573  1.00  0.00    -0.242 N 
HETATM    8  C   UNL     1     -45.223  59.485 -52.700  1.00  0.00     0.272 A 
HETATM    9  H   UNL     1     -44.793  59.642 -50.708  1.00  0.00     0.192 HD
HETATM   10  O   UNL     1     -46.185  60.244 -52.681  1.00  0.00    -0.266 OA
HETATM   11  C   UNL     1     -44.776  58.833 -53.943  1.00  0.00     0.046 A 
HETATM   12  C   UNL     1     -43.677  57.973 -53.909  1.00  0.00     0.016 A 
HETATM   13  C   UNL     1     -45.445  59.099 -55.145  1.00  0.00     0.018 A 
HETATM   14  C   UNL     1     -43.229  57.401 -55.105  1.00  0.00     0.015 A 
HETATM   15  C   UNL     1     -43.895  57.666 -56.307  1.00  0.00     0.001 A 
HETATM   16  C   UNL     1     -45.004  58.509 -56.327  1.00  0.00     0.001 A 
ENDBRANCH   2   5
BRANCH   1  17
HETATM   17  C   UNL     1     -41.475  54.390 -51.876  1.00  0.00     0.049 A 
HETATM   18  C   UNL     1     -40.831  54.121 -50.634  1.00  0.00    -0.031 A 
HETATM   19  C   UNL     1     -39.929  53.052 -50.536  1.00  0.00     0.011 A 
HETATM   20  C   UNL     1     -39.678  52.243 -51.630  1.00  0.00     0.025 A 
HETATM   21  C   UNL     1     -40.349  52.472 -52.832  1.00  0.00     0.042 A 
HETATM   22  C   UNL     1     -41.282  53.535 -52.992  1.00  0.00    -0.009 A 
HETATM   23 CL   UNL     1     -39.950  51.382 -54.128  1.00  0.00    -0.084 Cl
BRANCH  18  24
HETATM   24  C   UNL     1     -41.169  54.843 -49.341  1.00  0.00     0.036 C 
HETATM   25  C   UNL     1     -40.473  54.199 -48.148  1.00  0.00     0.010 C 
ENDBRANCH  18  24
BRANCH  22  26
HETATM   26  C   UNL     1     -41.896  53.675 -54.379  1.00  0.00     0.038 C 
HETATM   27  C   UNL     1     -41.250  54.463 -55.506  1.00  0.00     0.010 C 
ENDBRANCH  22  26
ENDBRANCH   1  17
TORSDOF 4
ENDMDL
MODEL 8
REMARK VINA RESULT:      -7.8      3.404      7.345
REMARK  4 active torsions:
REMARK  status: ('A' for Active; 'I' for Inactive)
REMARK    1  A    between atoms: C_2  and  C_3 
REMARK    2  A    between atoms: C_4  and  N_5 
REMARK       I    between atoms: N_5  and  C_6 
REMARK    3  A    between atoms: C_6  and  C_7 
REMARK    4  A    between atoms: C_19  and  C_20 
ROOT
HETATM    1  N   UNL     1     -42.718  55.445 -54.643  1.00  0.00    -0.321 N 
HETATM    2  C   UNL     1     -41.380  55.538 -54.283  1.00  0.00     0.277 C 
HETATM    3  O   UNL     1     -40.693  56.548 -54.273  1.00  0.00    -0.266 OA
HETATM    4  H   UNL     1     -43.170  54.648 -54.214  1.00  0.00     0.169 HD
ENDROOT
BRANCH   2   5
HETATM    5  C   UNL     1     -40.816  54.204 -53.776  1.00  0.00     0.156 A 
HETATM    6  N   UNL     1     -40.456  53.364 -54.709  1.00  0.00    -0.166 NA
HETATM    7  N   UNL     1     -39.986  52.144 -54.334  1.00  0.00    -0.242 N 
HETATM    8  C   UNL     1     -39.886  51.679 -53.045  1.00  0.00     0.272 A 
HETATM    9  H   UNL     1     -39.736  51.497 -55.076  1.00  0.00     0.192 HD
HETATM   10  O   UNL     1     -39.495  50.546 -52.788  1.00  0.00    -0.266 OA
HETATM   11  C   UNL     1     -40.260  52.628 -51.983  1.00  0.00     0.046 A 
HETATM   12  C   UNL     1     -40.704  53.905 -52.329  1.00  0.00     0.016 A 
HETATM   13  C   UNL     1     -40.148  52.244 -50.640  1.00  0.00     0.018 A 
HETATM   14  C   UNL     1     -41.006  54.815 -51.310  1.00  0.00     0.015 A 
HETATM   15  C   UNL     1     -40.894  54.435 -49.968  1.00  0.00     0.001 A 
HETATM   16  C   UNL     1     -40.471  53.150 -49.632  1.00  0.00     0.001 A 
ENDBRANCH   2   5
BRANCH   1  17
HETATM   17  C   UNL     1     -43.480  56.587 -54.962  1.00  0.00     0.049 A 
HETATM   18  C   UNL     1     -44.181  57.233 -53.904  1.00  0.00    -0.031 A 
HETATM   19  C   UNL     1     -44.988  58.346 -54.182  1.00  0.00     0.011 A 
HETATM   20  C   UNL     1     -45.089  58.834 -55.473  1.00  0.00     0.025 A 
HETATM   21  C   UNL     1     -44.361  58.235 -56.501  1.00  0.00     0.042 A 
HETATM   22  C   UNL     1     -43.518  57.109 -56.281  1.00  0.00    -0.009 A 
HETATM   23 CL   UNL     1     -44.569  58.946 -58.075  1.00  0.00    -0.084 Cl
BRANCH  18  24
HETATM   24  C   UNL     1     -43.999  56.879 -52.438  1.00  0.00     0.036 C 
HETATM   25  C   UNL     1     -43.133  57.908 -51.722  1.00  0.00     0.010 C 
ENDBRANCH  18  24
BRANCH  22  26
HETATM   26  C   UNL     1     -42.825  56.547 -57.517  1.00  0.00     0.038 C 
HETATM   27  C   UNL     1     -43.473  55.546 -58.458  1.00  0.00     0.010 C 
ENDBRANCH  22  26
ENDBRANCH   1  17
TORSDOF 4
ENDMDL
MODEL 9
REMARK VINA RESULT:      -7.8      2.875      4.495
REMARK  4 active torsions:
REMARK  status: ('A' for Active; 'I' for Inactive)
REMARK    1  A    between atoms: C_2  and  C_3 
REMARK    2  A    between atoms: C_4  and  N_5 
REMARK       I    between atoms: N_5  and  C_6 
REMARK    3  A    between atoms: C_6  and  C_7 
REMARK    4  A    between atoms: C_19  and  C_20 
ROOT
HETATM    1  N   UNL     1     -41.072  55.860 -53.210  1.00  0.00    -0.321 N 
HETATM    2  C   UNL     1     -42.295  56.017 -53.851  1.00  0.00     0.277 C 
HETATM    3  O   UNL     1     -43.337  55.435 -53.591  1.00  0.00    -0.266 OA
HETATM    4  H   UNL     1     -40.487  56.680 -53.306  1.00  0.00     0.169 HD
ENDROOT
BRANCH   2   5
HETATM    5  C   UNL     1     -42.258  57.116 -54.921  1.00  0.00     0.156 A 
HETATM    6  N   UNL     1     -41.949  58.307 -54.482  1.00  0.00    -0.166 NA
HETATM    7  N   UNL     1     -41.938  59.339 -55.367  1.00  0.00    -0.242 N 
HETATM    8  C   UNL     1     -42.265  59.264 -56.699  1.00  0.00     0.272 A 
HETATM    9  H   UNL     1     -41.720  60.261 -54.999  1.00  0.00     0.192 HD
HETATM   10  O   UNL     1     -42.278  60.252 -57.425  1.00  0.00    -0.266 OA
HETATM   11  C   UNL     1     -42.587  57.922 -57.213  1.00  0.00     0.046 A 
HETATM   12  C   UNL     1     -42.564  56.831 -56.343  1.00  0.00     0.016 A 
HETATM   13  C   UNL     1     -42.893  57.754 -58.570  1.00  0.00     0.018 A 
HETATM   14  C   UNL     1     -42.819  55.553 -56.853  1.00  0.00     0.015 A 
HETATM   15  C   UNL     1     -43.124  55.383 -58.208  1.00  0.00     0.001 A 
HETATM   16  C   UNL     1     -43.167  56.481 -59.065  1.00  0.00     0.001 A 
ENDBRANCH   2   5
BRANCH   1  17
HETATM   17  C   UNL     1     -40.932  55.036 -52.076  1.00  0.00     0.049 A 
HETATM   18  C   UNL     1     -41.203  55.610 -50.801  1.00  0.00    -0.031 A 
HETATM   19  C   UNL     1     -41.032  54.841 -49.641  1.00  0.00     0.011 A 
HETATM   20  C   UNL     1     -40.624  53.521 -49.729  1.00  0.00     0.025 A 
HETATM   21  C   UNL     1     -40.410  52.942 -50.979  1.00  0.00     0.042 A 
HETATM   22  C   UNL     1     -40.575  53.667 -52.192  1.00  0.00    -0.009 A 
HETATM   23 CL   UNL     1     -39.908  51.276 -50.953  1.00  0.00    -0.084 Cl
BRANCH  18  24
HETATM   24  C   UNL     1     -41.814  56.988 -50.615  1.00  0.00     0.036 C 
HETATM   25  C   UNL     1     -40.740  58.061 -50.494  1.00  0.00     0.010 C 
ENDBRANCH  18  24
BRANCH  22  26
HETATM   26  C   UNL     1     -40.261  52.901 -53.472  1.00  0.00     0.038 C 
HETATM   27  C   UNL     1     -41.325  52.428 -54.448  1.00  0.00     0.010 C 
ENDBRANCH  22  26
ENDBRANCH   1  17
TORSDOF 4
ENDMDL
MODEL 10
REMARK VINA RESULT:      -7.7      3.095      7.312
REMARK  4 active torsions:
REMARK  status: ('A' for Active; 'I' for Inactive)
REMARK    1  A    between atoms: C_2  and  C_3 
REMARK    2  A    between atoms: C_4  and  N_5 
REMARK       I    between atoms: N_5  and  C_6 
REMARK    3  A    between atoms: C_6  and  C_7 
REMARK    4  A    between atoms: C_19  and  C_20 
ROOT
HETATM    1  N   UNL     1     -42.497  57.346 -51.187  1.00  0.00    -0.321 N 
HETATM    2  C   UNL     1     -41.605  56.723 -52.050  1.00  0.00     0.277 C 
HETATM    3  O   UNL     1     -41.056  57.221 -53.021  1.00  0.00    -0.266 OA
HETATM    4  H   UNL     1     -42.511  56.906 -50.276  1.00  0.00     0.169 HD
ENDROOT
BRANCH   2   5
HETATM    5  C   UNL     1     -41.266  55.292 -51.609  1.00  0.00     0.156 A 
HETATM    6  N   UNL     1     -41.377  55.066 -50.328  1.00  0.00    -0.166 NA
HETATM    7  N   UNL     1     -41.052  53.832 -49.859  1.00  0.00    -0.242 N 
HETATM    8  C   UNL     1     -40.570  52.785 -50.607  1.00  0.00     0.272 A 
HETATM    9  H   UNL     1     -41.122  53.685 -48.856  1.00  0.00     0.192 HD
HETATM   10  O   UNL     1     -40.254  51.713 -50.103  1.00  0.00    -0.266 OA
HETATM   11  C   UNL     1     -40.468  53.018 -52.058  1.00  0.00     0.046 A 
HETATM   12  C   UNL     1     -40.836  54.259 -52.581  1.00  0.00     0.016 A 
HETATM   13  C   UNL     1     -40.023  51.987 -52.896  1.00  0.00     0.018 A 
HETATM   14  C   UNL     1     -40.786  54.451 -53.966  1.00  0.00     0.015 A 
HETATM   15  C   UNL     1     -40.342  53.422 -54.805  1.00  0.00     0.001 A 
HETATM   16  C   UNL     1     -39.956  52.194 -54.272  1.00  0.00     0.001 A 
ENDBRANCH   2   5
BRANCH   1  17
HETATM   17  C   UNL     1     -42.802  58.716 -51.301  1.00  0.00     0.049 A 
HETATM   18  C   UNL     1     -42.007  59.637 -50.560  1.00  0.00    -0.031 A 
HETATM   19  C   UNL     1     -42.302  61.007 -50.607  1.00  0.00     0.011 A 
HETATM   20  C   UNL     1     -43.347  61.472 -51.387  1.00  0.00     0.025 A 
HETATM   21  C   UNL     1     -44.092  60.579 -52.155  1.00  0.00     0.042 A 
HETATM   22  C   UNL     1     -43.836  59.179 -52.157  1.00  0.00    -0.009 A 
HETATM   23 CL   UNL     1     -45.372  61.290 -53.096  1.00  0.00    -0.084 Cl
BRANCH  18  24
HETATM   24  C   UNL     1     -40.743  59.243 -49.816  1.00  0.00     0.036 C 
HETATM   25  C   UNL     1     -39.499  59.514 -50.654  1.00  0.00     0.010 C 
ENDBRANCH  18  24
BRANCH  22  26
HETATM   26  C   UNL     1     -44.768  58.334 -53.017  1.00  0.00     0.038 C 
HETATM   27  C   UNL     1     -44.490  57.998 -54.472  1.00  0.00     0.010 C 
ENDBRANCH  22  26
ENDBRANCH   1  17
TORSDOF 4
ENDMDL
