MODEL 1
REMARK VINA RESULT:      -8.4      0.000      0.000
REMARK  6 active torsions:
REMARK  status: ('A' for Active; 'I' for Inactive)
REMARK    1  A    between atoms: C_3  and  C_4 
REMARK    2  A    between atoms: C_4  and  O_5 
REMARK    3  A    between atoms: O_5  and  C_6 
REMARK    4  A    between atoms: C_9  and  C_10 
REMARK       I    between atoms: C_10  and  N_11 
REMARK    5  A    between atoms: N_11  and  N_12 
REMARK       I    between atoms: N_12  and  C_13 
REMARK    6  A    between atoms: C_13  and  C_14 
ROOT
HETATM    1  C   UNL     1     -39.757  49.710 -53.863  1.00  0.00     0.001 A 
HETATM    2  C   UNL     1     -40.038  50.988 -54.349  1.00  0.00     0.011 A 
HETATM    3  C   UNL     1     -40.103  52.095 -53.483  1.00  0.00    -0.013 A 
HETATM    4  C   UNL     1     -39.834  51.891 -52.114  1.00  0.00     0.053 A 
HETATM    5  C   UNL     1     -39.828  52.979 -51.178  1.00  0.00     0.100 C 
HETATM    6  N   UNL     1     -39.820  53.872 -50.437  1.00  0.00    -0.191 NA
HETATM    7  C   UNL     1     -39.556  50.601 -51.634  1.00  0.00     0.023 A 
HETATM    8  C   UNL     1     -39.521  49.514 -52.505  1.00  0.00     0.002 A 
ENDROOT
BRANCH   3   9
HETATM    9  C   UNL     1     -40.392  53.481 -54.033  1.00  0.00     0.216 C 
BRANCH   9  10
HETATM   10  O   UNL     1     -41.773  53.809 -53.850  1.00  0.00    -0.347 OA
BRANCH  10  11
HETATM   11  C   UNL     1     -42.028  54.981 -53.192  1.00  0.00     0.069 A 
HETATM   12  C   UNL     1     -43.071  55.189 -52.290  1.00  0.00     0.038 A 
HETATM   13  C   UNL     1     -43.247  56.448 -51.707  1.00  0.00     0.020 A 
HETATM   14  C   UNL     1     -42.376  57.505 -52.006  1.00  0.00     0.033 A 
HETATM   15  C   UNL     1     -41.316  57.285 -52.892  1.00  0.00     0.020 A 
HETATM   16  C   UNL     1     -41.142  56.024 -53.472  1.00  0.00     0.038 A 
BRANCH  14  17
HETATM   17  C   UNL     1     -42.653  58.836 -51.395  1.00  0.00     0.270 C 
HETATM   18  N   UNL     1     -43.821  58.967 -50.674  1.00  0.00    -0.263 N 
HETATM   19  H   UNL     1     -44.560  58.271 -50.614  1.00  0.00     0.190 HD
HETATM   20  O   UNL     1     -41.867  59.768 -51.543  1.00  0.00    -0.266 OA
BRANCH  18  21
HETATM   21  N   UNL     1     -44.083  60.204 -50.078  1.00  0.00    -0.262 N 
HETATM   22  C   UNL     1     -45.242  60.372 -49.352  1.00  0.00     0.286 C 
HETATM   23  O   UNL     1     -46.087  59.481 -49.265  1.00  0.00    -0.264 OA
HETATM   24  H   UNL     1     -43.356  60.909 -50.159  1.00  0.00     0.190 HD
BRANCH  22  25
HETATM   25  C   UNL     1     -45.391  61.657 -48.706  1.00  0.00     0.102 A 
HETATM   26  N   UNL     1     -46.089  62.686 -49.305  1.00  0.00    -0.361 N 
HETATM   27  H   UNL     1     -46.528  62.611 -50.216  1.00  0.00     0.165 HD
HETATM   28  C   UNL     1     -46.093  63.792 -48.500  1.00  0.00     0.088 A 
HETATM   29  C   UNL     1     -45.394  63.482 -47.357  1.00  0.00     0.019 A 
HETATM   30  C   UNL     1     -44.951  62.142 -47.484  1.00  0.00     0.036 A 
ENDBRANCH  22  25
ENDBRANCH  18  21
ENDBRANCH  14  17
ENDBRANCH  10  11
ENDBRANCH   9  10
ENDBRANCH   3   9
TORSDOF 6
ENDMDL
MODEL 2
REMARK VINA RESULT:      -8.4      2.099      2.648
REMARK  6 active torsions:
REMARK  status: ('A' for Active; 'I' for Inactive)
REMARK    1  A    between atoms: C_3  and  C_4 
REMARK    2  A    between atoms: C_4  and  O_5 
REMARK    3  A    between atoms: O_5  and  C_6 
REMARK    4  A    between atoms: C_9  and  C_10 
REMARK       I    between atoms: C_10  and  N_11 
REMARK    5  A    between atoms: N_11  and  N_12 
REMARK       I    between atoms: N_12  and  C_13 
REMARK    6  A    between atoms: C_13  and  C_14 
ROOT
HETATM    1  C   UNL     1     -39.560  49.476 -52.648  1.00  0.00     0.001 A 
HETATM    2  C   UNL     1     -39.429  50.502 -51.712  1.00  0.00     0.011 A 
HETATM    3  C   UNL     1     -39.652  51.844 -52.070  1.00  0.00    -0.013 A 
HETATM    4  C   UNL     1     -40.055  52.126 -53.392  1.00  0.00     0.053 A 
HETATM    5  C   UNL     1     -40.353  53.463 -53.819  1.00  0.00     0.100 C 
HETATM    6  N   UNL     1     -40.599  54.550 -54.144  1.00  0.00    -0.191 NA
HETATM    7  C   UNL     1     -40.181  51.087 -54.328  1.00  0.00     0.023 A 
HETATM    8  C   UNL     1     -39.931  49.767 -53.958  1.00  0.00     0.002 A 
ENDROOT
BRANCH   3   9
HETATM    9  C   UNL     1     -39.522  52.945 -51.032  1.00  0.00     0.216 C 
BRANCH   9  10
HETATM   10  O   UNL     1     -40.727  53.050 -50.266  1.00  0.00    -0.347 OA
BRANCH  10  11
HETATM   11  C   UNL     1     -41.546  54.101 -50.580  1.00  0.00     0.069 A 
HETATM   12  C   UNL     1     -42.860  53.991 -51.033  1.00  0.00     0.038 A 
HETATM   13  C   UNL     1     -43.585  55.144 -51.355  1.00  0.00     0.020 A 
HETATM   14  C   UNL     1     -43.011  56.414 -51.212  1.00  0.00     0.033 A 
HETATM   15  C   UNL     1     -41.700  56.521 -50.733  1.00  0.00     0.020 A 
HETATM   16  C   UNL     1     -40.980  55.366 -50.410  1.00  0.00     0.038 A 
BRANCH  14  17
HETATM   17  C   UNL     1     -43.816  57.597 -51.626  1.00  0.00     0.270 C 
HETATM   18  N   UNL     1     -43.735  58.724 -50.836  1.00  0.00    -0.263 N 
HETATM   19  H   UNL     1     -43.261  58.783 -49.938  1.00  0.00     0.190 HD
HETATM   20  O   UNL     1     -44.523  57.553 -52.630  1.00  0.00    -0.266 OA
BRANCH  18  21
HETATM   21  N   UNL     1     -44.469  59.848 -51.226  1.00  0.00    -0.262 N 
HETATM   22  C   UNL     1     -45.728  60.047 -50.703  1.00  0.00     0.286 C 
HETATM   23  O   UNL     1     -46.252  59.228 -49.947  1.00  0.00    -0.264 OA
HETATM   24  H   UNL     1     -43.997  60.508 -51.837  1.00  0.00     0.190 HD
BRANCH  22  25
HETATM   25  C   UNL     1     -46.380  61.274 -51.100  1.00  0.00     0.102 A 
HETATM   26  N   UNL     1     -47.253  61.311 -52.168  1.00  0.00    -0.361 N 
HETATM   27  H   UNL     1     -47.484  60.501 -52.732  1.00  0.00     0.165 HD
HETATM   28  C   UNL     1     -47.741  62.577 -52.342  1.00  0.00     0.088 A 
HETATM   29  C   UNL     1     -47.185  63.379 -51.373  1.00  0.00     0.019 A 
HETATM   30  C   UNL     1     -46.329  62.563 -50.592  1.00  0.00     0.036 A 
ENDBRANCH  22  25
ENDBRANCH  18  21
ENDBRANCH  14  17
ENDBRANCH  10  11
ENDBRANCH   9  10
ENDBRANCH   3   9
TORSDOF 6
ENDMDL
MODEL 3
REMARK VINA RESULT:      -7.6      5.744      7.634
REMARK  6 active torsions:
REMARK  status: ('A' for Active; 'I' for Inactive)
REMARK    1  A    between atoms: C_3  and  C_4 
REMARK    2  A    between atoms: C_4  and  O_5 
REMARK    3  A    between atoms: O_5  and  C_6 
REMARK    4  A    between atoms: C_9  and  C_10 
REMARK       I    between atoms: C_10  and  N_11 
REMARK    5  A    between atoms: N_11  and  N_12 
REMARK       I    between atoms: N_12  and  C_13 
REMARK    6  A    between atoms: C_13  and  C_14 
ROOT
HETATM    1  C   UNL     1     -39.696  50.713 -53.886  1.00  0.00     0.001 A 
HETATM    2  C   UNL     1     -40.108  52.046 -53.885  1.00  0.00     0.011 A 
HETATM    3  C   UNL     1     -40.343  52.731 -52.679  1.00  0.00    -0.013 A 
HETATM    4  C   UNL     1     -40.111  52.051 -51.466  1.00  0.00     0.053 A 
HETATM    5  C   UNL     1     -40.277  52.699 -50.195  1.00  0.00     0.100 C 
HETATM    6  N   UNL     1     -40.408  53.242 -49.178  1.00  0.00    -0.191 NA
HETATM    7  C   UNL     1     -39.700  50.709 -51.477  1.00  0.00     0.023 A 
HETATM    8  C   UNL     1     -39.496  50.041 -52.683  1.00  0.00     0.002 A 
ENDROOT
BRANCH   3   9
HETATM    9  C   UNL     1     -40.773  54.188 -52.697  1.00  0.00     0.216 C 
BRANCH   9  10
HETATM   10  O   UNL     1     -42.154  54.293 -53.061  1.00  0.00    -0.347 OA
BRANCH  10  11
HETATM   11  C   UNL     1     -42.412  54.894 -54.263  1.00  0.00     0.069 A 
HETATM   12  C   UNL     1     -42.817  54.235 -55.423  1.00  0.00     0.038 A 
HETATM   13  C   UNL     1     -43.017  54.959 -56.603  1.00  0.00     0.020 A 
HETATM   14  C   UNL     1     -42.829  56.348 -56.631  1.00  0.00     0.033 A 
HETATM   15  C   UNL     1     -42.447  57.009 -55.458  1.00  0.00     0.020 A 
HETATM   16  C   UNL     1     -42.251  56.281 -54.280  1.00  0.00     0.038 A 
BRANCH  14  17
HETATM   17  C   UNL     1     -43.002  57.052 -57.933  1.00  0.00     0.270 C 
HETATM   18  N   UNL     1     -41.976  57.875 -58.346  1.00  0.00    -0.263 N 
HETATM   19  H   UNL     1     -41.164  58.130 -57.791  1.00  0.00     0.190 HD
HETATM   20  O   UNL     1     -44.025  56.898 -58.597  1.00  0.00    -0.266 OA
BRANCH  18  21
HETATM   21  N   UNL     1     -42.117  58.524 -59.576  1.00  0.00    -0.262 N 
HETATM   22  C   UNL     1     -42.525  59.840 -59.602  1.00  0.00     0.286 C 
HETATM   23  O   UNL     1     -42.832  60.444 -58.574  1.00  0.00    -0.264 OA
HETATM   24  H   UNL     1     -41.840  57.999 -60.400  1.00  0.00     0.190 HD
BRANCH  22  25
HETATM   25  C   UNL     1     -42.565  60.453 -60.911  1.00  0.00     0.102 A 
HETATM   26  N   UNL     1     -43.692  60.380 -61.704  1.00  0.00    -0.361 N 
HETATM   27  H   UNL     1     -44.542  59.901 -61.429  1.00  0.00     0.165 HD
HETATM   28  C   UNL     1     -43.486  61.037 -62.887  1.00  0.00     0.088 A 
HETATM   29  C   UNL     1     -42.211  61.550 -62.866  1.00  0.00     0.019 A 
HETATM   30  C   UNL     1     -41.630  61.184 -61.627  1.00  0.00     0.036 A 
ENDBRANCH  22  25
ENDBRANCH  18  21
ENDBRANCH  14  17
ENDBRANCH  10  11
ENDBRANCH   9  10
ENDBRANCH   3   9
TORSDOF 6
ENDMDL
MODEL 4
REMARK VINA RESULT:      -7.6      5.964      7.756
REMARK  6 active torsions:
REMARK  status: ('A' for Active; 'I' for Inactive)
REMARK    1  A    between atoms: C_3  and  C_4 
REMARK    2  A    between atoms: C_4  and  O_5 
REMARK    3  A    between atoms: O_5  and  C_6 
REMARK    4  A    between atoms: C_9  and  C_10 
REMARK       I    between atoms: C_10  and  N_11 
REMARK    5  A    between atoms: N_11  and  N_12 
REMARK       I    between atoms: N_12  and  C_13 
REMARK    6  A    between atoms: C_13  and  C_14 
ROOT
HETATM    1  C   UNL     1     -40.474  52.267 -50.075  1.00  0.00     0.001 A 
HETATM    2  C   UNL     1     -40.533  52.986 -51.270  1.00  0.00     0.011 A 
HETATM    3  C   UNL     1     -40.255  52.369 -52.502  1.00  0.00    -0.013 A 
HETATM    4  C   UNL     1     -39.955  50.991 -52.509  1.00  0.00     0.053 A 
HETATM    5  C   UNL     1     -39.713  50.279 -53.731  1.00  0.00     0.100 C 
HETATM    6  N   UNL     1     -39.528  49.718 -54.731  1.00  0.00    -0.191 NA
HETATM    7  C   UNL     1     -39.895  50.276 -51.302  1.00  0.00     0.023 A 
HETATM    8  C   UNL     1     -40.150  50.914 -50.089  1.00  0.00     0.002 A 
ENDROOT
BRANCH   3   9
HETATM    9  C   UNL     1     -40.343  53.164 -53.794  1.00  0.00     0.216 C 
BRANCH   9  10
HETATM   10  O   UNL     1     -40.528  54.555 -53.509  1.00  0.00    -0.347 OA
BRANCH  10  11
HETATM   11  C   UNL     1     -41.199  55.276 -54.458  1.00  0.00     0.069 A 
HETATM   12  C   UNL     1     -41.351  56.662 -54.459  1.00  0.00     0.038 A 
HETATM   13  C   UNL     1     -42.093  57.281 -55.471  1.00  0.00     0.020 A 
HETATM   14  C   UNL     1     -42.673  56.525 -56.499  1.00  0.00     0.033 A 
HETATM   15  C   UNL     1     -42.497  55.137 -56.508  1.00  0.00     0.020 A 
HETATM   16  C   UNL     1     -41.753  54.522 -55.495  1.00  0.00     0.038 A 
BRANCH  14  17
HETATM   17  C   UNL     1     -43.498  57.240 -57.513  1.00  0.00     0.270 C 
HETATM   18  N   UNL     1     -44.831  56.895 -57.599  1.00  0.00    -0.263 N 
HETATM   19  H   UNL     1     -45.274  56.123 -57.108  1.00  0.00     0.190 HD
HETATM   20  O   UNL     1     -42.995  58.094 -58.240  1.00  0.00    -0.266 OA
BRANCH  18  21
HETATM   21  N   UNL     1     -45.620  57.574 -58.532  1.00  0.00    -0.262 N 
HETATM   22  C   UNL     1     -46.122  56.888 -59.617  1.00  0.00     0.286 C 
HETATM   23  O   UNL     1     -45.842  55.707 -59.823  1.00  0.00    -0.264 OA
HETATM   24  H   UNL     1     -45.841  58.542 -58.321  1.00  0.00     0.190 HD
BRANCH  22  25
HETATM   25  C   UNL     1     -46.992  57.649 -60.485  1.00  0.00     0.102 A 
HETATM   26  N   UNL     1     -47.516  57.099 -61.638  1.00  0.00    -0.361 N 
HETATM   27  H   UNL     1     -47.327  56.151 -61.943  1.00  0.00     0.165 HD
HETATM   28  C   UNL     1     -48.308  58.009 -62.283  1.00  0.00     0.088 A 
HETATM   29  C   UNL     1     -48.305  59.168 -61.543  1.00  0.00     0.019 A 
HETATM   30  C   UNL     1     -47.479  58.945 -60.414  1.00  0.00     0.036 A 
ENDBRANCH  22  25
ENDBRANCH  18  21
ENDBRANCH  14  17
ENDBRANCH  10  11
ENDBRANCH   9  10
ENDBRANCH   3   9
TORSDOF 6
ENDMDL
MODEL 5
REMARK VINA RESULT:      -7.5      6.622      8.304
REMARK  6 active torsions:
REMARK  status: ('A' for Active; 'I' for Inactive)
REMARK    1  A    between atoms: C_3  and  C_4 
REMARK    2  A    between atoms: C_4  and  O_5 
REMARK    3  A    between atoms: O_5  and  C_6 
REMARK    4  A    between atoms: C_9  and  C_10 
REMARK       I    between atoms: C_10  and  N_11 
REMARK    5  A    between atoms: N_11  and  N_12 
REMARK       I    between atoms: N_12  and  C_13 
REMARK    6  A    between atoms: C_13  and  C_14 
ROOT
HETATM    1  C   UNL     1     -39.866  51.624 -53.761  1.00  0.00     0.001 A 
HETATM    2  C   UNL     1     -40.656  52.761 -53.939  1.00  0.00     0.011 A 
HETATM    3  C   UNL     1     -41.083  53.527 -52.839  1.00  0.00    -0.013 A 
HETATM    4  C   UNL     1     -40.659  53.143 -51.551  1.00  0.00     0.053 A 
HETATM    5  C   UNL     1     -41.009  53.903 -50.384  1.00  0.00     0.100 C 
HETATM    6  N   UNL     1     -41.296  54.535 -49.454  1.00  0.00    -0.191 NA
HETATM    7  C   UNL     1     -39.868  51.996 -51.381  1.00  0.00     0.023 A 
HETATM    8  C   UNL     1     -39.476  51.238 -52.483  1.00  0.00     0.002 A 
ENDROOT
BRANCH   3   9
HETATM    9  C   UNL     1     -41.928  54.772 -53.054  1.00  0.00     0.216 C 
BRANCH   9  10
HETATM   10  O   UNL     1     -41.294  55.644 -53.996  1.00  0.00    -0.347 OA
BRANCH  10  11
HETATM   11  C   UNL     1     -42.039  55.986 -55.091  1.00  0.00     0.069 A 
HETATM   12  C   UNL     1     -42.377  55.127 -56.135  1.00  0.00     0.038 A 
HETATM   13  C   UNL     1     -43.118  55.607 -57.221  1.00  0.00     0.020 A 
HETATM   14  C   UNL     1     -43.540  56.943 -57.266  1.00  0.00     0.033 A 
HETATM   15  C   UNL     1     -43.219  57.796 -56.204  1.00  0.00     0.020 A 
HETATM   16  C   UNL     1     -42.481  57.311 -55.119  1.00  0.00     0.038 A 
BRANCH  14  17
HETATM   17  C   UNL     1     -44.275  57.404 -58.477  1.00  0.00     0.270 C 
HETATM   18  N   UNL     1     -45.650  57.473 -58.392  1.00  0.00    -0.263 N 
HETATM   19  H   UNL     1     -46.211  57.133 -57.616  1.00  0.00     0.190 HD
HETATM   20  O   UNL     1     -43.667  57.703 -59.502  1.00  0.00    -0.266 OA
BRANCH  18  21
HETATM   21  N   UNL     1     -46.349  57.925 -59.514  1.00  0.00    -0.262 N 
HETATM   22  C   UNL     1     -46.917  57.008 -60.371  1.00  0.00     0.286 C 
HETATM   23  O   UNL     1     -46.772  55.795 -60.211  1.00  0.00    -0.264 OA
HETATM   24  H   UNL     1     -46.461  58.931 -59.605  1.00  0.00     0.190 HD
BRANCH  22  25
HETATM   25  C   UNL     1     -47.689  57.566 -61.459  1.00  0.00     0.102 A 
HETATM   26  N   UNL     1     -47.987  56.823 -62.583  1.00  0.00    -0.361 N 
HETATM   27  H   UNL     1     -47.690  55.863 -62.717  1.00  0.00     0.165 HD
HETATM   28  C   UNL     1     -48.726  57.565 -63.463  1.00  0.00     0.088 A 
HETATM   29  C   UNL     1     -48.918  58.809 -62.907  1.00  0.00     0.019 A 
HETATM   30  C   UNL     1     -48.266  58.812 -61.649  1.00  0.00     0.036 A 
ENDBRANCH  22  25
ENDBRANCH  18  21
ENDBRANCH  14  17
ENDBRANCH  10  11
ENDBRANCH   9  10
ENDBRANCH   3   9
TORSDOF 6
ENDMDL
MODEL 6
REMARK VINA RESULT:      -7.5     17.566     20.416
REMARK  6 active torsions:
REMARK  status: ('A' for Active; 'I' for Inactive)
REMARK    1  A    between atoms: C_3  and  C_4 
REMARK    2  A    between atoms: C_4  and  O_5 
REMARK    3  A    between atoms: O_5  and  C_6 
REMARK    4  A    between atoms: C_9  and  C_10 
REMARK       I    between atoms: C_10  and  N_11 
REMARK    5  A    between atoms: N_11  and  N_12 
REMARK       I    between atoms: N_12  and  C_13 
REMARK    6  A    between atoms: C_13  and  C_14 
ROOT
HETATM    1  C   UNL     1     -37.134  42.038 -56.874  1.00  0.00     0.001 A 
HETATM    2  C   UNL     1     -36.803  42.211 -55.529  1.00  0.00     0.011 A 
HETATM    3  C   UNL     1     -35.547  41.815 -55.035  1.00  0.00    -0.013 A 
HETATM    4  C   UNL     1     -34.610  41.276 -55.941  1.00  0.00     0.053 A 
HETATM    5  C   UNL     1     -33.290  40.898 -55.524  1.00  0.00     0.100 C 
HETATM    6  N   UNL     1     -32.224  40.606 -55.169  1.00  0.00    -0.191 NA
HETATM    7  C   UNL     1     -34.953  41.103 -57.291  1.00  0.00     0.023 A 
HETATM    8  C   UNL     1     -36.212  41.480 -57.755  1.00  0.00     0.002 A 
ENDROOT
BRANCH   3   9
HETATM    9  C   UNL     1     -35.198  42.027 -53.572  1.00  0.00     0.216 C 
BRANCH   9  10
HETATM   10  O   UNL     1     -35.524  40.860 -52.809  1.00  0.00    -0.347 OA
BRANCH  10  11
HETATM   11  C   UNL     1     -34.637  40.521 -51.825  1.00  0.00     0.069 A 
HETATM   12  C   UNL     1     -33.319  40.970 -51.738  1.00  0.00     0.038 A 
HETATM   13  C   UNL     1     -32.497  40.521 -50.699  1.00  0.00     0.020 A 
HETATM   14  C   UNL     1     -32.987  39.635 -49.729  1.00  0.00     0.033 A 
HETATM   15  C   UNL     1     -34.317  39.207 -49.806  1.00  0.00     0.020 A 
HETATM   16  C   UNL     1     -35.136  39.660 -50.846  1.00  0.00     0.038 A 
BRANCH  14  17
HETATM   17  C   UNL     1     -32.044  39.151 -48.682  1.00  0.00     0.270 C 
HETATM   18  N   UNL     1     -31.460  40.102 -47.871  1.00  0.00    -0.263 N 
HETATM   19  H   UNL     1     -31.532  41.108 -47.996  1.00  0.00     0.190 HD
HETATM   20  O   UNL     1     -31.802  37.952 -48.563  1.00  0.00    -0.266 OA
BRANCH  18  21
HETATM   21  N   UNL     1     -30.590  39.659 -46.871  1.00  0.00    -0.262 N 
HETATM   22  C   UNL     1     -29.817  40.577 -46.194  1.00  0.00     0.286 C 
HETATM   23  O   UNL     1     -29.824  41.773 -46.488  1.00  0.00    -0.264 OA
HETATM   24  H   UNL     1     -30.623  38.669 -46.647  1.00  0.00     0.190 HD
BRANCH  22  25
HETATM   25  C   UNL     1     -29.007  40.040 -45.124  1.00  0.00     0.102 A 
HETATM   26  N   UNL     1     -29.052  40.573 -43.852  1.00  0.00    -0.361 N 
HETATM   27  H   UNL     1     -29.639  41.358 -43.593  1.00  0.00     0.165 HD
HETATM   28  C   UNL     1     -28.203  39.895 -43.020  1.00  0.00     0.088 A 
HETATM   29  C   UNL     1     -27.598  38.902 -43.755  1.00  0.00     0.019 A 
HETATM   30  C   UNL     1     -28.101  38.992 -45.077  1.00  0.00     0.036 A 
ENDBRANCH  22  25
ENDBRANCH  18  21
ENDBRANCH  14  17
ENDBRANCH  10  11
ENDBRANCH   9  10
ENDBRANCH   3   9
TORSDOF 6
ENDMDL
MODEL 7
REMARK VINA RESULT:      -7.4     17.265     19.992
REMARK  6 active torsions:
REMARK  status: ('A' for Active; 'I' for Inactive)
REMARK    1  A    between atoms: C_3  and  C_4 
REMARK    2  A    between atoms: C_4  and  O_5 
REMARK    3  A    between atoms: O_5  and  C_6 
REMARK    4  A    between atoms: C_9  and  C_10 
REMARK       I    between atoms: C_10  and  N_11 
REMARK    5  A    between atoms: N_11  and  N_12 
REMARK       I    between atoms: N_12  and  C_13 
REMARK    6  A    between atoms: C_13  and  C_14 
ROOT
HETATM    1  C   UNL     1     -33.208  40.777 -50.434  1.00  0.00     0.001 A 
HETATM    2  C   UNL     1     -34.226  41.548 -50.995  1.00  0.00     0.011 A 
HETATM    3  C   UNL     1     -35.047  41.035 -52.016  1.00  0.00    -0.013 A 
HETATM    4  C   UNL     1     -34.844  39.703 -52.431  1.00  0.00     0.053 A 
HETATM    5  C   UNL     1     -35.675  39.090 -53.429  1.00  0.00     0.100 C 
HETATM    6  N   UNL     1     -36.362  38.609 -54.231  1.00  0.00    -0.191 NA
HETATM    7  C   UNL     1     -33.815  38.935 -51.863  1.00  0.00     0.023 A 
HETATM    8  C   UNL     1     -32.998  39.472 -50.870  1.00  0.00     0.002 A 
ENDROOT
BRANCH   3   9
HETATM    9  C   UNL     1     -36.161  41.884 -52.603  1.00  0.00     0.216 C 
BRANCH   9  10
HETATM   10  O   UNL     1     -35.677  42.634 -53.722  1.00  0.00    -0.347 OA
BRANCH  10  11
HETATM   11  C   UNL     1     -36.167  42.267 -54.945  1.00  0.00     0.069 A 
HETATM   12  C   UNL     1     -37.483  41.887 -55.205  1.00  0.00     0.038 A 
HETATM   13  C   UNL     1     -37.854  41.498 -56.497  1.00  0.00     0.020 A 
HETATM   14  C   UNL     1     -36.919  41.501 -57.542  1.00  0.00     0.033 A 
HETATM   15  C   UNL     1     -35.605  41.908 -57.282  1.00  0.00     0.020 A 
HETATM   16  C   UNL     1     -35.240  42.298 -55.989  1.00  0.00     0.038 A 
BRANCH  14  17
HETATM   17  C   UNL     1     -37.364  41.021 -58.881  1.00  0.00     0.270 C 
HETATM   18  N   UNL     1     -37.963  39.780 -58.939  1.00  0.00    -0.263 N 
HETATM   19  H   UNL     1     -38.028  39.120 -58.169  1.00  0.00     0.190 HD
HETATM   20  O   UNL     1     -37.193  41.712 -59.883  1.00  0.00    -0.266 OA
BRANCH  18  21
HETATM   21  N   UNL     1     -38.404  39.328 -60.185  1.00  0.00    -0.262 N 
HETATM   22  C   UNL     1     -39.102  38.143 -60.265  1.00  0.00     0.286 C 
HETATM   23  O   UNL     1     -39.294  37.436 -59.275  1.00  0.00    -0.264 OA
HETATM   24  H   UNL     1     -38.241  39.945 -60.976  1.00  0.00     0.190 HD
BRANCH  22  25
HETATM   25  C   UNL     1     -39.588  37.793 -61.581  1.00  0.00     0.102 A 
HETATM   26  N   UNL     1     -38.804  37.092 -62.474  1.00  0.00    -0.361 N 
HETATM   27  H   UNL     1     -37.858  36.786 -62.271  1.00  0.00     0.165 HD
HETATM   28  C   UNL     1     -39.484  36.881 -63.642  1.00  0.00     0.088 A 
HETATM   29  C   UNL     1     -40.730  37.446 -63.511  1.00  0.00     0.019 A 
HETATM   30  C   UNL     1     -40.798  38.021 -62.218  1.00  0.00     0.036 A 
ENDBRANCH  22  25
ENDBRANCH  18  21
ENDBRANCH  14  17
ENDBRANCH  10  11
ENDBRANCH   9  10
ENDBRANCH   3   9
TORSDOF 6
ENDMDL
MODEL 8
REMARK VINA RESULT:      -7.4      2.053     10.460
REMARK  6 active torsions:
REMARK  status: ('A' for Active; 'I' for Inactive)
REMARK    1  A    between atoms: C_3  and  C_4 
REMARK    2  A    between atoms: C_4  and  O_5 
REMARK    3  A    between atoms: O_5  and  C_6 
REMARK    4  A    between atoms: C_9  and  C_10 
REMARK       I    between atoms: C_10  and  N_11 
REMARK    5  A    between atoms: N_11  and  N_12 
REMARK       I    between atoms: N_12  and  C_13 
REMARK    6  A    between atoms: C_13  and  C_14 
ROOT
HETATM    1  C   UNL     1     -44.630  63.980 -47.841  1.00  0.00     0.001 A 
HETATM    2  C   UNL     1     -44.701  62.986 -48.817  1.00  0.00     0.011 A 
HETATM    3  C   UNL     1     -45.174  61.698 -48.507  1.00  0.00    -0.013 A 
HETATM    4  C   UNL     1     -45.616  61.445 -47.192  1.00  0.00     0.053 A 
HETATM    5  C   UNL     1     -46.162  60.173 -46.812  1.00  0.00     0.100 C 
HETATM    6  N   UNL     1     -46.608  59.140 -46.526  1.00  0.00    -0.191 NA
HETATM    7  C   UNL     1     -45.538  62.451 -46.216  1.00  0.00     0.023 A 
HETATM    8  C   UNL     1     -45.043  63.713 -46.539  1.00  0.00     0.002 A 
ENDROOT
BRANCH   3   9
HETATM    9  C   UNL     1     -45.262  60.633 -49.588  1.00  0.00     0.216 C 
BRANCH   9  10
HETATM   10  O   UNL     1     -44.070  60.634 -50.382  1.00  0.00    -0.347 OA
BRANCH  10  11
HETATM   11  C   UNL     1     -43.759  59.451 -50.994  1.00  0.00     0.069 A 
HETATM   12  C   UNL     1     -44.670  58.443 -51.310  1.00  0.00     0.038 A 
HETATM   13  C   UNL     1     -44.221  57.260 -51.907  1.00  0.00     0.020 A 
HETATM   14  C   UNL     1     -42.863  57.080 -52.208  1.00  0.00     0.033 A 
HETATM   15  C   UNL     1     -41.957  58.104 -51.912  1.00  0.00     0.020 A 
HETATM   16  C   UNL     1     -42.411  59.286 -51.318  1.00  0.00     0.038 A 
BRANCH  14  17
HETATM   17  C   UNL     1     -42.443  55.774 -52.790  1.00  0.00     0.270 C 
HETATM   18  N   UNL     1     -41.109  55.439 -52.689  1.00  0.00    -0.263 N 
HETATM   19  H   UNL     1     -40.371  56.050 -52.351  1.00  0.00     0.190 HD
HETATM   20  O   UNL     1     -43.262  55.041 -53.340  1.00  0.00    -0.266 OA
BRANCH  18  21
HETATM   21  N   UNL     1     -40.706  54.207 -53.212  1.00  0.00    -0.262 N 
HETATM   22  C   UNL     1     -40.630  53.113 -52.379  1.00  0.00     0.286 C 
HETATM   23  O   UNL     1     -40.847  53.201 -51.170  1.00  0.00    -0.264 OA
HETATM   24  H   UNL     1     -40.550  54.169 -54.215  1.00  0.00     0.190 HD
BRANCH  22  25
HETATM   25  C   UNL     1     -40.282  51.865 -53.021  1.00  0.00     0.102 A 
HETATM   26  N   UNL     1     -39.657  50.849 -52.326  1.00  0.00    -0.361 N 
HETATM   27  H   UNL     1     -39.404  50.912 -51.346  1.00  0.00     0.165 HD
HETATM   28  C   UNL     1     -39.437  49.776 -53.145  1.00  0.00     0.088 A 
HETATM   29  C   UNL     1     -39.928  50.090 -54.391  1.00  0.00     0.019 A 
HETATM   30  C   UNL     1     -40.458  51.402 -54.315  1.00  0.00     0.036 A 
ENDBRANCH  22  25
ENDBRANCH  18  21
ENDBRANCH  14  17
ENDBRANCH  10  11
ENDBRANCH   9  10
ENDBRANCH   3   9
TORSDOF 6
ENDMDL
MODEL 9
REMARK VINA RESULT:      -7.3     17.469     20.418
REMARK  6 active torsions:
REMARK  status: ('A' for Active; 'I' for Inactive)
REMARK    1  A    between atoms: C_3  and  C_4 
REMARK    2  A    between atoms: C_4  and  O_5 
REMARK    3  A    between atoms: O_5  and  C_6 
REMARK    4  A    between atoms: C_9  and  C_10 
REMARK       I    between atoms: C_10  and  N_11 
REMARK    5  A    between atoms: N_11  and  N_12 
REMARK       I    between atoms: N_12  and  C_13 
REMARK    6  A    between atoms: C_13  and  C_14 
ROOT
HETATM    1  C   UNL     1     -36.189  41.667 -57.934  1.00  0.00     0.001 A 
HETATM    2  C   UNL     1     -35.335  41.832 -56.842  1.00  0.00     0.011 A 
HETATM    3  C   UNL     1     -35.803  41.670 -55.525  1.00  0.00    -0.013 A 
HETATM    4  C   UNL     1     -37.149  41.295 -55.334  1.00  0.00     0.053 A 
HETATM    5  C   UNL     1     -37.686  41.058 -54.024  1.00  0.00     0.100 C 
HETATM    6  N   UNL     1     -38.100  40.864 -52.957  1.00  0.00    -0.191 NA
HETATM    7  C   UNL     1     -38.001  41.134 -56.438  1.00  0.00     0.023 A 
HETATM    8  C   UNL     1     -37.522  41.323 -57.733  1.00  0.00     0.002 A 
ENDROOT
BRANCH   3   9
HETATM    9  C   UNL     1     -34.855  41.836 -54.350  1.00  0.00     0.216 C 
BRANCH   9  10
HETATM   10  O   UNL     1     -33.984  40.704 -54.252  1.00  0.00    -0.347 OA
BRANCH  10  11
HETATM   11  C   UNL     1     -33.505  40.425 -53.001  1.00  0.00     0.069 A 
HETATM   12  C   UNL     1     -32.401  39.620 -52.722  1.00  0.00     0.038 A 
HETATM   13  C   UNL     1     -32.030  39.380 -51.395  1.00  0.00     0.020 A 
HETATM   14  C   UNL     1     -32.747  39.955 -50.336  1.00  0.00     0.033 A 
HETATM   15  C   UNL     1     -33.839  40.782 -50.621  1.00  0.00     0.020 A 
HETATM   16  C   UNL     1     -34.205  41.020 -51.950  1.00  0.00     0.038 A 
BRANCH  14  17
HETATM   17  C   UNL     1     -32.335  39.614 -48.945  1.00  0.00     0.270 C 
HETATM   18  N   UNL     1     -31.136  40.127 -48.498  1.00  0.00    -0.263 N 
HETATM   19  H   UNL     1     -30.459  40.626 -49.069  1.00  0.00     0.190 HD
HETATM   20  O   UNL     1     -33.043  38.898 -48.240  1.00  0.00    -0.266 OA
BRANCH  18  21
HETATM   21  N   UNL     1     -30.749  39.833 -47.188  1.00  0.00    -0.262 N 
HETATM   22  C   UNL     1     -29.408  39.743 -46.885  1.00  0.00     0.286 C 
HETATM   23  O   UNL     1     -28.539  39.853 -47.750  1.00  0.00    -0.264 OA
HETATM   24  H   UNL     1     -31.493  39.764 -46.500  1.00  0.00     0.190 HD
BRANCH  22  25
HETATM   25  C   UNL     1     -29.100  39.514 -45.491  1.00  0.00     0.102 A 
HETATM   26  N   UNL     1     -27.958  38.838 -45.109  1.00  0.00    -0.361 N 
HETATM   27  H   UNL     1     -27.281  38.465 -45.765  1.00  0.00     0.165 HD
HETATM   28  C   UNL     1     -27.888  38.753 -43.746  1.00  0.00     0.088 A 
HETATM   29  C   UNL     1     -28.994  39.385 -43.227  1.00  0.00     0.019 A 
HETATM   30  C   UNL     1     -29.757  39.863 -44.321  1.00  0.00     0.036 A 
ENDBRANCH  22  25
ENDBRANCH  18  21
ENDBRANCH  14  17
ENDBRANCH  10  11
ENDBRANCH   9  10
ENDBRANCH   3   9
TORSDOF 6
ENDMDL
MODEL 10
REMARK VINA RESULT:      -7.3      1.848      2.510
REMARK  6 active torsions:
REMARK  status: ('A' for Active; 'I' for Inactive)
REMARK    1  A    between atoms: C_3  and  C_4 
REMARK    2  A    between atoms: C_4  and  O_5 
REMARK    3  A    between atoms: O_5  and  C_6 
REMARK    4  A    between atoms: C_9  and  C_10 
REMARK       I    between atoms: C_10  and  N_11 
REMARK    5  A    between atoms: N_11  and  N_12 
REMARK       I    between atoms: N_12  and  C_13 
REMARK    6  A    between atoms: C_13  and  C_14 
ROOT
HETATM    1  C   UNL     1     -39.732  52.727 -52.236  1.00  0.00     0.001 A 
HETATM    2  C   UNL     1     -40.682  53.179 -53.154  1.00  0.00     0.011 A 
HETATM    3  C   UNL     1     -41.897  53.742 -52.722  1.00  0.00    -0.013 A 
HETATM    4  C   UNL     1     -42.116  53.879 -51.336  1.00  0.00     0.053 A 
HETATM    5  C   UNL     1     -43.307  54.492 -50.819  1.00  0.00     0.100 C 
HETATM    6  N   UNL     1     -44.272  54.998 -50.419  1.00  0.00    -0.191 NA
HETATM    7  C   UNL     1     -41.157  53.418 -50.420  1.00  0.00     0.023 A 
HETATM    8  C   UNL     1     -39.970  52.842 -50.870  1.00  0.00     0.002 A 
ENDROOT
BRANCH   3   9
HETATM    9  C   UNL     1     -42.911  54.244 -53.736  1.00  0.00     0.216 C 
BRANCH   9  10
HETATM   10  O   UNL     1     -42.436  55.441 -54.360  1.00  0.00    -0.347 OA
BRANCH  10  11
HETATM   11  C   UNL     1     -42.644  56.602 -53.666  1.00  0.00     0.069 A 
HETATM   12  C   UNL     1     -41.642  57.423 -53.150  1.00  0.00     0.038 A 
HETATM   13  C   UNL     1     -41.985  58.569 -52.425  1.00  0.00     0.020 A 
HETATM   14  C   UNL     1     -43.328  58.914 -52.223  1.00  0.00     0.033 A 
HETATM   15  C   UNL     1     -44.331  58.101 -52.763  1.00  0.00     0.020 A 
HETATM   16  C   UNL     1     -43.983  56.957 -53.490  1.00  0.00     0.038 A 
BRANCH  14  17
HETATM   17  C   UNL     1     -43.625  60.115 -51.393  1.00  0.00     0.270 C 
HETATM   18  N   UNL     1     -43.584  59.962 -50.023  1.00  0.00    -0.263 N 
HETATM   19  H   UNL     1     -43.478  59.079 -49.531  1.00  0.00     0.190 HD
HETATM   20  O   UNL     1     -43.899  61.190 -51.922  1.00  0.00    -0.266 OA
BRANCH  18  21
HETATM   21  N   UNL     1     -43.840  61.086 -49.233  1.00  0.00    -0.262 N 
HETATM   22  C   UNL     1     -45.039  61.181 -48.562  1.00  0.00     0.286 C 
HETATM   23  O   UNL     1     -45.922  60.331 -48.688  1.00  0.00    -0.264 OA
HETATM   24  H   UNL     1     -43.084  61.758 -49.142  1.00  0.00     0.190 HD
BRANCH  22  25
HETATM   25  C   UNL     1     -45.185  62.338 -47.707  1.00  0.00     0.102 A 
HETATM   26  N   UNL     1     -45.369  63.601 -48.233  1.00  0.00    -0.361 N 
HETATM   27  H   UNL     1     -45.410  63.795 -49.227  1.00  0.00     0.165 HD
HETATM   28  C   UNL     1     -45.483  64.523 -47.229  1.00  0.00     0.088 A 
HETATM   29  C   UNL     1     -45.377  63.856 -46.031  1.00  0.00     0.019 A 
HETATM   30  C   UNL     1     -45.188  62.484 -46.329  1.00  0.00     0.036 A 
ENDBRANCH  22  25
ENDBRANCH  18  21
ENDBRANCH  14  17
ENDBRANCH  10  11
ENDBRANCH   9  10
ENDBRANCH   3   9
TORSDOF 6
ENDMDL
