MODEL 1
REMARK VINA RESULT:      -9.4      0.000      0.000
REMARK  5 active torsions:
REMARK  status: ('A' for Active; 'I' for Inactive)
REMARK    1  A    between atoms: C_5  and  C_6 
REMARK    2  A    between atoms: C_11  and  C_12 
REMARK       I    between atoms: C_12  and  N_13 
REMARK    3  A    between atoms: N_13  and  C_14 
REMARK    4  A    between atoms: C_16  and  O_17 
REMARK    5  A    between atoms: C_23  and  C_24 
ROOT
HETATM    1  C   UNL     1     -43.311  58.494 -59.061  1.00  0.00     0.118 C 
HETATM    2  N   UNL     1     -43.641  58.274 -57.650  1.00  0.00    -0.366 N 
HETATM    3  C   UNL     1     -43.419  57.093 -57.036  1.00  0.00     0.123 A 
HETATM    4  N   UNL     1     -43.203  55.956 -57.759  1.00  0.00    -0.240 N 
HETATM    5  N   UNL     1     -42.842  54.893 -57.017  1.00  0.00    -0.165 NA
HETATM    6  C   UNL     1     -42.931  55.359 -55.747  1.00  0.00     0.148 A 
HETATM    7  C   UNL     1     -43.331  56.726 -55.722  1.00  0.00     0.089 A 
HETATM    8  C   UNL     1     -43.174  55.942 -59.207  1.00  0.00     0.221 C 
HETATM    9  C   UNL     1     -42.599  57.278 -59.695  1.00  0.00     0.066 C 
HETATM   10  H   UNL     1     -43.782  59.126 -57.107  1.00  0.00     0.161 HD
ENDROOT
BRANCH   6  11
HETATM   11  C   UNL     1     -42.586  54.522 -54.583  1.00  0.00     0.276 C 
HETATM   12  N   UNL     1     -41.497  53.714 -54.842  1.00  0.00    -0.322 N 
HETATM   13  H   UNL     1     -41.147  53.804 -55.793  1.00  0.00     0.169 HD
HETATM   14  O   UNL     1     -43.211  54.598 -53.531  1.00  0.00    -0.266 OA
BRANCH  12  15
HETATM   15  C   UNL     1     -40.819  52.851 -53.965  1.00  0.00     0.037 A 
HETATM   16  C   UNL     1     -40.461  51.540 -54.289  1.00  0.00     0.066 A 
HETATM   17  C   UNL     1     -39.806  50.748 -53.348  1.00  0.00     0.067 A 
HETATM   18  C   UNL     1     -39.497  51.240 -52.085  1.00  0.00     0.036 A 
HETATM   19  C   UNL     1     -39.850  52.545 -51.756  1.00  0.00     0.005 A 
HETATM   20  C   UNL     1     -40.508  53.347 -52.693  1.00  0.00     0.029 A 
BRANCH  17  21
HETATM   21  O   UNL     1     -39.448  49.462 -53.631  1.00  0.00    -0.361 OA
HETATM   22  H   UNL     1     -39.497  49.336 -54.594  1.00  0.00     0.217 HD
ENDBRANCH  17  21
ENDBRANCH  12  15
ENDBRANCH   6  11
BRANCH   8  23
HETATM   23  C   UNL     1     -44.553  55.659 -59.756  1.00  0.00     0.409 C 
HETATM   24  F   UNL     1     -44.885  54.352 -59.660  1.00  0.00    -0.169 F 
HETATM   25  F   UNL     1     -45.532  56.378 -59.170  1.00  0.00    -0.169 F 
HETATM   26  F   UNL     1     -44.588  55.968 -61.080  1.00  0.00    -0.169 F 
ENDBRANCH   8  23
BRANCH   1  27
HETATM   27  C   UNL     1     -42.437  59.731 -59.188  1.00  0.00    -0.035 A 
HETATM   28  C   UNL     1     -41.823  60.302 -58.059  1.00  0.00     0.010 A 
HETATM   29  C   UNL     1     -41.001  61.424 -58.178  1.00  0.00     0.007 A 
HETATM   30  C   UNL     1     -40.777  62.004 -59.429  1.00  0.00    -0.062 A 
HETATM   31  C   UNL     1     -39.862  63.186 -59.564  1.00  0.00     0.048 C 
HETATM   32  C   UNL     1     -41.368  61.431 -60.560  1.00  0.00     0.007 A 
HETATM   33  C   UNL     1     -42.193  60.308 -60.442  1.00  0.00     0.010 A 
ENDBRANCH   1  27
TORSDOF 5
ENDMDL
MODEL 2
REMARK VINA RESULT:      -9.4      5.132      9.144
REMARK  5 active torsions:
REMARK  status: ('A' for Active; 'I' for Inactive)
REMARK    1  A    between atoms: C_5  and  C_6 
REMARK    2  A    between atoms: C_11  and  C_12 
REMARK       I    between atoms: C_12  and  N_13 
REMARK    3  A    between atoms: N_13  and  C_14 
REMARK    4  A    between atoms: C_16  and  O_17 
REMARK    5  A    between atoms: C_23  and  C_24 
ROOT
HETATM    1  C   UNL     1     -41.195  54.574 -53.983  1.00  0.00     0.118 C 
HETATM    2  N   UNL     1     -41.116  55.729 -53.083  1.00  0.00    -0.366 N 
HETATM    3  C   UNL     1     -42.190  56.496 -52.804  1.00  0.00     0.123 A 
HETATM    4  N   UNL     1     -43.305  56.456 -53.590  1.00  0.00    -0.240 N 
HETATM    5  N   UNL     1     -44.348  57.152 -53.102  1.00  0.00    -0.165 NA
HETATM    6  C   UNL     1     -43.832  57.746 -51.998  1.00  0.00     0.148 A 
HETATM    7  C   UNL     1     -42.468  57.387 -51.804  1.00  0.00     0.089 A 
HETATM    8  C   UNL     1     -43.420  55.586 -54.743  1.00  0.00     0.221 C 
HETATM    9  C   UNL     1     -42.638  54.297 -54.458  1.00  0.00     0.066 C 
HETATM   10  H   UNL     1     -40.292  55.747 -52.482  1.00  0.00     0.161 HD
ENDROOT
BRANCH   6  11
HETATM   11  C   UNL     1     -44.651  58.597 -51.115  1.00  0.00     0.276 C 
HETATM   12  N   UNL     1     -43.946  59.697 -50.670  1.00  0.00    -0.322 N 
HETATM   13  H   UNL     1     -42.980  59.713 -50.991  1.00  0.00     0.169 HD
HETATM   14  O   UNL     1     -45.820  58.322 -50.864  1.00  0.00    -0.266 OA
BRANCH  12  15
HETATM   15  C   UNL     1     -44.403  60.775 -49.893  1.00  0.00     0.037 A 
HETATM   16  C   UNL     1     -45.520  60.710 -49.058  1.00  0.00     0.066 A 
HETATM   17  C   UNL     1     -45.912  61.838 -48.337  1.00  0.00     0.067 A 
HETATM   18  C   UNL     1     -45.208  63.032 -48.433  1.00  0.00     0.036 A 
HETATM   19  C   UNL     1     -44.093  63.103 -49.262  1.00  0.00     0.005 A 
HETATM   20  C   UNL     1     -43.692  61.978 -49.989  1.00  0.00     0.029 A 
BRANCH  17  21
HETATM   21  O   UNL     1     -47.002  61.810 -47.517  1.00  0.00    -0.361 OA
HETATM   22  H   UNL     1     -46.887  61.083 -46.880  1.00  0.00     0.217 HD
ENDBRANCH  17  21
ENDBRANCH  12  15
ENDBRANCH   6  11
BRANCH   8  23
HETATM   23  C   UNL     1     -42.946  56.300 -55.987  1.00  0.00     0.409 C 
HETATM   24  F   UNL     1     -43.953  56.929 -56.632  1.00  0.00    -0.169 F 
HETATM   25  F   UNL     1     -41.972  57.204 -55.761  1.00  0.00    -0.169 F 
HETATM   26  F   UNL     1     -42.435  55.395 -56.864  1.00  0.00    -0.169 F 
ENDBRANCH   8  23
BRANCH   1  27
HETATM   27  C   UNL     1     -40.635  53.348 -53.279  1.00  0.00    -0.035 A 
HETATM   28  C   UNL     1     -40.508  53.313 -51.879  1.00  0.00     0.010 A 
HETATM   29  C   UNL     1     -40.017  52.178 -51.231  1.00  0.00     0.007 A 
HETATM   30  C   UNL     1     -39.638  51.053 -51.968  1.00  0.00    -0.062 A 
HETATM   31  C   UNL     1     -39.147  49.819 -51.270  1.00  0.00     0.048 C 
HETATM   32  C   UNL     1     -39.779  51.073 -53.360  1.00  0.00     0.007 A 
HETATM   33  C   UNL     1     -40.269  52.210 -54.010  1.00  0.00     0.010 A 
ENDBRANCH   1  27
TORSDOF 5
ENDMDL
MODEL 3
REMARK VINA RESULT:      -9.1      6.195      7.684
REMARK  5 active torsions:
REMARK  status: ('A' for Active; 'I' for Inactive)
REMARK    1  A    between atoms: C_5  and  C_6 
REMARK    2  A    between atoms: C_11  and  C_12 
REMARK       I    between atoms: C_12  and  N_13 
REMARK    3  A    between atoms: N_13  and  C_14 
REMARK    4  A    between atoms: C_16  and  O_17 
REMARK    5  A    between atoms: C_23  and  C_24 
ROOT
HETATM    1  C   UNL     1     -42.054  60.369 -51.085  1.00  0.00     0.118 C 
HETATM    2  N   UNL     1     -42.333  59.371 -52.123  1.00  0.00    -0.366 N 
HETATM    3  C   UNL     1     -41.926  58.089 -52.015  1.00  0.00     0.123 A 
HETATM    4  N   UNL     1     -40.957  57.734 -51.123  1.00  0.00    -0.240 N 
HETATM    5  N   UNL     1     -40.768  56.406 -51.016  1.00  0.00    -0.165 NA
HETATM    6  C   UNL     1     -41.593  55.900 -51.966  1.00  0.00     0.148 A 
HETATM    7  C   UNL     1     -42.305  56.933 -52.639  1.00  0.00     0.089 A 
HETATM    8  C   UNL     1     -40.326  58.685 -50.231  1.00  0.00     0.221 C 
HETATM    9  C   UNL     1     -41.359  59.753 -49.851  1.00  0.00     0.066 C 
HETATM   10  H   UNL     1     -43.072  59.631 -52.777  1.00  0.00     0.161 HD
ENDROOT
BRANCH   6  11
HETATM   11  C   UNL     1     -41.736  54.448 -52.183  1.00  0.00     0.276 C 
HETATM   12  N   UNL     1     -40.530  53.861 -52.510  1.00  0.00    -0.322 N 
HETATM   13  H   UNL     1     -39.765  54.529 -52.583  1.00  0.00     0.169 HD
HETATM   14  O   UNL     1     -42.816  53.883 -52.049  1.00  0.00    -0.266 OA
BRANCH  12  15
HETATM   15  C   UNL     1     -40.242  52.500 -52.702  1.00  0.00     0.037 A 
HETATM   16  C   UNL     1     -39.808  51.648 -51.684  1.00  0.00     0.066 A 
HETATM   17  C   UNL     1     -39.527  50.313 -51.971  1.00  0.00     0.067 A 
HETATM   18  C   UNL     1     -39.673  49.809 -53.257  1.00  0.00     0.036 A 
HETATM   19  C   UNL     1     -40.106  50.652 -54.276  1.00  0.00     0.005 A 
HETATM   20  C   UNL     1     -40.390  51.992 -53.999  1.00  0.00     0.029 A 
BRANCH  17  21
HETATM   21  O   UNL     1     -39.095  49.456 -51.001  1.00  0.00    -0.361 OA
HETATM   22  H   UNL     1     -39.291  48.546 -51.287  1.00  0.00     0.217 HD
ENDBRANCH  17  21
ENDBRANCH  12  15
ENDBRANCH   6  11
BRANCH   8  23
HETATM   23  C   UNL     1     -39.088  59.265 -50.873  1.00  0.00     0.409 C 
HETATM   24  F   UNL     1     -37.973  58.567 -50.560  1.00  0.00    -0.169 F 
HETATM   25  F   UNL     1     -39.158  59.349 -52.217  1.00  0.00    -0.169 F 
HETATM   26  F   UNL     1     -38.889  60.530 -50.418  1.00  0.00    -0.169 F 
ENDBRANCH   8  23
BRANCH   1  27
HETATM   27  C   UNL     1     -43.353  61.041 -50.670  1.00  0.00    -0.035 A 
HETATM   28  C   UNL     1     -44.570  60.337 -50.689  1.00  0.00     0.010 A 
HETATM   29  C   UNL     1     -45.759  60.947 -50.284  1.00  0.00     0.007 A 
HETATM   30  C   UNL     1     -45.759  62.276 -49.854  1.00  0.00    -0.062 A 
HETATM   31  C   UNL     1     -47.029  62.920 -49.382  1.00  0.00     0.048 C 
HETATM   32  C   UNL     1     -44.549  62.978 -49.814  1.00  0.00     0.007 A 
HETATM   33  C   UNL     1     -43.358  62.368 -50.222  1.00  0.00     0.010 A 
ENDBRANCH   1  27
TORSDOF 5
ENDMDL
MODEL 4
REMARK VINA RESULT:      -8.9      2.599      4.427
REMARK  5 active torsions:
REMARK  status: ('A' for Active; 'I' for Inactive)
REMARK    1  A    between atoms: C_5  and  C_6 
REMARK    2  A    between atoms: C_11  and  C_12 
REMARK       I    between atoms: C_12  and  N_13 
REMARK    3  A    between atoms: N_13  and  C_14 
REMARK    4  A    between atoms: C_16  and  O_17 
REMARK    5  A    between atoms: C_23  and  C_24 
ROOT
HETATM    1  C   UNL     1     -44.306  58.059 -58.997  1.00  0.00     0.118 C 
HETATM    2  N   UNL     1     -43.566  56.820 -58.732  1.00  0.00    -0.366 N 
HETATM    3  C   UNL     1     -43.229  56.439 -57.483  1.00  0.00     0.123 A 
HETATM    4  N   UNL     1     -43.249  57.328 -56.448  1.00  0.00    -0.240 N 
HETATM    5  N   UNL     1     -43.043  56.772 -55.240  1.00  0.00    -0.165 NA
HETATM    6  C   UNL     1     -42.779  55.476 -55.540  1.00  0.00     0.148 A 
HETATM    7  C   UNL     1     -42.848  55.242 -56.942  1.00  0.00     0.089 A 
HETATM    8  C   UNL     1     -43.648  58.711 -56.610  1.00  0.00     0.221 C 
HETATM    9  C   UNL     1     -44.729  58.780 -57.698  1.00  0.00     0.066 C 
HETATM   10  H   UNL     1     -43.569  56.149 -59.500  1.00  0.00     0.161 HD
ENDROOT
BRANCH   6  11
HETATM   11  C   UNL     1     -42.521  54.470 -54.492  1.00  0.00     0.276 C 
HETATM   12  N   UNL     1     -41.336  53.799 -54.711  1.00  0.00    -0.322 N 
HETATM   13  H   UNL     1     -40.866  54.081 -55.569  1.00  0.00     0.169 HD
HETATM   14  O   UNL     1     -43.292  54.313 -53.551  1.00  0.00    -0.266 OA
BRANCH  12  15
HETATM   15  C   UNL     1     -40.707  52.841 -53.896  1.00  0.00     0.037 A 
HETATM   16  C   UNL     1     -40.415  51.541 -54.312  1.00  0.00     0.066 A 
HETATM   17  C   UNL     1     -39.806  50.652 -53.428  1.00  0.00     0.067 A 
HETATM   18  C   UNL     1     -39.480  51.036 -52.133  1.00  0.00     0.036 A 
HETATM   19  C   UNL     1     -39.768  52.331 -51.713  1.00  0.00     0.005 A 
HETATM   20  C   UNL     1     -40.379  53.230 -52.591  1.00  0.00     0.029 A 
BRANCH  17  21
HETATM   21  O   UNL     1     -39.512  49.372 -53.801  1.00  0.00    -0.361 OA
HETATM   22  H   UNL     1     -40.264  49.022 -54.310  1.00  0.00     0.217 HD
ENDBRANCH  17  21
ENDBRANCH  12  15
ENDBRANCH   6  11
BRANCH   8  23
HETATM   23  C   UNL     1     -42.446  59.571 -56.920  1.00  0.00     0.409 C 
HETATM   24  F   UNL     1     -41.809  59.983 -55.801  1.00  0.00    -0.169 F 
HETATM   25  F   UNL     1     -41.536  58.973 -57.716  1.00  0.00    -0.169 F 
HETATM   26  F   UNL     1     -42.846  60.696 -57.570  1.00  0.00    -0.169 F 
ENDBRANCH   8  23
BRANCH   1  27
HETATM   27  C   UNL     1     -45.532  57.743 -59.839  1.00  0.00    -0.035 A 
HETATM   28  C   UNL     1     -46.354  58.771 -60.333  1.00  0.00     0.010 A 
HETATM   29  C   UNL     1     -47.465  58.483 -61.127  1.00  0.00     0.007 A 
HETATM   30  C   UNL     1     -47.783  57.159 -61.442  1.00  0.00    -0.062 A 
HETATM   31  C   UNL     1     -48.955  56.851 -62.327  1.00  0.00     0.048 C 
HETATM   32  C   UNL     1     -46.959  56.132 -60.970  1.00  0.00     0.007 A 
HETATM   33  C   UNL     1     -45.846  56.419 -60.173  1.00  0.00     0.010 A 
ENDBRANCH   1  27
TORSDOF 5
ENDMDL
MODEL 5
REMARK VINA RESULT:      -8.9      4.648      9.003
REMARK  5 active torsions:
REMARK  status: ('A' for Active; 'I' for Inactive)
REMARK    1  A    between atoms: C_5  and  C_6 
REMARK    2  A    between atoms: C_11  and  C_12 
REMARK       I    between atoms: C_12  and  N_13 
REMARK    3  A    between atoms: N_13  and  C_14 
REMARK    4  A    between atoms: C_16  and  O_17 
REMARK    5  A    between atoms: C_23  and  C_24 
ROOT
HETATM    1  C   UNL     1     -41.134  54.434 -54.577  1.00  0.00     0.118 C 
HETATM    2  N   UNL     1     -40.561  55.673 -54.042  1.00  0.00    -0.366 N 
HETATM    3  C   UNL     1     -41.325  56.735 -53.715  1.00  0.00     0.123 A 
HETATM    4  N   UNL     1     -42.605  56.848 -54.175  1.00  0.00    -0.240 N 
HETATM    5  N   UNL     1     -43.293  57.873 -53.642  1.00  0.00    -0.165 NA
HETATM    6  C   UNL     1     -42.366  58.502 -52.879  1.00  0.00     0.148 A 
HETATM    7  C   UNL     1     -41.108  57.837 -52.934  1.00  0.00     0.089 A 
HETATM    8  C   UNL     1     -43.228  55.842 -55.011  1.00  0.00     0.221 C 
HETATM    9  C   UNL     1     -42.678  54.467 -54.609  1.00  0.00     0.066 C 
HETATM   10  H   UNL     1     -39.611  55.582 -53.681  1.00  0.00     0.161 HD
ENDROOT
BRANCH   6  11
HETATM   11  C   UNL     1     -42.698  59.689 -52.068  1.00  0.00     0.276 C 
HETATM   12  N   UNL     1     -44.053  59.949 -52.076  1.00  0.00    -0.322 N 
HETATM   13  H   UNL     1     -44.582  59.308 -52.665  1.00  0.00     0.169 HD
HETATM   14  O   UNL     1     -41.834  60.314 -51.462  1.00  0.00    -0.266 OA
BRANCH  12  15
HETATM   15  C   UNL     1     -44.762  60.928 -51.360  1.00  0.00     0.037 A 
HETATM   16  C   UNL     1     -45.303  60.720 -50.089  1.00  0.00     0.066 A 
HETATM   17  C   UNL     1     -46.009  61.744 -49.461  1.00  0.00     0.067 A 
HETATM   18  C   UNL     1     -46.185  62.977 -50.076  1.00  0.00     0.036 A 
HETATM   19  C   UNL     1     -45.647  63.192 -51.342  1.00  0.00     0.005 A 
HETATM   20  C   UNL     1     -44.939  62.171 -51.981  1.00  0.00     0.029 A 
BRANCH  17  21
HETATM   21  O   UNL     1     -46.556  61.572 -48.222  1.00  0.00    -0.361 OA
HETATM   22  H   UNL     1     -47.360  61.032 -48.316  1.00  0.00     0.217 HD
ENDBRANCH  17  21
ENDBRANCH  12  15
ENDBRANCH   6  11
BRANCH   8  23
HETATM   23  C   UNL     1     -43.004  56.161 -56.471  1.00  0.00     0.409 C 
HETATM   24  F   UNL     1     -41.912  56.934 -56.664  1.00  0.00    -0.169 F 
HETATM   25  F   UNL     1     -42.883  55.072 -57.256  1.00  0.00    -0.169 F 
HETATM   26  F   UNL     1     -44.063  56.865 -56.950  1.00  0.00    -0.169 F 
ENDBRANCH   8  23
BRANCH   1  27
HETATM   27  C   UNL     1     -40.656  53.256 -53.744  1.00  0.00    -0.035 A 
HETATM   28  C   UNL     1     -40.343  52.024 -54.346  1.00  0.00     0.010 A 
HETATM   29  C   UNL     1     -39.880  50.950 -53.584  1.00  0.00     0.007 A 
HETATM   30  C   UNL     1     -39.723  51.081 -52.202  1.00  0.00    -0.062 A 
HETATM   31  C   UNL     1     -39.189  49.939 -51.388  1.00  0.00     0.048 C 
HETATM   32  C   UNL     1     -40.014  52.309 -51.598  1.00  0.00     0.007 A 
HETATM   33  C   UNL     1     -40.480  53.385 -52.360  1.00  0.00     0.010 A 
ENDBRANCH   1  27
TORSDOF 5
ENDMDL
MODEL 6
REMARK VINA RESULT:      -8.8      6.296      9.361
REMARK  5 active torsions:
REMARK  status: ('A' for Active; 'I' for Inactive)
REMARK    1  A    between atoms: C_5  and  C_6 
REMARK    2  A    between atoms: C_11  and  C_12 
REMARK       I    between atoms: C_12  and  N_13 
REMARK    3  A    between atoms: N_13  and  C_14 
REMARK    4  A    between atoms: C_16  and  O_17 
REMARK    5  A    between atoms: C_23  and  C_24 
ROOT
HETATM    1  C   UNL     1     -41.284  56.834 -54.016  1.00  0.00     0.118 C 
HETATM    2  N   UNL     1     -41.457  57.373 -52.664  1.00  0.00    -0.366 N 
HETATM    3  C   UNL     1     -42.564  58.051 -52.297  1.00  0.00     0.123 A 
HETATM    4  N   UNL     1     -43.416  58.563 -53.233  1.00  0.00    -0.240 N 
HETATM    5  N   UNL     1     -44.551  59.072 -52.722  1.00  0.00    -0.165 NA
HETATM    6  C   UNL     1     -44.362  58.966 -51.384  1.00  0.00     0.148 A 
HETATM    7  C   UNL     1     -43.107  58.366 -51.082  1.00  0.00     0.089 A 
HETATM    8  C   UNL     1     -43.206  58.398 -54.656  1.00  0.00     0.221 C 
HETATM    9  C   UNL     1     -42.538  57.038 -54.895  1.00  0.00     0.066 C 
HETATM   10  H   UNL     1     -40.832  56.974 -51.962  1.00  0.00     0.161 HD
ENDROOT
BRANCH   6  11
HETATM   11  C   UNL     1     -45.394  59.383 -50.415  1.00  0.00     0.276 C 
HETATM   12  N   UNL     1     -44.937  60.387 -49.585  1.00  0.00    -0.322 N 
HETATM   13  H   UNL     1     -43.965  60.638 -49.755  1.00  0.00     0.169 HD
HETATM   14  O   UNL     1     -46.512  58.879 -50.413  1.00  0.00    -0.266 OA
BRANCH  12  15
HETATM   15  C   UNL     1     -45.644  61.101 -48.603  1.00  0.00     0.037 A 
HETATM   16  C   UNL     1     -46.397  62.247 -48.870  1.00  0.00     0.066 A 
HETATM   17  C   UNL     1     -47.051  62.903 -47.828  1.00  0.00     0.067 A 
HETATM   18  C   UNL     1     -46.969  62.437 -46.522  1.00  0.00     0.036 A 
HETATM   19  C   UNL     1     -46.221  61.295 -46.249  1.00  0.00     0.005 A 
HETATM   20  C   UNL     1     -45.561  60.631 -47.287  1.00  0.00     0.029 A 
BRANCH  17  21
HETATM   21  O   UNL     1     -47.791  64.028 -48.053  1.00  0.00    -0.361 OA
HETATM   22  H   UNL     1     -47.512  64.411 -48.903  1.00  0.00     0.217 HD
ENDBRANCH  17  21
ENDBRANCH  12  15
ENDBRANCH   6  11
BRANCH   8  23
HETATM   23  C   UNL     1     -42.402  59.553 -55.205  1.00  0.00     0.409 C 
HETATM   24  F   UNL     1     -41.655  59.196 -56.274  1.00  0.00    -0.169 F 
HETATM   25  F   UNL     1     -43.148  60.618 -55.561  1.00  0.00    -0.169 F 
HETATM   26  F   UNL     1     -41.531  59.993 -54.258  1.00  0.00    -0.169 F 
ENDBRANCH   8  23
BRANCH   1  27
HETATM   27  C   UNL     1     -40.946  55.354 -53.929  1.00  0.00    -0.035 A 
HETATM   28  C   UNL     1     -40.460  54.656 -55.049  1.00  0.00     0.010 A 
HETATM   29  C   UNL     1     -40.126  53.303 -54.962  1.00  0.00     0.007 A 
HETATM   30  C   UNL     1     -40.274  52.616 -53.755  1.00  0.00    -0.062 A 
HETATM   31  C   UNL     1     -39.878  51.172 -53.651  1.00  0.00     0.048 C 
HETATM   32  C   UNL     1     -40.738  53.308 -52.631  1.00  0.00     0.007 A 
HETATM   33  C   UNL     1     -41.075  54.662 -52.717  1.00  0.00     0.010 A 
ENDBRANCH   1  27
TORSDOF 5
ENDMDL
MODEL 7
REMARK VINA RESULT:      -8.8      4.674      5.843
REMARK  5 active torsions:
REMARK  status: ('A' for Active; 'I' for Inactive)
REMARK    1  A    between atoms: C_5  and  C_6 
REMARK    2  A    between atoms: C_11  and  C_12 
REMARK       I    between atoms: C_12  and  N_13 
REMARK    3  A    between atoms: N_13  and  C_14 
REMARK    4  A    between atoms: C_16  and  O_17 
REMARK    5  A    between atoms: C_23  and  C_24 
ROOT
HETATM    1  C   UNL     1     -41.979  60.043 -53.622  1.00  0.00     0.118 C 
HETATM    2  N   UNL     1     -41.244  58.817 -53.950  1.00  0.00    -0.366 N 
HETATM    3  C   UNL     1     -41.330  57.704 -53.192  1.00  0.00     0.123 A 
HETATM    4  N   UNL     1     -41.819  57.758 -51.919  1.00  0.00    -0.240 N 
HETATM    5  N   UNL     1     -41.993  56.553 -51.345  1.00  0.00    -0.165 NA
HETATM    6  C   UNL     1     -41.493  55.697 -52.270  1.00  0.00     0.148 A 
HETATM    7  C   UNL     1     -41.031  56.390 -53.425  1.00  0.00     0.089 A 
HETATM    8  C   UNL     1     -42.291  58.985 -51.312  1.00  0.00     0.221 C 
HETATM    9  C   UNL     1     -42.915  59.860 -52.407  1.00  0.00     0.066 C 
HETATM   10  H   UNL     1     -40.897  58.770 -54.908  1.00  0.00     0.161 HD
ENDROOT
BRANCH   6  11
HETATM   11  C   UNL     1     -41.510  54.235 -52.069  1.00  0.00     0.276 C 
HETATM   12  N   UNL     1     -40.600  53.598 -52.888  1.00  0.00    -0.322 N 
HETATM   13  H   UNL     1     -40.106  54.234 -53.512  1.00  0.00     0.169 HD
HETATM   14  O   UNL     1     -42.247  53.711 -51.242  1.00  0.00    -0.266 OA
BRANCH  12  15
HETATM   15  C   UNL     1     -40.260  52.235 -52.927  1.00  0.00     0.037 A 
HETATM   16  C   UNL     1     -39.799  51.519 -51.820  1.00  0.00     0.066 A 
HETATM   17  C   UNL     1     -39.467  50.172 -51.957  1.00  0.00     0.067 A 
HETATM   18  C   UNL     1     -39.589  49.522 -53.179  1.00  0.00     0.036 A 
HETATM   19  C   UNL     1     -40.050  50.230 -54.286  1.00  0.00     0.005 A 
HETATM   20  C   UNL     1     -40.384  51.581 -54.159  1.00  0.00     0.029 A 
BRANCH  17  21
HETATM   21  O   UNL     1     -39.008  49.445 -50.897  1.00  0.00    -0.361 OA
HETATM   22  H   UNL     1     -38.052  49.304 -51.015  1.00  0.00     0.217 HD
ENDBRANCH  17  21
ENDBRANCH  12  15
ENDBRANCH   6  11
BRANCH   8  23
HETATM   23  C   UNL     1     -41.164  59.675 -50.579  1.00  0.00     0.409 C 
HETATM   24  F   UNL     1     -40.989  59.184 -49.331  1.00  0.00    -0.169 F 
HETATM   25  F   UNL     1     -39.978  59.613 -51.217  1.00  0.00    -0.169 F 
HETATM   26  F   UNL     1     -41.456  60.995 -50.434  1.00  0.00    -0.169 F 
ENDBRANCH   8  23
BRANCH   1  27
HETATM   27  C   UNL     1     -42.780  60.489 -54.834  1.00  0.00    -0.035 A 
HETATM   28  C   UNL     1     -42.234  60.421 -56.128  1.00  0.00     0.010 A 
HETATM   29  C   UNL     1     -42.979  60.808 -57.243  1.00  0.00     0.007 A 
HETATM   30  C   UNL     1     -44.287  61.275 -57.091  1.00  0.00    -0.062 A 
HETATM   31  C   UNL     1     -45.102  61.653 -58.293  1.00  0.00     0.048 C 
HETATM   32  C   UNL     1     -44.845  61.327 -55.809  1.00  0.00     0.007 A 
HETATM   33  C   UNL     1     -44.099  60.942 -54.690  1.00  0.00     0.010 A 
ENDBRANCH   1  27
TORSDOF 5
ENDMDL
MODEL 8
REMARK VINA RESULT:      -8.8      4.471      9.141
REMARK  5 active torsions:
REMARK  status: ('A' for Active; 'I' for Inactive)
REMARK    1  A    between atoms: C_5  and  C_6 
REMARK    2  A    between atoms: C_11  and  C_12 
REMARK       I    between atoms: C_12  and  N_13 
REMARK    3  A    between atoms: N_13  and  C_14 
REMARK    4  A    between atoms: C_16  and  O_17 
REMARK    5  A    between atoms: C_23  and  C_24 
ROOT
HETATM    1  C   UNL     1     -41.606  55.159 -52.929  1.00  0.00     0.118 C 
HETATM    2  N   UNL     1     -42.844  55.231 -53.713  1.00  0.00    -0.366 N 
HETATM    3  C   UNL     1     -43.058  56.197 -54.629  1.00  0.00     0.123 A 
HETATM    4  N   UNL     1     -42.307  57.337 -54.636  1.00  0.00    -0.240 N 
HETATM    5  N   UNL     1     -42.527  58.134 -55.697  1.00  0.00    -0.165 NA
HETATM    6  C   UNL     1     -43.544  57.512 -56.343  1.00  0.00     0.148 A 
HETATM    7  C   UNL     1     -43.928  56.314 -55.677  1.00  0.00     0.089 A 
HETATM    8  C   UNL     1     -41.234  57.574 -53.693  1.00  0.00     0.221 C 
HETATM    9  C   UNL     1     -40.577  56.228 -53.357  1.00  0.00     0.066 C 
HETATM   10  H   UNL     1     -43.393  54.371 -53.722  1.00  0.00     0.161 HD
ENDROOT
BRANCH   6  11
HETATM   11  C   UNL     1     -44.098  58.032 -57.608  1.00  0.00     0.276 C 
HETATM   12  N   UNL     1     -45.263  57.382 -57.959  1.00  0.00    -0.322 N 
HETATM   13  H   UNL     1     -45.518  56.637 -57.314  1.00  0.00     0.169 HD
HETATM   14  O   UNL     1     -43.556  58.950 -58.215  1.00  0.00    -0.266 OA
BRANCH  12  15
HETATM   15  C   UNL     1     -46.125  57.649 -59.037  1.00  0.00     0.037 A 
HETATM   16  C   UNL     1     -46.379  56.744 -60.070  1.00  0.00     0.066 A 
HETATM   17  C   UNL     1     -47.235  57.102 -61.110  1.00  0.00     0.067 A 
HETATM   18  C   UNL     1     -47.846  58.350 -61.139  1.00  0.00     0.036 A 
HETATM   19  C   UNL     1     -47.598  59.256 -60.112  1.00  0.00     0.005 A 
HETATM   20  C   UNL     1     -46.741  58.906 -59.065  1.00  0.00     0.029 A 
BRANCH  17  21
HETATM   21  O   UNL     1     -47.499  56.244 -62.137  1.00  0.00    -0.361 OA
HETATM   22  H   UNL     1     -46.900  56.455 -62.874  1.00  0.00     0.217 HD
ENDBRANCH  17  21
ENDBRANCH  12  15
ENDBRANCH   6  11
BRANCH   8  23
HETATM   23  C   UNL     1     -41.757  58.294 -52.472  1.00  0.00     0.409 C 
HETATM   24  F   UNL     1     -43.097  58.175 -52.342  1.00  0.00    -0.169 F 
HETATM   25  F   UNL     1     -41.193  57.891 -51.316  1.00  0.00    -0.169 F 
HETATM   26  F   UNL     1     -41.498  59.625 -52.584  1.00  0.00    -0.169 F 
ENDBRANCH   8  23
BRANCH   1  27
HETATM   27  C   UNL     1     -41.002  53.771 -53.067  1.00  0.00    -0.035 A 
HETATM   28  C   UNL     1     -40.321  53.169 -51.994  1.00  0.00     0.010 A 
HETATM   29  C   UNL     1     -39.787  51.884 -52.113  1.00  0.00     0.007 A 
HETATM   30  C   UNL     1     -39.919  51.173 -53.308  1.00  0.00    -0.062 A 
HETATM   31  C   UNL     1     -39.380  49.777 -53.423  1.00  0.00     0.048 C 
HETATM   32  C   UNL     1     -40.612  51.758 -54.374  1.00  0.00     0.007 A 
HETATM   33  C   UNL     1     -41.145  53.045 -54.257  1.00  0.00     0.010 A 
ENDBRANCH   1  27
TORSDOF 5
ENDMDL
MODEL 9
REMARK VINA RESULT:      -8.7      4.032      9.243
REMARK  5 active torsions:
REMARK  status: ('A' for Active; 'I' for Inactive)
REMARK    1  A    between atoms: C_5  and  C_6 
REMARK    2  A    between atoms: C_11  and  C_12 
REMARK       I    between atoms: C_12  and  N_13 
REMARK    3  A    between atoms: N_13  and  C_14 
REMARK    4  A    between atoms: C_16  and  O_17 
REMARK    5  A    between atoms: C_23  and  C_24 
ROOT
HETATM    1  C   UNL     1     -42.215  54.860 -52.744  1.00  0.00     0.118 C 
HETATM    2  N   UNL     1     -43.102  55.196 -53.862  1.00  0.00    -0.366 N 
HETATM    3  C   UNL     1     -43.089  56.410 -54.449  1.00  0.00     0.123 A 
HETATM    4  N   UNL     1     -42.513  57.482 -53.831  1.00  0.00    -0.240 N 
HETATM    5  N   UNL     1     -42.436  58.584 -54.598  1.00  0.00    -0.165 NA
HETATM    6  C   UNL     1     -43.089  58.218 -55.729  1.00  0.00     0.148 A 
HETATM    7  C   UNL     1     -43.547  56.872 -55.652  1.00  0.00     0.089 A 
HETATM    8  C   UNL     1     -41.868  57.387 -52.537  1.00  0.00     0.221 C 
HETATM    9  C   UNL     1     -41.226  55.999 -52.416  1.00  0.00     0.066 C 
HETATM   10  H   UNL     1     -43.516  54.392 -54.336  1.00  0.00     0.161 HD
ENDROOT
BRANCH   6  11
HETATM   11  C   UNL     1     -43.221  59.127 -56.883  1.00  0.00     0.276 C 
HETATM   12  N   UNL     1     -41.990  59.549 -57.343  1.00  0.00    -0.322 N 
HETATM   13  H   UNL     1     -41.212  59.196 -56.790  1.00  0.00     0.169 HD
HETATM   14  O   UNL     1     -44.319  59.416 -57.348  1.00  0.00    -0.266 OA
BRANCH  12  15
HETATM   15  C   UNL     1     -41.699  60.341 -58.466  1.00  0.00     0.037 A 
HETATM   16  C   UNL     1     -41.982  59.958 -59.780  1.00  0.00     0.066 A 
HETATM   17  C   UNL     1     -41.640  60.801 -60.836  1.00  0.00     0.067 A 
HETATM   18  C   UNL     1     -41.020  62.023 -60.607  1.00  0.00     0.036 A 
HETATM   19  C   UNL     1     -40.737  62.412 -59.301  1.00  0.00     0.005 A 
HETATM   20  C   UNL     1     -41.076  61.573 -58.235  1.00  0.00     0.029 A 
BRANCH  17  21
HETATM   21  O   UNL     1     -41.897  60.454 -62.130  1.00  0.00    -0.361 OA
HETATM   22  H   UNL     1     -41.969  61.269 -62.656  1.00  0.00     0.217 HD
ENDBRANCH  17  21
ENDBRANCH  12  15
ENDBRANCH   6  11
BRANCH   8  23
HETATM   23  C   UNL     1     -42.859  57.676 -51.434  1.00  0.00     0.409 C 
HETATM   24  F   UNL     1     -44.132  57.718 -51.887  1.00  0.00    -0.169 F 
HETATM   25  F   UNL     1     -42.813  56.795 -50.414  1.00  0.00    -0.169 F 
HETATM   26  F   UNL     1     -42.601  58.899 -50.899  1.00  0.00    -0.169 F 
ENDBRANCH   8  23
BRANCH   1  27
HETATM   27  C   UNL     1     -41.452  53.586 -53.071  1.00  0.00    -0.035 A 
HETATM   28  C   UNL     1     -41.644  52.922 -54.296  1.00  0.00     0.010 A 
HETATM   29  C   UNL     1     -40.925  51.766 -54.606  1.00  0.00     0.007 A 
HETATM   30  C   UNL     1     -40.000  51.245 -53.698  1.00  0.00    -0.062 A 
HETATM   31  C   UNL     1     -39.199  50.026 -54.047  1.00  0.00     0.048 C 
HETATM   32  C   UNL     1     -39.790  51.911 -52.485  1.00  0.00     0.007 A 
HETATM   33  C   UNL     1     -40.511  53.067 -52.172  1.00  0.00     0.010 A 
ENDBRANCH   1  27
TORSDOF 5
ENDMDL
MODEL 10
REMARK VINA RESULT:      -8.6      3.382      9.075
REMARK  5 active torsions:
REMARK  status: ('A' for Active; 'I' for Inactive)
REMARK    1  A    between atoms: C_5  and  C_6 
REMARK    2  A    between atoms: C_11  and  C_12 
REMARK       I    between atoms: C_12  and  N_13 
REMARK    3  A    between atoms: N_13  and  C_14 
REMARK    4  A    between atoms: C_16  and  O_17 
REMARK    5  A    between atoms: C_23  and  C_24 
ROOT
HETATM    1  C   UNL     1     -43.041  55.108 -53.927  1.00  0.00     0.118 C 
HETATM    2  N   UNL     1     -43.200  54.991 -55.380  1.00  0.00    -0.366 N 
HETATM    3  C   UNL     1     -43.051  56.048 -56.205  1.00  0.00     0.123 A 
HETATM    4  N   UNL     1     -43.085  57.325 -55.724  1.00  0.00    -0.240 N 
HETATM    5  N   UNL     1     -42.766  58.263 -56.633  1.00  0.00    -0.165 NA
HETATM    6  C   UNL     1     -42.619  57.548 -57.776  1.00  0.00     0.148 A 
HETATM    7  C   UNL     1     -42.831  56.159 -57.550  1.00  0.00     0.089 A 
HETATM    8  C   UNL     1     -43.258  57.628 -54.318  1.00  0.00     0.221 C 
HETATM    9  C   UNL     1     -42.587  56.520 -53.496  1.00  0.00     0.066 C 
HETATM   10  H   UNL     1     -43.154  54.037 -55.739  1.00  0.00     0.161 HD
ENDROOT
BRANCH   6  11
HETATM   11  C   UNL     1     -42.228  58.183 -59.049  1.00  0.00     0.276 C 
HETATM   12  N   UNL     1     -42.241  59.560 -58.956  1.00  0.00    -0.322 N 
HETATM   13  H   UNL     1     -42.552  59.900 -58.048  1.00  0.00     0.169 HD
HETATM   14  O   UNL     1     -41.915  57.515 -60.028  1.00  0.00    -0.266 OA
BRANCH  12  15
HETATM   15  C   UNL     1     -41.848  60.507 -59.918  1.00  0.00     0.037 A 
HETATM   16  C   UNL     1     -42.147  60.401 -61.278  1.00  0.00     0.066 A 
HETATM   17  C   UNL     1     -41.698  61.379 -62.163  1.00  0.00     0.067 A 
HETATM   18  C   UNL     1     -40.957  62.466 -61.717  1.00  0.00     0.036 A 
HETATM   19  C   UNL     1     -40.656  62.579 -60.363  1.00  0.00     0.005 A 
HETATM   20  C   UNL     1     -41.101  61.602 -59.467  1.00  0.00     0.029 A 
BRANCH  17  21
HETATM   21  O   UNL     1     -41.968  61.303 -63.499  1.00  0.00    -0.361 OA
HETATM   22  H   UNL     1     -41.181  61.601 -63.987  1.00  0.00     0.217 HD
ENDBRANCH  17  21
ENDBRANCH  12  15
ENDBRANCH   6  11
BRANCH   8  23
HETATM   23  C   UNL     1     -44.724  57.796 -53.995  1.00  0.00     0.409 C 
HETATM   24  F   UNL     1     -45.518  57.104 -54.842  1.00  0.00    -0.169 F 
HETATM   25  F   UNL     1     -45.050  57.436 -52.737  1.00  0.00    -0.169 F 
HETATM   26  F   UNL     1     -45.072  59.104 -54.123  1.00  0.00    -0.169 F 
ENDBRANCH   8  23
BRANCH   1  27
HETATM   27  C   UNL     1     -42.041  54.070 -53.444  1.00  0.00    -0.035 A 
HETATM   28  C   UNL     1     -41.490  53.128 -54.331  1.00  0.00     0.010 A 
HETATM   29  C   UNL     1     -40.553  52.191 -53.894  1.00  0.00     0.007 A 
HETATM   30  C   UNL     1     -40.147  52.171 -52.557  1.00  0.00    -0.062 A 
HETATM   31  C   UNL     1     -39.110  51.190 -52.094  1.00  0.00     0.048 C 
HETATM   32  C   UNL     1     -40.675  53.117 -51.672  1.00  0.00     0.007 A 
HETATM   33  C   UNL     1     -41.616  54.055 -52.109  1.00  0.00     0.010 A 
ENDBRANCH   1  27
TORSDOF 5
ENDMDL
