MODEL 1
REMARK VINA RESULT:      -7.6      0.000      0.000
REMARK  6 active torsions:
REMARK  status: ('A' for Active; 'I' for Inactive)
REMARK    1  A    between atoms: O_2  and  C_3 
REMARK    2  A    between atoms: C_4  and  O_5 
REMARK    3  A    between atoms: O_5  and  C_6 
REMARK    4  A    between atoms: C_9  and  N_10 
REMARK       I    between atoms: N_10  and  C_11 
REMARK    5  A    between atoms: C_11  and  C_12 
REMARK    6  A    between atoms: C_12  and  C_13 
ROOT
HETATM    1  C   UNL     1     -40.581  53.494 -51.683  1.00  0.00     0.103 A 
HETATM    2  C   UNL     1     -40.696  54.370 -52.775  1.00  0.00     0.109 A 
HETATM    3  C   UNL     1     -40.505  53.909 -54.082  1.00  0.00     0.041 A 
HETATM    4  C   UNL     1     -40.143  52.581 -54.304  1.00  0.00     0.025 A 
HETATM    5  C   UNL     1     -39.992  51.708 -53.221  1.00  0.00     0.047 A 
HETATM    6  C   UNL     1     -39.621  50.342 -53.447  1.00  0.00     0.099 C 
HETATM    7  N   UNL     1     -39.320  49.235 -53.625  1.00  0.00    -0.191 NA
HETATM    8  C   UNL     1     -40.213  52.163 -51.913  1.00  0.00     0.062 A 
ENDROOT
BRANCH   1   9
HETATM    9  O   UNL     1     -40.823  54.032 -50.447  1.00  0.00    -0.353 OA
HETATM   10  C   UNL     1     -39.694  54.327 -49.632  1.00  0.00     0.210 C 
ENDBRANCH   1   9
BRANCH   2  11
HETATM   11  O   UNL     1     -41.119  55.657 -52.521  1.00  0.00    -0.308 OA
BRANCH  11  12
HETATM   12  C   UNL     1     -42.072  56.222 -53.336  1.00  0.00     0.076 A 
HETATM   13  C   UNL     1     -41.653  57.321 -54.083  1.00  0.00     0.039 A 
HETATM   14  C   UNL     1     -42.522  57.939 -54.988  1.00  0.00     0.032 A 
HETATM   15  C   UNL     1     -43.822  57.459 -55.161  1.00  0.00     0.034 A 
HETATM   16  C   UNL     1     -44.236  56.351 -54.408  1.00  0.00     0.032 A 
HETATM   17  C   UNL     1     -43.361  55.723 -53.512  1.00  0.00     0.039 A 
BRANCH  15  18
HETATM   18  N   UNL     1     -44.756  58.023 -56.055  1.00  0.00    -0.327 N 
HETATM   19  C   UNL     1     -44.792  57.876 -57.436  1.00  0.00     0.227 C 
HETATM   20  O   UNL     1     -44.038  57.165 -58.099  1.00  0.00    -0.273 OA
HETATM   21  H   UNL     1     -45.507  58.553 -55.631  1.00  0.00     0.169 HD
BRANCH  19  22
HETATM   22  C   UNL     1     -45.948  58.653 -58.075  1.00  0.00     0.159 C 
BRANCH  22  23
HETATM   23  C   UNL     1     -46.564  57.965 -59.256  1.00  0.00     0.017 A 
HETATM   24  N   UNL     1     -46.727  56.599 -59.326  1.00  0.00    -0.369 N 
HETATM   25  H   UNL     1     -46.409  55.948 -58.611  1.00  0.00     0.165 HD
HETATM   26  C   UNL     1     -47.335  56.262 -60.505  1.00  0.00     0.088 A 
HETATM   27  C   UNL     1     -47.575  57.420 -61.205  1.00  0.00     0.019 A 
HETATM   28  C   UNL     1     -47.092  58.495 -60.420  1.00  0.00     0.027 A 
ENDBRANCH  22  23
ENDBRANCH  19  22
ENDBRANCH  15  18
ENDBRANCH  11  12
ENDBRANCH   2  11
TORSDOF 6
ENDMDL
MODEL 2
REMARK VINA RESULT:      -6.9      3.459      3.771
REMARK  6 active torsions:
REMARK  status: ('A' for Active; 'I' for Inactive)
REMARK    1  A    between atoms: O_2  and  C_3 
REMARK    2  A    between atoms: C_4  and  O_5 
REMARK    3  A    between atoms: O_5  and  C_6 
REMARK    4  A    between atoms: C_9  and  N_10 
REMARK       I    between atoms: N_10  and  C_11 
REMARK    5  A    between atoms: C_11  and  C_12 
REMARK    6  A    between atoms: C_12  and  C_13 
ROOT
HETATM    1  C   UNL     1     -40.249  53.411 -51.675  1.00  0.00     0.103 A 
HETATM    2  C   UNL     1     -41.099  54.267 -52.395  1.00  0.00     0.109 A 
HETATM    3  C   UNL     1     -41.581  53.898 -53.656  1.00  0.00     0.041 A 
HETATM    4  C   UNL     1     -41.173  52.695 -54.230  1.00  0.00     0.025 A 
HETATM    5  C   UNL     1     -40.299  51.851 -53.536  1.00  0.00     0.047 A 
HETATM    6  C   UNL     1     -39.878  50.613 -54.125  1.00  0.00     0.099 C 
HETATM    7  N   UNL     1     -39.533  49.610 -54.598  1.00  0.00    -0.191 NA
HETATM    8  C   UNL     1     -39.839  52.208 -52.260  1.00  0.00     0.062 A 
ENDROOT
BRANCH   1   9
HETATM    9  O   UNL     1     -39.861  53.846 -50.436  1.00  0.00    -0.353 OA
HETATM   10  C   UNL     1     -40.405  53.171 -49.308  1.00  0.00     0.210 C 
ENDBRANCH   1   9
BRANCH   2  11
HETATM   11  O   UNL     1     -41.533  55.415 -51.767  1.00  0.00    -0.308 OA
BRANCH  11  12
HETATM   12  C   UNL     1     -41.792  56.534 -52.522  1.00  0.00     0.076 A 
HETATM   13  C   UNL     1     -40.695  57.353 -52.785  1.00  0.00     0.039 A 
HETATM   14  C   UNL     1     -40.832  58.487 -53.591  1.00  0.00     0.032 A 
HETATM   15  C   UNL     1     -42.068  58.814 -54.151  1.00  0.00     0.034 A 
HETATM   16  C   UNL     1     -43.167  57.984 -53.886  1.00  0.00     0.032 A 
HETATM   17  C   UNL     1     -43.029  56.840 -53.089  1.00  0.00     0.039 A 
BRANCH  15  18
HETATM   18  N   UNL     1     -42.286  59.937 -54.977  1.00  0.00    -0.327 N 
HETATM   19  C   UNL     1     -42.035  60.039 -56.339  1.00  0.00     0.227 C 
HETATM   20  O   UNL     1     -41.636  59.128 -57.063  1.00  0.00    -0.273 OA
HETATM   21  H   UNL     1     -42.717  60.736 -54.529  1.00  0.00     0.169 HD
BRANCH  19  22
HETATM   22  C   UNL     1     -42.383  61.424 -56.893  1.00  0.00     0.159 C 
BRANCH  22  23
HETATM   23  C   UNL     1     -41.734  61.734 -58.209  1.00  0.00     0.017 A 
HETATM   24  N   UNL     1     -42.038  61.060 -59.372  1.00  0.00    -0.369 N 
HETATM   25  H   UNL     1     -42.688  60.279 -59.425  1.00  0.00     0.165 HD
HETATM   26  C   UNL     1     -41.311  61.571 -60.411  1.00  0.00     0.088 A 
HETATM   27  C   UNL     1     -40.531  62.593 -59.922  1.00  0.00     0.019 A 
HETATM   28  C   UNL     1     -40.797  62.698 -58.535  1.00  0.00     0.027 A 
ENDBRANCH  22  23
ENDBRANCH  19  22
ENDBRANCH  15  18
ENDBRANCH  11  12
ENDBRANCH   2  11
TORSDOF 6
ENDMDL
MODEL 3
REMARK VINA RESULT:      -6.9      2.589      9.403
REMARK  6 active torsions:
REMARK  status: ('A' for Active; 'I' for Inactive)
REMARK    1  A    between atoms: O_2  and  C_3 
REMARK    2  A    between atoms: C_4  and  O_5 
REMARK    3  A    between atoms: O_5  and  C_6 
REMARK    4  A    between atoms: C_9  and  N_10 
REMARK       I    between atoms: N_10  and  C_11 
REMARK    5  A    between atoms: C_11  and  C_12 
REMARK    6  A    between atoms: C_12  and  C_13 
ROOT
HETATM    1  C   UNL     1     -45.331  58.197 -59.645  1.00  0.00     0.103 A 
HETATM    2  C   UNL     1     -44.631  57.034 -59.283  1.00  0.00     0.109 A 
HETATM    3  C   UNL     1     -45.030  55.783 -59.766  1.00  0.00     0.041 A 
HETATM    4  C   UNL     1     -46.164  55.679 -60.571  1.00  0.00     0.025 A 
HETATM    5  C   UNL     1     -46.888  56.827 -60.908  1.00  0.00     0.047 A 
HETATM    6  C   UNL     1     -48.055  56.722 -61.736  1.00  0.00     0.099 C 
HETATM    7  N   UNL     1     -49.001  56.643 -62.405  1.00  0.00    -0.191 NA
HETATM    8  C   UNL     1     -46.471  58.085 -60.448  1.00  0.00     0.062 A 
ENDROOT
BRANCH   1   9
HETATM    9  O   UNL     1     -44.841  59.377 -59.150  1.00  0.00    -0.353 OA
HETATM   10  C   UNL     1     -45.716  60.162 -58.349  1.00  0.00     0.210 C 
ENDBRANCH   1   9
BRANCH   2  11
HETATM   11  O   UNL     1     -43.478  57.184 -58.542  1.00  0.00    -0.308 OA
BRANCH  11  12
HETATM   12  C   UNL     1     -43.439  56.697 -57.257  1.00  0.00     0.076 A 
HETATM   13  C   UNL     1     -44.104  57.462 -56.301  1.00  0.00     0.039 A 
HETATM   14  C   UNL     1     -44.177  57.032 -54.972  1.00  0.00     0.032 A 
HETATM   15  C   UNL     1     -43.592  55.825 -54.585  1.00  0.00     0.034 A 
HETATM   16  C   UNL     1     -42.929  55.058 -55.553  1.00  0.00     0.032 A 
HETATM   17  C   UNL     1     -42.866  55.481 -56.887  1.00  0.00     0.039 A 
BRANCH  15  18
HETATM   18  N   UNL     1     -43.627  55.321 -53.268  1.00  0.00    -0.327 N 
HETATM   19  C   UNL     1     -43.114  55.919 -52.125  1.00  0.00     0.227 C 
HETATM   20  O   UNL     1     -42.596  57.034 -52.073  1.00  0.00    -0.273 OA
HETATM   21  H   UNL     1     -44.124  54.447 -53.144  1.00  0.00     0.169 HD
BRANCH  19  22
HETATM   22  C   UNL     1     -43.326  55.062 -50.873  1.00  0.00     0.159 C 
BRANCH  22  23
HETATM   23  C   UNL     1     -42.059  54.503 -50.296  1.00  0.00     0.017 A 
HETATM   24  N   UNL     1     -41.405  53.417 -50.837  1.00  0.00    -0.369 N 
HETATM   25  H   UNL     1     -41.745  52.886 -51.636  1.00  0.00     0.165 HD
HETATM   26  C   UNL     1     -40.272  53.150 -50.118  1.00  0.00     0.088 A 
HETATM   27  C   UNL     1     -40.185  54.075 -49.104  1.00  0.00     0.019 A 
HETATM   28  C   UNL     1     -41.308  54.929 -49.215  1.00  0.00     0.027 A 
ENDBRANCH  22  23
ENDBRANCH  19  22
ENDBRANCH  15  18
ENDBRANCH  11  12
ENDBRANCH   2  11
TORSDOF 6
ENDMDL
MODEL 4
REMARK VINA RESULT:      -6.8      3.108      9.300
REMARK  6 active torsions:
REMARK  status: ('A' for Active; 'I' for Inactive)
REMARK    1  A    between atoms: O_2  and  C_3 
REMARK    2  A    between atoms: C_4  and  O_5 
REMARK    3  A    between atoms: O_5  and  C_6 
REMARK    4  A    between atoms: C_9  and  N_10 
REMARK       I    between atoms: N_10  and  C_11 
REMARK    5  A    between atoms: C_11  and  C_12 
REMARK    6  A    between atoms: C_12  and  C_13 
ROOT
HETATM    1  C   UNL     1     -43.603  59.069 -59.196  1.00  0.00     0.103 A 
HETATM    2  C   UNL     1     -43.188  59.134 -57.856  1.00  0.00     0.109 A 
HETATM    3  C   UNL     1     -42.195  60.038 -57.460  1.00  0.00     0.041 A 
HETATM    4  C   UNL     1     -41.571  60.844 -58.412  1.00  0.00     0.025 A 
HETATM    5  C   UNL     1     -41.953  60.762 -59.755  1.00  0.00     0.047 A 
HETATM    6  C   UNL     1     -41.313  61.590 -60.735  1.00  0.00     0.099 C 
HETATM    7  N   UNL     1     -40.798  62.258 -61.533  1.00  0.00    -0.191 NA
HETATM    8  C   UNL     1     -42.969  59.877 -60.146  1.00  0.00     0.062 A 
ENDROOT
BRANCH   1   9
HETATM    9  O   UNL     1     -44.606  58.179 -59.477  1.00  0.00    -0.353 OA
HETATM   10  C   UNL     1     -44.258  57.018 -60.222  1.00  0.00     0.210 C 
ENDBRANCH   1   9
BRANCH   2  11
HETATM   11  O   UNL     1     -43.873  58.371 -56.935  1.00  0.00    -0.308 OA
BRANCH  11  12
HETATM   12  C   UNL     1     -43.173  57.506 -56.128  1.00  0.00     0.076 A 
HETATM   13  C   UNL     1     -42.928  56.244 -56.665  1.00  0.00     0.039 A 
HETATM   14  C   UNL     1     -42.175  55.304 -55.954  1.00  0.00     0.032 A 
HETATM   15  C   UNL     1     -41.651  55.618 -54.699  1.00  0.00     0.034 A 
HETATM   16  C   UNL     1     -41.898  56.891 -54.166  1.00  0.00     0.032 A 
HETATM   17  C   UNL     1     -42.641  57.839 -54.883  1.00  0.00     0.039 A 
BRANCH  15  18
HETATM   18  N   UNL     1     -40.879  54.728 -53.923  1.00  0.00    -0.327 N 
HETATM   19  C   UNL     1     -41.317  53.928 -52.876  1.00  0.00     0.227 C 
HETATM   20  O   UNL     1     -42.483  53.822 -52.497  1.00  0.00    -0.273 OA
HETATM   21  H   UNL     1     -39.909  54.633 -54.197  1.00  0.00     0.169 HD
BRANCH  19  22
HETATM   22  C   UNL     1     -40.184  53.103 -52.259  1.00  0.00     0.159 C 
BRANCH  22  23
HETATM   23  C   UNL     1     -39.981  51.766 -52.909  1.00  0.00     0.017 A 
HETATM   24  N   UNL     1     -39.625  50.637 -52.204  1.00  0.00    -0.369 N 
HETATM   25  H   UNL     1     -39.431  50.624 -51.205  1.00  0.00     0.165 HD
HETATM   26  C   UNL     1     -39.536  49.567 -53.051  1.00  0.00     0.088 A 
HETATM   27  C   UNL     1     -39.843  50.003 -54.319  1.00  0.00     0.019 A 
HETATM   28  C   UNL     1     -40.125  51.387 -54.231  1.00  0.00     0.027 A 
ENDBRANCH  22  23
ENDBRANCH  19  22
ENDBRANCH  15  18
ENDBRANCH  11  12
ENDBRANCH   2  11
TORSDOF 6
ENDMDL
MODEL 5
REMARK VINA RESULT:      -6.8      2.014      9.545
REMARK  6 active torsions:
REMARK  status: ('A' for Active; 'I' for Inactive)
REMARK    1  A    between atoms: O_2  and  C_3 
REMARK    2  A    between atoms: C_4  and  O_5 
REMARK    3  A    between atoms: O_5  and  C_6 
REMARK    4  A    between atoms: C_9  and  N_10 
REMARK       I    between atoms: N_10  and  C_11 
REMARK    5  A    between atoms: C_11  and  C_12 
REMARK    6  A    between atoms: C_12  and  C_13 
ROOT
HETATM    1  C   UNL     1     -46.051  58.672 -59.882  1.00  0.00     0.103 A 
HETATM    2  C   UNL     1     -45.187  57.607 -59.580  1.00  0.00     0.109 A 
HETATM    3  C   UNL     1     -45.425  56.328 -60.096  1.00  0.00     0.041 A 
HETATM    4  C   UNL     1     -46.560  56.093 -60.872  1.00  0.00     0.025 A 
HETATM    5  C   UNL     1     -47.445  57.139 -61.150  1.00  0.00     0.047 A 
HETATM    6  C   UNL     1     -48.612  56.899 -61.948  1.00  0.00     0.099 C 
HETATM    7  N   UNL     1     -49.559  56.711 -62.593  1.00  0.00    -0.191 NA
HETATM    8  C   UNL     1     -47.190  58.428 -60.657  1.00  0.00     0.062 A 
ENDROOT
BRANCH   1   9
HETATM    9  O   UNL     1     -45.713  59.892 -59.359  1.00  0.00    -0.353 OA
HETATM   10  C   UNL     1     -46.503  60.383 -58.283  1.00  0.00     0.210 C 
ENDBRANCH   1   9
BRANCH   2  11
HETATM   11  O   UNL     1     -44.043  57.892 -58.867  1.00  0.00    -0.308 OA
BRANCH  11  12
HETATM   12  C   UNL     1     -43.796  57.213 -57.697  1.00  0.00     0.076 A 
HETATM   13  C   UNL     1     -43.000  56.076 -57.815  1.00  0.00     0.039 A 
HETATM   14  C   UNL     1     -42.638  55.340 -56.682  1.00  0.00     0.032 A 
HETATM   15  C   UNL     1     -43.064  55.740 -55.413  1.00  0.00     0.034 A 
HETATM   16  C   UNL     1     -43.861  56.887 -55.301  1.00  0.00     0.032 A 
HETATM   17  C   UNL     1     -44.213  57.632 -56.434  1.00  0.00     0.039 A 
BRANCH  15  18
HETATM   18  N   UNL     1     -42.738  55.056 -54.223  1.00  0.00    -0.327 N 
HETATM   19  C   UNL     1     -41.640  55.275 -53.402  1.00  0.00     0.227 C 
HETATM   20  O   UNL     1     -40.799  56.160 -53.553  1.00  0.00    -0.273 OA
HETATM   21  H   UNL     1     -43.408  54.362 -53.916  1.00  0.00     0.169 HD
BRANCH  19  22
HETATM   22  C   UNL     1     -41.610  54.322 -52.201  1.00  0.00     0.159 C 
BRANCH  22  23
HETATM   23  C   UNL     1     -40.722  53.129 -52.393  1.00  0.00     0.017 A 
HETATM   24  N   UNL     1     -40.219  52.394 -51.342  1.00  0.00    -0.369 N 
HETATM   25  H   UNL     1     -40.371  52.621 -50.362  1.00  0.00     0.165 HD
HETATM   26  C   UNL     1     -39.464  51.357 -51.818  1.00  0.00     0.088 A 
HETATM   27  C   UNL     1     -39.482  51.414 -53.192  1.00  0.00     0.019 A 
HETATM   28  C   UNL     1     -40.275  52.529 -53.556  1.00  0.00     0.027 A 
ENDBRANCH  22  23
ENDBRANCH  19  22
ENDBRANCH  15  18
ENDBRANCH  11  12
ENDBRANCH   2  11
TORSDOF 6
ENDMDL
MODEL 6
REMARK VINA RESULT:      -6.6     15.491     18.983
REMARK  6 active torsions:
REMARK  status: ('A' for Active; 'I' for Inactive)
REMARK    1  A    between atoms: O_2  and  C_3 
REMARK    2  A    between atoms: C_4  and  O_5 
REMARK    3  A    between atoms: O_5  and  C_6 
REMARK    4  A    between atoms: C_9  and  N_10 
REMARK       I    between atoms: N_10  and  C_11 
REMARK    5  A    between atoms: C_11  and  C_12 
REMARK    6  A    between atoms: C_12  and  C_13 
ROOT
HETATM    1  C   UNL     1     -31.656  38.248 -46.232  1.00  0.00     0.103 A 
HETATM    2  C   UNL     1     -31.408  38.824 -47.489  1.00  0.00     0.109 A 
HETATM    3  C   UNL     1     -30.484  39.866 -47.625  1.00  0.00     0.041 A 
HETATM    4  C   UNL     1     -29.842  40.377 -46.497  1.00  0.00     0.025 A 
HETATM    5  C   UNL     1     -30.108  39.833 -45.236  1.00  0.00     0.047 A 
HETATM    6  C   UNL     1     -29.449  40.356 -44.076  1.00  0.00     0.099 C 
HETATM    7  N   UNL     1     -28.918  40.777 -43.132  1.00  0.00    -0.191 NA
HETATM    8  C   UNL     1     -31.012  38.769 -45.104  1.00  0.00     0.062 A 
ENDROOT
BRANCH   1   9
HETATM    9  O   UNL     1     -32.550  37.211 -46.208  1.00  0.00    -0.353 OA
HETATM   10  C   UNL     1     -33.819  37.457 -45.615  1.00  0.00     0.210 C 
ENDBRANCH   1   9
BRANCH   2  11
HETATM   11  O   UNL     1     -32.011  38.250 -48.587  1.00  0.00    -0.308 OA
BRANCH  11  12
HETATM   12  C   UNL     1     -32.532  39.062 -49.567  1.00  0.00     0.076 A 
HETATM   13  C   UNL     1     -33.884  39.373 -49.437  1.00  0.00     0.039 A 
HETATM   14  C   UNL     1     -34.504  40.237 -50.344  1.00  0.00     0.032 A 
HETATM   15  C   UNL     1     -33.776  40.807 -51.391  1.00  0.00     0.034 A 
HETATM   16  C   UNL     1     -32.416  40.493 -51.513  1.00  0.00     0.032 A 
HETATM   17  C   UNL     1     -31.790  39.637 -50.597  1.00  0.00     0.039 A 
BRANCH  15  18
HETATM   18  N   UNL     1     -34.328  41.690 -52.343  1.00  0.00    -0.327 N 
HETATM   19  C   UNL     1     -35.224  41.380 -53.357  1.00  0.00     0.227 C 
HETATM   20  O   UNL     1     -35.736  40.278 -53.546  1.00  0.00    -0.273 OA
HETATM   21  H   UNL     1     -34.073  42.665 -52.239  1.00  0.00     0.169 HD
BRANCH  19  22
HETATM   22  C   UNL     1     -35.588  42.602 -54.207  1.00  0.00     0.159 C 
BRANCH  22  23
HETATM   23  C   UNL     1     -36.082  42.262 -55.582  1.00  0.00     0.017 A 
HETATM   24  N   UNL     1     -37.408  42.016 -55.862  1.00  0.00    -0.369 N 
HETATM   25  H   UNL     1     -38.147  42.003 -55.161  1.00  0.00     0.165 HD
HETATM   26  C   UNL     1     -37.563  41.756 -57.196  1.00  0.00     0.088 A 
HETATM   27  C   UNL     1     -36.326  41.841 -57.791  1.00  0.00     0.019 A 
HETATM   28  C   UNL     1     -35.392  42.161 -56.777  1.00  0.00     0.027 A 
ENDBRANCH  22  23
ENDBRANCH  19  22
ENDBRANCH  15  18
ENDBRANCH  11  12
ENDBRANCH   2  11
TORSDOF 6
ENDMDL
MODEL 7
REMARK VINA RESULT:      -6.6      3.612      4.223
REMARK  6 active torsions:
REMARK  status: ('A' for Active; 'I' for Inactive)
REMARK    1  A    between atoms: O_2  and  C_3 
REMARK    2  A    between atoms: C_4  and  O_5 
REMARK    3  A    between atoms: O_5  and  C_6 
REMARK    4  A    between atoms: C_9  and  N_10 
REMARK       I    between atoms: N_10  and  C_11 
REMARK    5  A    between atoms: C_11  and  C_12 
REMARK    6  A    between atoms: C_12  and  C_13 
ROOT
HETATM    1  C   UNL     1     -40.014  53.274 -51.464  1.00  0.00     0.103 A 
HETATM    2  C   UNL     1     -40.717  54.217 -52.233  1.00  0.00     0.109 A 
HETATM    3  C   UNL     1     -41.139  53.905 -53.530  1.00  0.00     0.041 A 
HETATM    4  C   UNL     1     -40.815  52.668 -54.088  1.00  0.00     0.025 A 
HETATM    5  C   UNL     1     -40.086  51.736 -53.342  1.00  0.00     0.047 A 
HETATM    6  C   UNL     1     -39.752  50.464 -53.913  1.00  0.00     0.099 C 
HETATM    7  N   UNL     1     -39.478  49.433 -54.371  1.00  0.00    -0.191 NA
HETATM    8  C   UNL     1     -39.688  52.038 -52.031  1.00  0.00     0.062 A 
ENDROOT
BRANCH   1   9
HETATM    9  O   UNL     1     -39.676  53.661 -50.194  1.00  0.00    -0.353 OA
HETATM   10  C   UNL     1     -40.486  53.181 -49.128  1.00  0.00     0.210 C 
ENDBRANCH   1   9
BRANCH   2  11
HETATM   11  O   UNL     1     -41.076  55.401 -51.625  1.00  0.00    -0.308 OA
BRANCH  11  12
HETATM   12  C   UNL     1     -41.776  56.338 -52.347  1.00  0.00     0.076 A 
HETATM   13  C   UNL     1     -43.151  56.368 -52.123  1.00  0.00     0.039 A 
HETATM   14  C   UNL     1     -43.954  57.319 -52.760  1.00  0.00     0.032 A 
HETATM   15  C   UNL     1     -43.389  58.258 -53.624  1.00  0.00     0.034 A 
HETATM   16  C   UNL     1     -42.005  58.226 -53.842  1.00  0.00     0.032 A 
HETATM   17  C   UNL     1     -41.197  57.281 -53.194  1.00  0.00     0.039 A 
BRANCH  15  18
HETATM   18  N   UNL     1     -44.130  59.252 -54.300  1.00  0.00    -0.327 N 
HETATM   19  C   UNL     1     -44.550  60.475 -53.795  1.00  0.00     0.227 C 
HETATM   20  O   UNL     1     -44.282  60.919 -52.680  1.00  0.00    -0.273 OA
HETATM   21  H   UNL     1     -44.333  59.064 -55.274  1.00  0.00     0.169 HD
BRANCH  19  22
HETATM   22  C   UNL     1     -45.349  61.285 -54.822  1.00  0.00     0.159 C 
BRANCH  22  23
HETATM   23  C   UNL     1     -46.621  61.868 -54.280  1.00  0.00     0.017 A 
HETATM   24  N   UNL     1     -47.200  61.440 -53.105  1.00  0.00    -0.369 N 
HETATM   25  H   UNL     1     -46.842  60.675 -52.537  1.00  0.00     0.165 HD
HETATM   26  C   UNL     1     -48.332  62.165 -52.853  1.00  0.00     0.088 A 
HETATM   27  C   UNL     1     -48.487  63.078 -53.870  1.00  0.00     0.019 A 
HETATM   28  C   UNL     1     -47.410  62.893 -54.769  1.00  0.00     0.027 A 
ENDBRANCH  22  23
ENDBRANCH  19  22
ENDBRANCH  15  18
ENDBRANCH  11  12
ENDBRANCH   2  11
TORSDOF 6
ENDMDL
MODEL 8
REMARK VINA RESULT:      -6.6     15.611     18.962
REMARK  6 active torsions:
REMARK  status: ('A' for Active; 'I' for Inactive)
REMARK    1  A    between atoms: O_2  and  C_3 
REMARK    2  A    between atoms: C_4  and  O_5 
REMARK    3  A    between atoms: O_5  and  C_6 
REMARK    4  A    between atoms: C_9  and  N_10 
REMARK       I    between atoms: N_10  and  C_11 
REMARK    5  A    between atoms: C_11  and  C_12 
REMARK    6  A    between atoms: C_12  and  C_13 
ROOT
HETATM    1  C   UNL     1     -30.847  39.217 -46.740  1.00  0.00     0.103 A 
HETATM    2  C   UNL     1     -31.568  38.494 -47.705  1.00  0.00     0.109 A 
HETATM    3  C   UNL     1     -32.629  37.663 -47.326  1.00  0.00     0.041 A 
HETATM    4  C   UNL     1     -32.940  37.507 -45.976  1.00  0.00     0.025 A 
HETATM    5  C   UNL     1     -32.205  38.196 -45.006  1.00  0.00     0.047 A 
HETATM    6  C   UNL     1     -32.524  38.036 -43.617  1.00  0.00     0.099 C 
HETATM    7  N   UNL     1     -32.778  37.910 -42.491  1.00  0.00    -0.191 NA
HETATM    8  C   UNL     1     -31.161  39.051 -45.388  1.00  0.00     0.062 A 
ENDROOT
BRANCH   1   9
HETATM    9  O   UNL     1     -29.851  40.031 -47.214  1.00  0.00    -0.353 OA
HETATM   10  C   UNL     1     -28.539  39.817 -46.708  1.00  0.00     0.210 C 
ENDBRANCH   1   9
BRANCH   2  11
HETATM   11  O   UNL     1     -31.275  38.726 -49.032  1.00  0.00    -0.308 OA
BRANCH  11  12
HETATM   12  C   UNL     1     -32.140  39.481 -49.787  1.00  0.00     0.076 A 
HETATM   13  C   UNL     1     -31.605  40.029 -50.951  1.00  0.00     0.039 A 
HETATM   14  C   UNL     1     -32.410  40.767 -51.825  1.00  0.00     0.032 A 
HETATM   15  C   UNL     1     -33.764  40.960 -51.547  1.00  0.00     0.034 A 
HETATM   16  C   UNL     1     -34.297  40.403 -50.376  1.00  0.00     0.032 A 
HETATM   17  C   UNL     1     -33.495  39.652 -49.507  1.00  0.00     0.039 A 
BRANCH  15  18
HETATM   18  N   UNL     1     -34.642  41.687 -52.379  1.00  0.00    -0.327 N 
HETATM   19  C   UNL     1     -35.288  41.232 -53.520  1.00  0.00     0.227 C 
HETATM   20  O   UNL     1     -35.244  40.082 -53.956  1.00  0.00    -0.273 OA
HETATM   21  H   UNL     1     -34.857  42.630 -52.076  1.00  0.00     0.169 HD
BRANCH  19  22
HETATM   22  C   UNL     1     -36.152  42.316 -54.173  1.00  0.00     0.159 C 
BRANCH  22  23
HETATM   23  C   UNL     1     -36.374  42.115 -55.643  1.00  0.00     0.017 A 
HETATM   24  N   UNL     1     -35.341  41.974 -56.544  1.00  0.00    -0.369 N 
HETATM   25  H   UNL     1     -34.356  42.036 -56.297  1.00  0.00     0.165 HD
HETATM   26  C   UNL     1     -35.843  41.782 -57.802  1.00  0.00     0.088 A 
HETATM   27  C   UNL     1     -37.215  41.792 -57.717  1.00  0.00     0.019 A 
HETATM   28  C   UNL     1     -37.552  41.999 -56.358  1.00  0.00     0.027 A 
ENDBRANCH  22  23
ENDBRANCH  19  22
ENDBRANCH  15  18
ENDBRANCH  11  12
ENDBRANCH   2  11
TORSDOF 6
ENDMDL
MODEL 9
REMARK VINA RESULT:      -6.5      3.031      9.415
REMARK  6 active torsions:
REMARK  status: ('A' for Active; 'I' for Inactive)
REMARK    1  A    between atoms: O_2  and  C_3 
REMARK    2  A    between atoms: C_4  and  O_5 
REMARK    3  A    between atoms: O_5  and  C_6 
REMARK    4  A    between atoms: C_9  and  N_10 
REMARK       I    between atoms: N_10  and  C_11 
REMARK    5  A    between atoms: C_11  and  C_12 
REMARK    6  A    between atoms: C_12  and  C_13 
ROOT
HETATM    1  C   UNL     1     -44.005  59.303 -58.489  1.00  0.00     0.103 A 
HETATM    2  C   UNL     1     -43.543  57.977 -58.526  1.00  0.00     0.109 A 
HETATM    3  C   UNL     1     -42.455  57.623 -59.332  1.00  0.00     0.041 A 
HETATM    4  C   UNL     1     -41.857  58.582 -60.150  1.00  0.00     0.025 A 
HETATM    5  C   UNL     1     -42.332  59.898 -60.146  1.00  0.00     0.047 A 
HETATM    6  C   UNL     1     -41.717  60.884 -60.985  1.00  0.00     0.099 C 
HETATM    7  N   UNL     1     -41.223  61.687 -61.663  1.00  0.00    -0.191 NA
HETATM    8  C   UNL     1     -43.403  60.258 -59.315  1.00  0.00     0.062 A 
ENDROOT
BRANCH   1   9
HETATM    9  O   UNL     1     -45.051  59.556 -57.641  1.00  0.00    -0.353 OA
HETATM   10  C   UNL     1     -44.793  60.390 -56.518  1.00  0.00     0.210 C 
ENDBRANCH   1   9
BRANCH   2  11
HETATM   11  O   UNL     1     -44.117  57.074 -57.656  1.00  0.00    -0.308 OA
BRANCH  11  12
HETATM   12  C   UNL     1     -43.366  56.575 -56.618  1.00  0.00     0.076 A 
HETATM   13  C   UNL     1     -43.025  55.227 -56.714  1.00  0.00     0.039 A 
HETATM   14  C   UNL     1     -42.216  54.629 -55.742  1.00  0.00     0.032 A 
HETATM   15  C   UNL     1     -41.732  55.374 -54.666  1.00  0.00     0.034 A 
HETATM   16  C   UNL     1     -42.076  56.731 -54.578  1.00  0.00     0.032 A 
HETATM   17  C   UNL     1     -42.876  57.335 -55.557  1.00  0.00     0.039 A 
BRANCH  15  18
HETATM   18  N   UNL     1     -40.908  54.846 -53.650  1.00  0.00    -0.327 N 
HETATM   19  C   UNL     1     -41.307  54.111 -52.541  1.00  0.00     0.227 C 
HETATM   20  O   UNL     1     -42.457  53.746 -52.302  1.00  0.00    -0.273 OA
HETATM   21  H   UNL     1     -39.912  54.981 -53.775  1.00  0.00     0.169 HD
BRANCH  19  22
HETATM   22  C   UNL     1     -40.127  53.720 -51.645  1.00  0.00     0.159 C 
BRANCH  22  23
HETATM   23  C   UNL     1     -39.988  52.242 -51.433  1.00  0.00     0.017 A 
HETATM   24  N   UNL     1     -39.493  51.390 -52.396  1.00  0.00    -0.369 N 
HETATM   25  H   UNL     1     -39.223  51.682 -53.333  1.00  0.00     0.165 HD
HETATM   26  C   UNL     1     -39.461  50.110 -51.914  1.00  0.00     0.088 A 
HETATM   27  C   UNL     1     -39.934  50.131 -50.623  1.00  0.00     0.019 A 
HETATM   28  C   UNL     1     -40.265  51.472 -50.317  1.00  0.00     0.027 A 
ENDBRANCH  22  23
ENDBRANCH  19  22
ENDBRANCH  15  18
ENDBRANCH  11  12
ENDBRANCH   2  11
TORSDOF 6
ENDMDL
MODEL 10
REMARK VINA RESULT:      -6.5      1.622      2.044
REMARK  6 active torsions:
REMARK  status: ('A' for Active; 'I' for Inactive)
REMARK    1  A    between atoms: O_2  and  C_3 
REMARK    2  A    between atoms: C_4  and  O_5 
REMARK    3  A    between atoms: O_5  and  C_6 
REMARK    4  A    between atoms: C_9  and  N_10 
REMARK       I    between atoms: N_10  and  C_11 
REMARK    5  A    between atoms: C_11  and  C_12 
REMARK    6  A    between atoms: C_12  and  C_13 
ROOT
HETATM    1  C   UNL     1     -40.325  53.547 -51.833  1.00  0.00     0.103 A 
HETATM    2  C   UNL     1     -40.658  54.216 -53.023  1.00  0.00     0.109 A 
HETATM    3  C   UNL     1     -40.687  53.528 -54.242  1.00  0.00     0.041 A 
HETATM    4  C   UNL     1     -40.331  52.181 -54.287  1.00  0.00     0.025 A 
HETATM    5  C   UNL     1     -39.966  51.515 -53.113  1.00  0.00     0.047 A 
HETATM    6  C   UNL     1     -39.600  50.129 -53.158  1.00  0.00     0.099 C 
HETATM    7  N   UNL     1     -39.302  49.007 -53.189  1.00  0.00    -0.191 NA
HETATM    8  C   UNL     1     -39.965  52.197 -51.887  1.00  0.00     0.062 A 
ENDROOT
BRANCH   1   9
HETATM    9  O   UNL     1     -40.360  54.298 -50.687  1.00  0.00    -0.353 OA
HETATM   10  C   UNL     1     -40.564  53.607 -49.461  1.00  0.00     0.210 C 
ENDBRANCH   1   9
BRANCH   2  11
HETATM   11  O   UNL     1     -41.067  55.528 -52.928  1.00  0.00    -0.308 OA
BRANCH  11  12
HETATM   12  C   UNL     1     -41.969  56.016 -53.843  1.00  0.00     0.076 A 
HETATM   13  C   UNL     1     -43.313  55.834 -53.522  1.00  0.00     0.039 A 
HETATM   14  C   UNL     1     -44.318  56.341 -54.352  1.00  0.00     0.032 A 
HETATM   15  C   UNL     1     -43.989  57.044 -55.513  1.00  0.00     0.034 A 
HETATM   16  C   UNL     1     -42.635  57.228 -55.828  1.00  0.00     0.032 A 
HETATM   17  C   UNL     1     -41.628  56.732 -54.989  1.00  0.00     0.039 A 
BRANCH  15  18
HETATM   18  N   UNL     1     -44.942  57.590 -56.398  1.00  0.00    -0.327 N 
HETATM   19  C   UNL     1     -45.509  58.857 -56.346  1.00  0.00     0.227 C 
HETATM   20  O   UNL     1     -45.214  59.739 -55.542  1.00  0.00    -0.273 OA
HETATM   21  H   UNL     1     -45.201  57.004 -57.183  1.00  0.00     0.169 HD
BRANCH  19  22
HETATM   22  C   UNL     1     -46.522  59.088 -57.472  1.00  0.00     0.159 C 
BRANCH  22  23
HETATM   23  C   UNL     1     -45.901  59.501 -58.774  1.00  0.00     0.017 A 
HETATM   24  N   UNL     1     -46.092  60.745 -59.334  1.00  0.00    -0.369 N 
HETATM   25  H   UNL     1     -46.695  61.463 -58.938  1.00  0.00     0.165 HD
HETATM   26  C   UNL     1     -45.389  60.844 -60.503  1.00  0.00     0.088 A 
HETATM   27  C   UNL     1     -44.729  59.654 -60.702  1.00  0.00     0.019 A 
HETATM   28  C   UNL     1     -45.049  58.807 -59.614  1.00  0.00     0.027 A 
ENDBRANCH  22  23
ENDBRANCH  19  22
ENDBRANCH  15  18
ENDBRANCH  11  12
ENDBRANCH   2  11
TORSDOF 6
ENDMDL
