MODEL 1
REMARK VINA RESULT:      -8.3      0.000      0.000
REMARK  7 active torsions:
REMARK  status: ('A' for Active; 'I' for Inactive)
REMARK    1  A    between atoms: C_4  and  N_5 
REMARK    2  A    between atoms: N_8  and  C_10 
REMARK    3  A    between atoms: C_10  and  C_11 
REMARK    4  A    between atoms: C_11  and  C_12 
REMARK    5  A    between atoms: C_12  and  C_13 
REMARK    6  A    between atoms: C_13  and  N_14 
REMARK       I    between atoms: N_14  and  C_15 
REMARK    7  A    between atoms: C_15  and  C_16 
ROOT
HETATM    1  C   UNL     1     -41.532  59.695 -53.549  1.00  0.00     0.123 C 
ENDROOT
BRANCH   1   2
HETATM    2  C   UNL     1     -42.804  60.308 -52.962  1.00  0.00     0.021 C 
BRANCH   2   3
HETATM    3  C   UNL     1     -43.795  59.225 -52.528  1.00  0.00     0.029 C 
BRANCH   3   4
HETATM    4  C   UNL     1     -43.652  58.916 -51.038  1.00  0.00     0.235 C 
BRANCH   4   5
HETATM    5  N   UNL     1     -43.140  57.510 -50.833  1.00  0.00    -0.068 N 
HETATM    6  C   UNL     1     -43.787  56.527 -51.822  1.00  0.00     0.254 C 
HETATM    7  C   UNL     1     -43.341  55.081 -51.516  1.00  0.00     0.150 C 
HETATM    8  N   UNL     1     -41.868  54.980 -51.506  1.00  0.00    -0.378 N 
HETATM    9  C   UNL     1     -41.184  55.931 -50.615  1.00  0.00     0.150 C 
HETATM   10  C   UNL     1     -41.611  57.384 -50.912  1.00  0.00     0.254 C 
HETATM   11  H   UNL     1     -43.421  57.201 -49.894  1.00  0.00     0.280 HD
BRANCH   8  12
HETATM   12  C   UNL     1     -41.234  54.460 -52.633  1.00  0.00     0.030 A 
HETATM   13  C   UNL     1     -40.976  53.089 -52.808  1.00  0.00     0.036 A 
HETATM   14  C   UNL     1     -40.352  52.586 -53.965  1.00  0.00    -0.060 A 
HETATM   15  C   UNL     1     -40.127  51.111 -54.139  1.00  0.00     0.048 C 
HETATM   16  C   UNL     1     -39.998  53.465 -54.988  1.00  0.00     0.007 A 
HETATM   17  C   UNL     1     -40.254  54.822 -54.852  1.00  0.00     0.003 A 
HETATM   18  C   UNL     1     -40.866  55.307 -53.692  1.00  0.00     0.029 A 
ENDBRANCH   8  12
ENDBRANCH   4   5
ENDBRANCH   3   4
ENDBRANCH   2   3
ENDBRANCH   1   2
BRANCH   1  19
HETATM   19  N   UNL     1     -41.819  58.723 -54.582  1.00  0.00    -0.357 N 
HETATM   20  C   UNL     1     -41.954  59.105 -55.905  1.00  0.00     0.254 C 
HETATM   21  O   UNL     1     -41.743  60.257 -56.274  1.00  0.00    -0.268 OA
HETATM   22  H   UNL     1     -41.882  57.750 -54.318  1.00  0.00     0.162 HD
BRANCH  20  23
HETATM   23  C   UNL     1     -42.333  58.051 -56.883  1.00  0.00     0.064 A 
HETATM   24  C   UNL     1     -42.367  58.340 -58.237  1.00  0.00     0.077 A 
HETATM   25  C   UNL     1     -42.714  57.381 -59.193  1.00  0.00     0.065 A 
HETATM   26  N   UNL     1     -42.097  59.530 -58.918  1.00  0.00    -0.330 N 
HETATM   27  N   UNL     1     -42.653  57.978 -60.452  1.00  0.00    -0.331 N 
HETATM   28  C   UNL     1     -43.052  56.094 -58.856  1.00  0.00     0.074 A 
HETATM   29  C   UNL     1     -42.279  59.318 -60.286  1.00  0.00     0.176 A 
HETATM   30  H   UNL     1     -42.862  57.545 -61.339  1.00  0.00     0.168 HD
HETATM   31  S   UNL     1     -42.093  60.434 -61.482  1.00  0.00    -0.041 SA
HETATM   32  C   UNL     1     -43.040  55.795 -57.495  1.00  0.00     0.119 A 
HETATM   33  F   UNL     1     -43.374  54.560 -57.097  1.00  0.00    -0.206 F 
HETATM   34  C   UNL     1     -42.692  56.746 -56.515  1.00  0.00     0.061 A 
HETATM   35  H   UNL     1     -41.865  60.408 -58.469  1.00  0.00     0.168 HD
ENDBRANCH  20  23
ENDBRANCH   1  19
TORSDOF 7
ENDMDL
MODEL 2
REMARK VINA RESULT:      -8.2      2.483      3.232
REMARK  7 active torsions:
REMARK  status: ('A' for Active; 'I' for Inactive)
REMARK    1  A    between atoms: C_4  and  N_5 
REMARK    2  A    between atoms: N_8  and  C_10 
REMARK    3  A    between atoms: C_10  and  C_11 
REMARK    4  A    between atoms: C_11  and  C_12 
REMARK    5  A    between atoms: C_12  and  C_13 
REMARK    6  A    between atoms: C_13  and  N_14 
REMARK       I    between atoms: N_14  and  C_15 
REMARK    7  A    between atoms: C_15  and  C_16 
ROOT
HETATM    1  C   UNL     1     -45.096  59.407 -54.071  1.00  0.00     0.123 C 
ENDROOT
BRANCH   1   2
HETATM    2  C   UNL     1     -44.109  59.948 -53.034  1.00  0.00     0.021 C 
BRANCH   2   3
HETATM    3  C   UNL     1     -43.722  58.870 -52.019  1.00  0.00     0.029 C 
BRANCH   3   4
HETATM    4  C   UNL     1     -42.323  58.326 -52.303  1.00  0.00     0.235 C 
BRANCH   4   5
HETATM    5  N   UNL     1     -42.398  57.076 -53.147  1.00  0.00    -0.068 N 
HETATM    6  C   UNL     1     -41.010  56.664 -53.664  1.00  0.00     0.254 C 
HETATM    7  C   UNL     1     -41.125  55.457 -54.621  1.00  0.00     0.150 C 
HETATM    8  N   UNL     1     -41.837  54.341 -53.968  1.00  0.00    -0.378 N 
HETATM    9  C   UNL     1     -43.153  54.683 -53.407  1.00  0.00     0.150 C 
HETATM   10  C   UNL     1     -43.056  55.882 -52.440  1.00  0.00     0.254 C 
HETATM   11  H   UNL     1     -42.964  57.285 -53.979  1.00  0.00     0.280 HD
BRANCH   8  12
HETATM   12  C   UNL     1     -41.081  53.288 -53.454  1.00  0.00     0.030 A 
HETATM   13  C   UNL     1     -40.713  52.162 -54.210  1.00  0.00     0.036 A 
HETATM   14  C   UNL     1     -39.932  51.121 -53.674  1.00  0.00    -0.060 A 
HETATM   15  C   UNL     1     -39.521  49.951 -54.521  1.00  0.00     0.048 C 
HETATM   16  C   UNL     1     -39.483  51.212 -52.357  1.00  0.00     0.007 A 
HETATM   17  C   UNL     1     -39.817  52.319 -51.588  1.00  0.00     0.003 A 
HETATM   18  C   UNL     1     -40.601  53.341 -52.134  1.00  0.00     0.029 A 
ENDBRANCH   8  12
ENDBRANCH   4   5
ENDBRANCH   3   4
ENDBRANCH   2   3
ENDBRANCH   1   2
BRANCH   1  19
HETATM   19  N   UNL     1     -44.576  59.494 -55.419  1.00  0.00    -0.357 N 
HETATM   20  C   UNL     1     -44.029  58.390 -56.046  1.00  0.00     0.254 C 
HETATM   21  O   UNL     1     -44.045  57.275 -55.532  1.00  0.00    -0.268 OA
HETATM   22  H   UNL     1     -44.657  60.376 -55.906  1.00  0.00     0.162 HD
BRANCH  20  23
HETATM   23  C   UNL     1     -43.443  58.595 -57.397  1.00  0.00     0.064 A 
HETATM   24  C   UNL     1     -43.647  57.654 -58.393  1.00  0.00     0.077 A 
HETATM   25  C   UNL     1     -43.120  57.805 -59.679  1.00  0.00     0.065 A 
HETATM   26  N   UNL     1     -44.350  56.447 -58.370  1.00  0.00    -0.330 N 
HETATM   27  N   UNL     1     -43.501  56.700 -60.439  1.00  0.00    -0.331 N 
HETATM   28  C   UNL     1     -42.358  58.889 -60.039  1.00  0.00     0.074 A 
HETATM   29  C   UNL     1     -44.258  55.847 -59.628  1.00  0.00     0.176 A 
HETATM   30  H   UNL     1     -43.261  56.516 -61.402  1.00  0.00     0.168 HD
HETATM   31  S   UNL     1     -44.915  54.404 -60.073  1.00  0.00    -0.041 SA
HETATM   32  C   UNL     1     -42.130  59.834 -59.042  1.00  0.00     0.119 A 
HETATM   33  F   UNL     1     -41.381  60.909 -59.323  1.00  0.00    -0.206 F 
HETATM   34  C   UNL     1     -42.653  59.702 -57.739  1.00  0.00     0.061 A 
HETATM   35  H   UNL     1     -44.799  56.059 -57.548  1.00  0.00     0.168 HD
ENDBRANCH  20  23
ENDBRANCH   1  19
TORSDOF 7
ENDMDL
MODEL 3
REMARK VINA RESULT:      -8.0      1.219      2.013
REMARK  7 active torsions:
REMARK  status: ('A' for Active; 'I' for Inactive)
REMARK    1  A    between atoms: C_4  and  N_5 
REMARK    2  A    between atoms: N_8  and  C_10 
REMARK    3  A    between atoms: C_10  and  C_11 
REMARK    4  A    between atoms: C_11  and  C_12 
REMARK    5  A    between atoms: C_12  and  C_13 
REMARK    6  A    between atoms: C_13  and  N_14 
REMARK       I    between atoms: N_14  and  C_15 
REMARK    7  A    between atoms: C_15  and  C_16 
ROOT
HETATM    1  C   UNL     1     -43.530  60.858 -54.179  1.00  0.00     0.123 C 
ENDROOT
BRANCH   1   2
HETATM    2  C   UNL     1     -43.134  60.490 -52.748  1.00  0.00     0.021 C 
BRANCH   2   3
HETATM    3  C   UNL     1     -42.045  59.415 -52.731  1.00  0.00     0.029 C 
BRANCH   3   4
HETATM    4  C   UNL     1     -42.553  58.129 -52.083  1.00  0.00     0.235 C 
BRANCH   4   5
HETATM    5  N   UNL     1     -42.433  56.967 -53.041  1.00  0.00    -0.068 N 
HETATM    6  C   UNL     1     -40.961  56.632 -53.334  1.00  0.00     0.254 C 
HETATM    7  C   UNL     1     -40.863  55.523 -54.405  1.00  0.00     0.150 C 
HETATM    8  N   UNL     1     -41.639  54.336 -53.999  1.00  0.00    -0.378 N 
HETATM    9  C   UNL     1     -43.045  54.597 -53.655  1.00  0.00     0.150 C 
HETATM   10  C   UNL     1     -43.164  55.697 -52.579  1.00  0.00     0.254 C 
HETATM   11  H   UNL     1     -42.849  57.246 -53.937  1.00  0.00     0.280 HD
BRANCH   8  12
HETATM   12  C   UNL     1     -40.951  53.251 -53.457  1.00  0.00     0.030 A 
HETATM   13  C   UNL     1     -40.591  52.116 -54.205  1.00  0.00     0.036 A 
HETATM   14  C   UNL     1     -39.877  51.042 -53.640  1.00  0.00    -0.060 A 
HETATM   15  C   UNL     1     -39.471  49.862 -54.476  1.00  0.00     0.048 C 
HETATM   16  C   UNL     1     -39.491  51.107 -52.302  1.00  0.00     0.007 A 
HETATM   17  C   UNL     1     -39.818  52.221 -51.541  1.00  0.00     0.003 A 
HETATM   18  C   UNL     1     -40.534  53.276 -52.115  1.00  0.00     0.029 A 
ENDBRANCH   8  12
ENDBRANCH   4   5
ENDBRANCH   3   4
ENDBRANCH   2   3
ENDBRANCH   1   2
BRANCH   1  19
HETATM   19  N   UNL     1     -43.498  59.716 -55.067  1.00  0.00    -0.357 N 
HETATM   20  C   UNL     1     -42.564  59.625 -56.081  1.00  0.00     0.254 C 
HETATM   21  O   UNL     1     -41.666  60.452 -56.216  1.00  0.00    -0.268 OA
HETATM   22  H   UNL     1     -44.156  58.965 -54.903  1.00  0.00     0.162 HD
BRANCH  20  23
HETATM   23  C   UNL     1     -42.662  58.456 -56.996  1.00  0.00     0.064 A 
HETATM   24  C   UNL     1     -42.516  58.629 -58.362  1.00  0.00     0.077 A 
HETATM   25  C   UNL     1     -42.596  57.560 -59.260  1.00  0.00     0.065 A 
HETATM   26  N   UNL     1     -42.281  59.785 -59.110  1.00  0.00    -0.330 N 
HETATM   27  N   UNL     1     -42.407  58.058 -60.548  1.00  0.00    -0.331 N 
HETATM   28  C   UNL     1     -42.833  56.271 -58.850  1.00  0.00     0.074 A 
HETATM   29  C   UNL     1     -42.221  59.443 -60.463  1.00  0.00     0.176 A 
HETATM   30  H   UNL     1     -42.424  57.532 -61.410  1.00  0.00     0.168 HD
HETATM   31  S   UNL     1     -41.979  60.475 -61.723  1.00  0.00    -0.041 SA
HETATM   32  C   UNL     1     -43.000  56.086 -57.479  1.00  0.00     0.119 A 
HETATM   33  F   UNL     1     -43.249  54.855 -57.015  1.00  0.00    -0.206 F 
HETATM   34  C   UNL     1     -42.922  57.149 -56.557  1.00  0.00     0.061 A 
HETATM   35  H   UNL     1     -42.224  60.720 -58.721  1.00  0.00     0.168 HD
ENDBRANCH  20  23
ENDBRANCH   1  19
TORSDOF 7
ENDMDL
MODEL 4
REMARK VINA RESULT:      -7.9      3.515      7.601
REMARK  7 active torsions:
REMARK  status: ('A' for Active; 'I' for Inactive)
REMARK    1  A    between atoms: C_4  and  N_5 
REMARK    2  A    between atoms: N_8  and  C_10 
REMARK    3  A    between atoms: C_10  and  C_11 
REMARK    4  A    between atoms: C_11  and  C_12 
REMARK    5  A    between atoms: C_12  and  C_13 
REMARK    6  A    between atoms: C_13  and  N_14 
REMARK       I    between atoms: N_14  and  C_15 
REMARK    7  A    between atoms: C_15  and  C_16 
ROOT
HETATM    1  C   UNL     1     -43.197  58.534 -51.604  1.00  0.00     0.123 C 
ENDROOT
BRANCH   1   2
HETATM    2  C   UNL     1     -44.578  58.184 -52.162  1.00  0.00     0.021 C 
BRANCH   2   3
HETATM    3  C   UNL     1     -44.626  58.361 -53.681  1.00  0.00     0.029 C 
BRANCH   3   4
HETATM    4  C   UNL     1     -43.313  58.938 -54.209  1.00  0.00     0.235 C 
BRANCH   4   5
HETATM    5  N   UNL     1     -42.801  58.121 -55.371  1.00  0.00    -0.068 N 
HETATM    6  C   UNL     1     -43.520  56.765 -55.464  1.00  0.00     0.254 C 
HETATM    7  C   UNL     1     -42.899  55.899 -56.582  1.00  0.00     0.150 C 
HETATM    8  N   UNL     1     -42.902  56.627 -57.867  1.00  0.00    -0.378 N 
HETATM    9  C   UNL     1     -42.273  57.956 -57.833  1.00  0.00     0.150 C 
HETATM   10  C   UNL     1     -42.886  58.839 -56.726  1.00  0.00     0.254 C 
HETATM   11  H   UNL     1     -41.810  57.910 -55.203  1.00  0.00     0.280 HD
BRANCH   8  12
HETATM   12  C   UNL     1     -43.894  56.319 -58.797  1.00  0.00     0.030 A 
HETATM   13  C   UNL     1     -44.945  57.195 -59.120  1.00  0.00     0.036 A 
HETATM   14  C   UNL     1     -45.924  56.869 -60.078  1.00  0.00    -0.060 A 
HETATM   15  C   UNL     1     -47.011  57.844 -60.431  1.00  0.00     0.048 C 
HETATM   16  C   UNL     1     -45.843  55.651 -60.752  1.00  0.00     0.007 A 
HETATM   17  C   UNL     1     -44.808  54.771 -60.466  1.00  0.00     0.003 A 
HETATM   18  C   UNL     1     -43.849  55.106 -59.505  1.00  0.00     0.029 A 
ENDBRANCH   8  12
ENDBRANCH   4   5
ENDBRANCH   3   4
ENDBRANCH   2   3
ENDBRANCH   1   2
BRANCH   1  19
HETATM   19  N   UNL     1     -42.598  57.427 -50.890  1.00  0.00    -0.357 N 
HETATM   20  C   UNL     1     -41.740  56.548 -51.524  1.00  0.00     0.254 C 
HETATM   21  O   UNL     1     -41.375  56.717 -52.684  1.00  0.00    -0.268 OA
HETATM   22  H   UNL     1     -42.794  57.335 -49.902  1.00  0.00     0.162 HD
BRANCH  20  23
HETATM   23  C   UNL     1     -41.241  55.392 -50.733  1.00  0.00     0.064 A 
HETATM   24  C   UNL     1     -40.841  54.232 -51.373  1.00  0.00     0.077 A 
HETATM   25  C   UNL     1     -40.360  53.122 -50.671  1.00  0.00     0.065 A 
HETATM   26  N   UNL     1     -40.818  53.907 -52.732  1.00  0.00    -0.330 N 
HETATM   27  N   UNL     1     -40.043  52.127 -51.594  1.00  0.00    -0.331 N 
HETATM   28  C   UNL     1     -40.263  53.104 -49.302  1.00  0.00     0.074 A 
HETATM   29  C   UNL     1     -40.335  52.606 -52.877  1.00  0.00     0.176 A 
HETATM   30  H   UNL     1     -39.687  51.204 -51.392  1.00  0.00     0.168 HD
HETATM   31  S   UNL     1     -40.145  51.785 -54.293  1.00  0.00    -0.041 SA
HETATM   32  C   UNL     1     -40.679  54.258 -48.644  1.00  0.00     0.119 A 
HETATM   33  F   UNL     1     -40.624  54.301 -47.306  1.00  0.00    -0.206 F 
HETATM   34  C   UNL     1     -41.165  55.389 -49.332  1.00  0.00     0.061 A 
HETATM   35  H   UNL     1     -41.157  54.511 -53.473  1.00  0.00     0.168 HD
ENDBRANCH  20  23
ENDBRANCH   1  19
TORSDOF 7
ENDMDL
MODEL 5
REMARK VINA RESULT:      -7.8      1.869      2.202
REMARK  7 active torsions:
REMARK  status: ('A' for Active; 'I' for Inactive)
REMARK    1  A    between atoms: C_4  and  N_5 
REMARK    2  A    between atoms: N_8  and  C_10 
REMARK    3  A    between atoms: C_10  and  C_11 
REMARK    4  A    between atoms: C_11  and  C_12 
REMARK    5  A    between atoms: C_12  and  C_13 
REMARK    6  A    between atoms: C_13  and  N_14 
REMARK       I    between atoms: N_14  and  C_15 
REMARK    7  A    between atoms: C_15  and  C_16 
ROOT
HETATM    1  C   UNL     1     -45.421  60.676 -53.728  1.00  0.00     0.123 C 
ENDROOT
BRANCH   1   2
HETATM    2  C   UNL     1     -45.845  60.702 -52.259  1.00  0.00     0.021 C 
BRANCH   2   3
HETATM    3  C   UNL     1     -44.778  60.072 -51.361  1.00  0.00     0.029 C 
BRANCH   3   4
HETATM    4  C   UNL     1     -45.154  58.641 -50.981  1.00  0.00     0.235 C 
BRANCH   4   5
HETATM    5  N   UNL     1     -43.917  57.819 -50.707  1.00  0.00    -0.068 N 
HETATM    6  C   UNL     1     -44.130  56.342 -51.079  1.00  0.00     0.254 C 
HETATM    7  C   UNL     1     -42.898  55.501 -50.679  1.00  0.00     0.150 C 
HETATM    8  N   UNL     1     -41.669  56.060 -51.276  1.00  0.00    -0.378 N 
HETATM    9  C   UNL     1     -41.433  57.485 -50.999  1.00  0.00     0.150 C 
HETATM   10  C   UNL     1     -42.651  58.344 -51.401  1.00  0.00     0.254 C 
HETATM   11  H   UNL     1     -43.737  57.838 -49.696  1.00  0.00     0.280 HD
BRANCH   8  12
HETATM   12  C   UNL     1     -41.154  55.450 -52.419  1.00  0.00     0.030 A 
HETATM   13  C   UNL     1     -41.085  54.055 -52.583  1.00  0.00     0.036 A 
HETATM   14  C   UNL     1     -40.580  53.462 -53.755  1.00  0.00    -0.060 A 
HETATM   15  C   UNL     1     -40.558  51.969 -53.915  1.00  0.00     0.048 C 
HETATM   16  C   UNL     1     -40.154  54.276 -54.804  1.00  0.00     0.007 A 
HETATM   17  C   UNL     1     -40.224  55.657 -54.679  1.00  0.00     0.003 A 
HETATM   18  C   UNL     1     -40.721  56.230 -53.504  1.00  0.00     0.029 A 
ENDBRANCH   8  12
ENDBRANCH   4   5
ENDBRANCH   3   4
ENDBRANCH   2   3
ENDBRANCH   1   2
BRANCH   1  19
HETATM   19  N   UNL     1     -44.794  59.425 -54.096  1.00  0.00    -0.357 N 
HETATM   20  C   UNL     1     -44.921  58.910 -55.373  1.00  0.00     0.254 C 
HETATM   21  O   UNL     1     -45.484  59.529 -56.271  1.00  0.00    -0.268 OA
HETATM   22  H   UNL     1     -44.227  58.953 -53.404  1.00  0.00     0.162 HD
BRANCH  20  23
HETATM   23  C   UNL     1     -44.315  57.578 -55.634  1.00  0.00     0.064 A 
HETATM   24  C   UNL     1     -43.630  57.345 -56.815  1.00  0.00     0.077 A 
HETATM   25  C   UNL     1     -43.040  56.111 -57.102  1.00  0.00     0.065 A 
HETATM   26  N   UNL     1     -43.383  58.189 -57.901  1.00  0.00    -0.330 N 
HETATM   27  N   UNL     1     -42.432  56.199 -58.354  1.00  0.00    -0.331 N 
HETATM   28  C   UNL     1     -43.107  55.045 -56.240  1.00  0.00     0.074 A 
HETATM   29  C   UNL     1     -42.651  57.486 -58.860  1.00  0.00     0.176 A 
HETATM   30  H   UNL     1     -41.937  55.465 -58.840  1.00  0.00     0.168 HD
HETATM   31  S   UNL     1     -42.141  58.061 -60.317  1.00  0.00    -0.041 SA
HETATM   32  C   UNL     1     -43.809  55.259 -55.056  1.00  0.00     0.119 A 
HETATM   33  F   UNL     1     -43.924  54.255 -54.177  1.00  0.00    -0.206 F 
HETATM   34  C   UNL     1     -44.410  56.496 -54.746  1.00  0.00     0.061 A 
HETATM   35  H   UNL     1     -43.736  59.135 -57.986  1.00  0.00     0.168 HD
ENDBRANCH  20  23
ENDBRANCH   1  19
TORSDOF 7
ENDMDL
MODEL 6
REMARK VINA RESULT:      -7.7      2.141      2.605
REMARK  7 active torsions:
REMARK  status: ('A' for Active; 'I' for Inactive)
REMARK    1  A    between atoms: C_4  and  N_5 
REMARK    2  A    between atoms: N_8  and  C_10 
REMARK    3  A    between atoms: C_10  and  C_11 
REMARK    4  A    between atoms: C_11  and  C_12 
REMARK    5  A    between atoms: C_12  and  C_13 
REMARK    6  A    between atoms: C_13  and  N_14 
REMARK       I    between atoms: N_14  and  C_15 
REMARK    7  A    between atoms: C_15  and  C_16 
ROOT
HETATM    1  C   UNL     1     -42.274  60.356 -53.806  1.00  0.00     0.123 C 
ENDROOT
BRANCH   1   2
HETATM    2  C   UNL     1     -43.632  60.715 -53.199  1.00  0.00     0.021 C 
BRANCH   2   3
HETATM    3  C   UNL     1     -43.983  59.786 -52.034  1.00  0.00     0.029 C 
BRANCH   3   4
HETATM    4  C   UNL     1     -42.764  59.527 -51.152  1.00  0.00     0.235 C 
BRANCH   4   5
HETATM    5  N   UNL     1     -42.575  58.046 -50.925  1.00  0.00    -0.068 N 
HETATM    6  C   UNL     1     -43.339  57.217 -51.971  1.00  0.00     0.254 C 
HETATM    7  C   UNL     1     -43.231  55.710 -51.650  1.00  0.00     0.150 C 
HETATM    8  N   UNL     1     -41.817  55.302 -51.532  1.00  0.00    -0.378 N 
HETATM    9  C   UNL     1     -41.017  56.091 -50.583  1.00  0.00     0.150 C 
HETATM   10  C   UNL     1     -41.105  57.600 -50.893  1.00  0.00     0.254 C 
HETATM   11  H   UNL     1     -42.984  57.806 -50.014  1.00  0.00     0.280 HD
BRANCH   8  12
HETATM   12  C   UNL     1     -41.225  54.655 -52.616  1.00  0.00     0.030 A 
HETATM   13  C   UNL     1     -40.853  53.300 -52.595  1.00  0.00     0.036 A 
HETATM   14  C   UNL     1     -40.275  52.664 -53.710  1.00  0.00    -0.060 A 
HETATM   15  C   UNL     1     -39.927  51.203 -53.669  1.00  0.00     0.048 C 
HETATM   16  C   UNL     1     -40.083  53.387 -54.886  1.00  0.00     0.007 A 
HETATM   17  C   UNL     1     -40.454  54.724 -54.944  1.00  0.00     0.003 A 
HETATM   18  C   UNL     1     -41.020  55.343 -53.824  1.00  0.00     0.029 A 
ENDBRANCH   8  12
ENDBRANCH   4   5
ENDBRANCH   3   4
ENDBRANCH   2   3
ENDBRANCH   1   2
BRANCH   1  19
HETATM   19  N   UNL     1     -42.270  60.477 -55.248  1.00  0.00    -0.357 N 
HETATM   20  C   UNL     1     -42.143  59.364 -56.059  1.00  0.00     0.254 C 
HETATM   21  O   UNL     1     -42.124  58.225 -55.602  1.00  0.00    -0.268 OA
HETATM   22  H   UNL     1     -42.401  61.395 -55.651  1.00  0.00     0.162 HD
BRANCH  20  23
HETATM   23  C   UNL     1     -42.063  59.594 -57.526  1.00  0.00     0.064 A 
HETATM   24  C   UNL     1     -42.518  58.628 -58.406  1.00  0.00     0.077 A 
HETATM   25  C   UNL     1     -42.467  58.802 -59.793  1.00  0.00     0.065 A 
HETATM   26  N   UNL     1     -43.080  57.372 -58.164  1.00  0.00    -0.330 N 
HETATM   27  N   UNL     1     -42.998  57.662 -60.395  1.00  0.00    -0.331 N 
HETATM   28  C   UNL     1     -41.955  59.935 -60.374  1.00  0.00     0.074 A 
HETATM   29  C   UNL     1     -43.372  56.764 -59.387  1.00  0.00     0.176 A 
HETATM   30  H   UNL     1     -43.083  57.483 -61.385  1.00  0.00     0.168 HD
HETATM   31  S   UNL     1     -44.030  55.270 -59.605  1.00  0.00    -0.041 SA
HETATM   32  C   UNL     1     -41.476  60.908 -59.499  1.00  0.00     0.119 A 
HETATM   33  F   UNL     1     -40.949  62.032 -60.002  1.00  0.00    -0.206 F 
HETATM   34  C   UNL     1     -41.519  60.754 -58.099  1.00  0.00     0.061 A 
HETATM   35  H   UNL     1     -43.196  56.962 -57.244  1.00  0.00     0.168 HD
ENDBRANCH  20  23
ENDBRANCH   1  19
TORSDOF 7
ENDMDL
MODEL 7
REMARK VINA RESULT:      -7.7      1.776      2.297
REMARK  7 active torsions:
REMARK  status: ('A' for Active; 'I' for Inactive)
REMARK    1  A    between atoms: C_4  and  N_5 
REMARK    2  A    between atoms: N_8  and  C_10 
REMARK    3  A    between atoms: C_10  and  C_11 
REMARK    4  A    between atoms: C_11  and  C_12 
REMARK    5  A    between atoms: C_12  and  C_13 
REMARK    6  A    between atoms: C_13  and  N_14 
REMARK       I    between atoms: N_14  and  C_15 
REMARK    7  A    between atoms: C_15  and  C_16 
ROOT
HETATM    1  C   UNL     1     -42.694  57.054 -54.476  1.00  0.00     0.123 C 
ENDROOT
BRANCH   1   2
HETATM    2  C   UNL     1     -43.502  58.214 -53.891  1.00  0.00     0.021 C 
BRANCH   2   3
HETATM    3  C   UNL     1     -42.884  58.720 -52.585  1.00  0.00     0.029 C 
BRANCH   3   4
HETATM    4  C   UNL     1     -43.733  58.313 -51.382  1.00  0.00     0.235 C 
BRANCH   4   5
HETATM    5  N   UNL     1     -43.111  57.139 -50.664  1.00  0.00    -0.068 N 
HETATM    6  C   UNL     1     -43.727  55.809 -51.126  1.00  0.00     0.254 C 
HETATM    7  C   UNL     1     -43.164  54.635 -50.295  1.00  0.00     0.150 C 
HETATM    8  N   UNL     1     -41.689  54.619 -50.347  1.00  0.00    -0.378 N 
HETATM    9  C   UNL     1     -41.038  55.882 -49.965  1.00  0.00     0.150 C 
HETATM   10  C   UNL     1     -41.582  57.066 -50.791  1.00  0.00     0.254 C 
HETATM   11  H   UNL     1     -43.327  57.225 -49.663  1.00  0.00     0.280 HD
BRANCH   8  12
HETATM   12  C   UNL     1     -41.069  53.717 -51.210  1.00  0.00     0.030 A 
HETATM   13  C   UNL     1     -41.016  53.897 -52.604  1.00  0.00     0.036 A 
HETATM   14  C   UNL     1     -40.365  52.982 -53.453  1.00  0.00    -0.060 A 
HETATM   15  C   UNL     1     -40.291  53.224 -54.934  1.00  0.00     0.048 C 
HETATM   16  C   UNL     1     -39.730  51.870 -52.901  1.00  0.00     0.007 A 
HETATM   17  C   UNL     1     -39.751  51.673 -51.527  1.00  0.00     0.003 A 
HETATM   18  C   UNL     1     -40.409  52.587 -50.698  1.00  0.00     0.029 A 
ENDBRANCH   8  12
ENDBRANCH   4   5
ENDBRANCH   3   4
ENDBRANCH   2   3
ENDBRANCH   1   2
BRANCH   1  19
HETATM   19  N   UNL     1     -43.207  56.622 -55.758  1.00  0.00    -0.357 N 
HETATM   20  C   UNL     1     -42.821  57.245 -56.930  1.00  0.00     0.254 C 
HETATM   21  O   UNL     1     -41.962  58.122 -56.948  1.00  0.00    -0.268 OA
HETATM   22  H   UNL     1     -43.829  55.824 -55.779  1.00  0.00     0.162 HD
BRANCH  20  23
HETATM   23  C   UNL     1     -43.465  56.788 -58.190  1.00  0.00     0.064 A 
HETATM   24  C   UNL     1     -44.013  57.711 -59.065  1.00  0.00     0.077 A 
HETATM   25  C   UNL     1     -44.624  57.329 -60.263  1.00  0.00     0.065 A 
HETATM   26  N   UNL     1     -44.089  59.104 -58.984  1.00  0.00    -0.330 N 
HETATM   27  N   UNL     1     -45.068  58.480 -60.912  1.00  0.00    -0.331 N 
HETATM   28  C   UNL     1     -44.732  56.015 -60.647  1.00  0.00     0.074 A 
HETATM   29  C   UNL     1     -44.746  59.587 -60.117  1.00  0.00     0.176 A 
HETATM   30  H   UNL     1     -45.561  58.527 -61.792  1.00  0.00     0.168 HD
HETATM   31  S   UNL     1     -45.084  61.163 -60.455  1.00  0.00    -0.041 SA
HETATM   32  C   UNL     1     -44.201  55.075 -59.767  1.00  0.00     0.119 A 
HETATM   33  F   UNL     1     -44.286  53.774 -60.076  1.00  0.00    -0.206 F 
HETATM   34  C   UNL     1     -43.579  55.439 -58.555  1.00  0.00     0.061 A 
HETATM   35  H   UNL     1     -43.764  59.652 -58.195  1.00  0.00     0.168 HD
ENDBRANCH  20  23
ENDBRANCH   1  19
TORSDOF 7
ENDMDL
MODEL 8
REMARK VINA RESULT:      -7.7      2.451      3.162
REMARK  7 active torsions:
REMARK  status: ('A' for Active; 'I' for Inactive)
REMARK    1  A    between atoms: C_4  and  N_5 
REMARK    2  A    between atoms: N_8  and  C_10 
REMARK    3  A    between atoms: C_10  and  C_11 
REMARK    4  A    between atoms: C_11  and  C_12 
REMARK    5  A    between atoms: C_12  and  C_13 
REMARK    6  A    between atoms: C_13  and  N_14 
REMARK       I    between atoms: N_14  and  C_15 
REMARK    7  A    between atoms: C_15  and  C_16 
ROOT
HETATM    1  C   UNL     1     -43.415  60.622 -52.786  1.00  0.00     0.123 C 
ENDROOT
BRANCH   1   2
HETATM    2  C   UNL     1     -44.679  60.169 -52.052  1.00  0.00     0.021 C 
BRANCH   2   3
HETATM    3  C   UNL     1     -44.418  58.912 -51.219  1.00  0.00     0.029 C 
BRANCH   3   4
HETATM    4  C   UNL     1     -42.950  58.495 -51.298  1.00  0.00     0.235 C 
BRANCH   4   5
HETATM    5  N   UNL     1     -42.732  57.174 -50.599  1.00  0.00    -0.068 N 
HETATM    6  C   UNL     1     -43.381  56.016 -51.374  1.00  0.00     0.254 C 
HETATM    7  C   UNL     1     -43.251  54.696 -50.582  1.00  0.00     0.150 C 
HETATM    8  N   UNL     1     -41.839  54.427 -50.246  1.00  0.00    -0.378 N 
HETATM    9  C   UNL     1     -41.145  55.519 -49.547  1.00  0.00     0.150 C 
HETATM   10  C   UNL     1     -41.257  56.845 -50.328  1.00  0.00     0.254 C 
HETATM   11  H   UNL     1     -43.206  57.212 -49.688  1.00  0.00     0.280 HD
BRANCH   8  12
HETATM   12  C   UNL     1     -41.140  53.506 -51.025  1.00  0.00     0.030 A 
HETATM   13  C   UNL     1     -40.988  53.631 -52.417  1.00  0.00     0.036 A 
HETATM   14  C   UNL     1     -40.259  52.698 -53.178  1.00  0.00    -0.060 A 
HETATM   15  C   UNL     1     -40.081  52.883 -54.658  1.00  0.00     0.048 C 
HETATM   16  C   UNL     1     -39.644  51.624 -52.537  1.00  0.00     0.007 A 
HETATM   17  C   UNL     1     -39.762  51.480 -51.161  1.00  0.00     0.003 A 
HETATM   18  C   UNL     1     -40.497  52.412 -50.420  1.00  0.00     0.029 A 
ENDBRANCH   8  12
ENDBRANCH   4   5
ENDBRANCH   3   4
ENDBRANCH   2   3
ENDBRANCH   1   2
BRANCH   1  19
HETATM   19  N   UNL     1     -43.336  60.080 -54.125  1.00  0.00    -0.357 N 
HETATM   20  C   UNL     1     -42.118  59.753 -54.693  1.00  0.00     0.254 C 
HETATM   21  O   UNL     1     -41.067  59.816 -54.060  1.00  0.00    -0.268 OA
HETATM   22  H   UNL     1     -44.199  59.911 -54.624  1.00  0.00     0.162 HD
BRANCH  20  23
HETATM   23  C   UNL     1     -42.128  59.284 -56.103  1.00  0.00     0.064 A 
HETATM   24  C   UNL     1     -42.398  57.957 -56.392  1.00  0.00     0.077 A 
HETATM   25  C   UNL     1     -42.423  57.471 -57.703  1.00  0.00     0.065 A 
HETATM   26  N   UNL     1     -42.683  56.883 -55.544  1.00  0.00    -0.330 N 
HETATM   27  N   UNL     1     -42.723  56.110 -57.658  1.00  0.00    -0.331 N 
HETATM   28  C   UNL     1     -42.170  58.271 -58.790  1.00  0.00     0.074 A 
HETATM   29  C   UNL     1     -42.877  55.736 -56.317  1.00  0.00     0.176 A 
HETATM   30  H   UNL     1     -42.797  55.479 -58.443  1.00  0.00     0.168 HD
HETATM   31  S   UNL     1     -43.219  54.226 -55.757  1.00  0.00    -0.041 SA
HETATM   32  C   UNL     1     -41.878  59.604 -58.512  1.00  0.00     0.119 A 
HETATM   33  F   UNL     1     -41.608  60.436 -59.526  1.00  0.00    -0.206 F 
HETATM   34  C   UNL     1     -41.850  60.116 -57.198  1.00  0.00     0.061 A 
HETATM   35  H   UNL     1     -42.686  56.936 -54.532  1.00  0.00     0.168 HD
ENDBRANCH  20  23
ENDBRANCH   1  19
TORSDOF 7
ENDMDL
MODEL 9
REMARK VINA RESULT:      -7.6      2.953      3.614
REMARK  7 active torsions:
REMARK  status: ('A' for Active; 'I' for Inactive)
REMARK    1  A    between atoms: C_4  and  N_5 
REMARK    2  A    between atoms: N_8  and  C_10 
REMARK    3  A    between atoms: C_10  and  C_11 
REMARK    4  A    between atoms: C_11  and  C_12 
REMARK    5  A    between atoms: C_12  and  C_13 
REMARK    6  A    between atoms: C_13  and  N_14 
REMARK       I    between atoms: N_14  and  C_15 
REMARK    7  A    between atoms: C_15  and  C_16 
ROOT
HETATM    1  C   UNL     1     -45.278  60.308 -55.844  1.00  0.00     0.123 C 
ENDROOT
BRANCH   1   2
HETATM    2  C   UNL     1     -44.926  59.948 -54.399  1.00  0.00     0.021 C 
BRANCH   2   3
HETATM    3  C   UNL     1     -43.452  59.559 -54.266  1.00  0.00     0.029 C 
BRANCH   3   4
HETATM    4  C   UNL     1     -43.278  58.390 -53.298  1.00  0.00     0.235 C 
BRANCH   4   5
HETATM    5  N   UNL     1     -43.065  57.099 -54.053  1.00  0.00    -0.068 N 
HETATM    6  C   UNL     1     -41.572  56.837 -54.306  1.00  0.00     0.254 C 
HETATM    7  C   UNL     1     -41.385  55.579 -55.182  1.00  0.00     0.150 C 
HETATM    8  N   UNL     1     -42.065  54.417 -54.576  1.00  0.00    -0.378 N 
HETATM    9  C   UNL     1     -43.487  54.620 -54.262  1.00  0.00     0.150 C 
HETATM   10  C   UNL     1     -43.694  55.869 -53.380  1.00  0.00     0.254 C 
HETATM   11  H   UNL     1     -43.502  57.194 -54.978  1.00  0.00     0.280 HD
BRANCH   8  12
HETATM   12  C   UNL     1     -41.293  53.493 -53.872  1.00  0.00     0.030 A 
HETATM   13  C   UNL     1     -40.870  52.269 -54.418  1.00  0.00     0.036 A 
HETATM   14  C   UNL     1     -40.073  51.362 -53.694  1.00  0.00    -0.060 A 
HETATM   15  C   UNL     1     -39.603  50.079 -54.319  1.00  0.00     0.048 C 
HETATM   16  C   UNL     1     -39.665  51.690 -52.401  1.00  0.00     0.007 A 
HETATM   17  C   UNL     1     -40.054  52.899 -51.840  1.00  0.00     0.003 A 
HETATM   18  C   UNL     1     -40.852  53.785 -52.570  1.00  0.00     0.029 A 
ENDBRANCH   8  12
ENDBRANCH   4   5
ENDBRANCH   3   4
ENDBRANCH   2   3
ENDBRANCH   1   2
BRANCH   1  19
HETATM   19  N   UNL     1     -44.819  59.308 -56.784  1.00  0.00    -0.357 N 
HETATM   20  C   UNL     1     -45.707  58.635 -57.602  1.00  0.00     0.254 C 
HETATM   21  O   UNL     1     -46.902  58.917 -57.637  1.00  0.00    -0.268 OA
HETATM   22  H   UNL     1     -43.824  59.141 -56.855  1.00  0.00     0.162 HD
BRANCH  20  23
HETATM   23  C   UNL     1     -45.154  57.566 -58.475  1.00  0.00     0.064 A 
HETATM   24  C   UNL     1     -45.861  57.141 -59.587  1.00  0.00     0.077 A 
HETATM   25  C   UNL     1     -45.379  56.143 -60.439  1.00  0.00     0.065 A 
HETATM   26  N   UNL     1     -47.099  57.554 -60.086  1.00  0.00    -0.330 N 
HETATM   27  N   UNL     1     -46.314  55.948 -61.455  1.00  0.00    -0.331 N 
HETATM   28  C   UNL     1     -44.180  55.509 -60.225  1.00  0.00     0.074 A 
HETATM   29  C   UNL     1     -47.391  56.816 -61.236  1.00  0.00     0.176 A 
HETATM   30  H   UNL     1     -46.256  55.283 -62.212  1.00  0.00     0.168 HD
HETATM   31  S   UNL     1     -48.749  56.940 -62.159  1.00  0.00    -0.041 SA
HETATM   32  C   UNL     1     -43.467  55.914 -59.099  1.00  0.00     0.119 A 
HETATM   33  F   UNL     1     -42.295  55.325 -58.825  1.00  0.00    -0.206 F 
HETATM   34  C   UNL     1     -43.933  56.920 -58.229  1.00  0.00     0.061 A 
HETATM   35  H   UNL     1     -47.700  58.238 -59.640  1.00  0.00     0.168 HD
ENDBRANCH  20  23
ENDBRANCH   1  19
TORSDOF 7
ENDMDL
MODEL 10
REMARK VINA RESULT:      -7.5      2.289      2.967
REMARK  7 active torsions:
REMARK  status: ('A' for Active; 'I' for Inactive)
REMARK    1  A    between atoms: C_4  and  N_5 
REMARK    2  A    between atoms: N_8  and  C_10 
REMARK    3  A    between atoms: C_10  and  C_11 
REMARK    4  A    between atoms: C_11  and  C_12 
REMARK    5  A    between atoms: C_12  and  C_13 
REMARK    6  A    between atoms: C_13  and  N_14 
REMARK       I    between atoms: N_14  and  C_15 
REMARK    7  A    between atoms: C_15  and  C_16 
ROOT
HETATM    1  C   UNL     1     -42.667  59.792 -54.090  1.00  0.00     0.123 C 
ENDROOT
BRANCH   1   2
HETATM    2  C   UNL     1     -41.300  59.425 -53.509  1.00  0.00     0.021 C 
BRANCH   2   3
HETATM    3  C   UNL     1     -41.369  59.252 -51.990  1.00  0.00     0.029 C 
BRANCH   3   4
HETATM    4  C   UNL     1     -42.752  58.772 -51.554  1.00  0.00     0.235 C 
BRANCH   4   5
HETATM    5  N   UNL     1     -42.653  57.451 -50.828  1.00  0.00    -0.068 N 
HETATM    6  C   UNL     1     -43.314  56.318 -51.631  1.00  0.00     0.254 C 
HETATM    7  C   UNL     1     -43.308  55.005 -50.818  1.00  0.00     0.150 C 
HETATM    8  N   UNL     1     -41.938  54.664 -50.389  1.00  0.00    -0.378 N 
HETATM    9  C   UNL     1     -41.231  55.727 -49.657  1.00  0.00     0.150 C 
HETATM   10  C   UNL     1     -41.218  57.046 -50.458  1.00  0.00     0.254 C 
HETATM   11  H   UNL     1     -43.182  57.527 -49.950  1.00  0.00     0.280 HD
BRANCH   8  12
HETATM   12  C   UNL     1     -41.242  53.695 -51.110  1.00  0.00     0.030 A 
HETATM   13  C   UNL     1     -41.123  53.715 -52.511  1.00  0.00     0.036 A 
HETATM   14  C   UNL     1     -40.397  52.736 -53.215  1.00  0.00    -0.060 A 
HETATM   15  C   UNL     1     -40.255  52.808 -54.709  1.00  0.00     0.048 C 
HETATM   16  C   UNL     1     -39.751  51.723 -52.508  1.00  0.00     0.007 A 
HETATM   17  C   UNL     1     -39.836  51.685 -51.122  1.00  0.00     0.003 A 
HETATM   18  C   UNL     1     -40.568  52.661 -50.438  1.00  0.00     0.029 A 
ENDBRANCH   8  12
ENDBRANCH   4   5
ENDBRANCH   3   4
ENDBRANCH   2   3
ENDBRANCH   1   2
BRANCH   1  19
HETATM   19  N   UNL     1     -42.628  59.942 -55.528  1.00  0.00    -0.357 N 
HETATM   20  C   UNL     1     -42.659  58.840 -56.363  1.00  0.00     0.254 C 
HETATM   21  O   UNL     1     -42.815  57.701 -55.932  1.00  0.00    -0.268 OA
HETATM   22  H   UNL     1     -42.615  60.878 -55.911  1.00  0.00     0.162 HD
BRANCH  20  23
HETATM   23  C   UNL     1     -42.529  59.087 -57.823  1.00  0.00     0.064 A 
HETATM   24  C   UNL     1     -43.096  58.208 -58.730  1.00  0.00     0.077 A 
HETATM   25  C   UNL     1     -43.003  58.401 -60.112  1.00  0.00     0.065 A 
HETATM   26  N   UNL     1     -43.822  57.033 -58.522  1.00  0.00    -0.330 N 
HETATM   27  N   UNL     1     -43.671  57.354 -60.745  1.00  0.00    -0.331 N 
HETATM   28  C   UNL     1     -42.337  59.468 -60.663  1.00  0.00     0.074 A 
HETATM   29  C   UNL     1     -44.175  56.494 -59.761  1.00  0.00     0.176 A 
HETATM   30  H   UNL     1     -43.766  57.208 -61.739  1.00  0.00     0.168 HD
HETATM   31  S   UNL     1     -45.021  55.105 -60.018  1.00  0.00    -0.041 SA
HETATM   32  C   UNL     1     -41.746  60.351 -59.762  1.00  0.00     0.119 A 
HETATM   33  F   UNL     1     -41.068  61.405 -60.234  1.00  0.00    -0.206 F 
HETATM   34  C   UNL     1     -41.829  60.176 -58.365  1.00  0.00     0.061 A 
HETATM   35  H   UNL     1     -44.004  56.623 -57.612  1.00  0.00     0.168 HD
ENDBRANCH  20  23
ENDBRANCH   1  19
TORSDOF 7
ENDMDL
