MODEL 1
REMARK VINA RESULT:      -8.4      0.000      0.000
REMARK  4 active torsions:
REMARK  status: ('A' for Active; 'I' for Inactive)
REMARK    1  A    between atoms: C_6  and  O_7 
REMARK    2  A    between atoms: C_6  and  C_8 
REMARK    3  A    between atoms: N_15  and  C_17 
REMARK    4  A    between atoms: C_17  and  C_18 
ROOT
HETATM    1  C   UNL     1     -43.386  57.084 -56.626  1.00  0.00    -0.023 A 
HETATM    2  C   UNL     1     -42.310  56.670 -55.804  1.00  0.00     0.022 A 
HETATM    3  C   UNL     1     -42.114  57.185 -54.509  1.00  0.00     0.002 A 
HETATM    4  C   UNL     1     -43.036  58.106 -54.018  1.00  0.00     0.076 A 
HETATM    5  O   UNL     1     -42.906  58.634 -52.766  1.00  0.00    -0.349 OA
HETATM    6  C   UNL     1     -43.166  57.650 -51.754  1.00  0.00     0.203 C 
HETATM    7  C   UNL     1     -41.876  56.945 -51.326  1.00  0.00     0.262 C 
HETATM    8  N   UNL     1     -41.295  56.033 -52.397  1.00  0.00    -0.061 N 
HETATM    9  H   UNL     1     -40.390  55.721 -52.019  1.00  0.00     0.280 HD
HETATM   10  C   UNL     1     -40.940  56.765 -53.669  1.00  0.00     0.276 C 
HETATM   11  C   UNL     1     -44.098  58.540 -54.801  1.00  0.00     0.038 A 
HETATM   12  C   UNL     1     -44.281  58.022 -56.087  1.00  0.00     0.013 A 
ENDROOT
BRANCH   1  13
HETATM   13  C   UNL     1     -43.584  56.442 -58.006  1.00  0.00     0.088 C 
HETATM   14  C   UNL     1     -42.352  56.566 -58.929  1.00  0.00     0.070 C 
HETATM   15  C   UNL     1     -42.191  57.966 -59.492  1.00  0.00     0.237 C 
HETATM   16  N   UNL     1     -43.429  58.337 -60.265  1.00  0.00    -0.075 N 
HETATM   17  C   UNL     1     -43.277  59.677 -60.942  1.00  0.00     0.269 C 
HETATM   18  H   UNL     1     -43.536  57.654 -61.031  1.00  0.00     0.279 HD
HETATM   19  C   UNL     1     -44.674  58.276 -59.421  1.00  0.00     0.237 C 
HETATM   20  C   UNL     1     -44.821  56.886 -58.814  1.00  0.00     0.070 C 
BRANCH  13  21
HETATM   21  O   UNL     1     -43.738  55.042 -57.738  1.00  0.00    -0.385 OA
HETATM   22  H   UNL     1     -44.270  54.935 -56.928  1.00  0.00     0.211 HD
ENDBRANCH  13  21
ENDBRANCH   1  13
BRANCH   8  23
HETATM   23  C   UNL     1     -42.071  54.757 -52.651  1.00  0.00     0.278 C 
BRANCH  23  24
HETATM   24  C   UNL     1     -41.221  53.540 -52.862  1.00  0.00     0.028 A 
HETATM   25  C   UNL     1     -40.403  52.998 -51.862  1.00  0.00     0.045 A 
HETATM   26 CL   UNL     1     -40.379  53.677 -50.273  1.00  0.00    -0.084 Cl
HETATM   27  C   UNL     1     -39.604  51.881 -52.117  1.00  0.00     0.024 A 
HETATM   28  C   UNL     1     -39.613  51.289 -53.382  1.00  0.00     0.005 A 
HETATM   29  C   UNL     1     -40.424  51.812 -54.385  1.00  0.00     0.043 A 
HETATM   30  C   UNL     1     -41.215  52.924 -54.117  1.00  0.00     0.126 A 
HETATM   31  F   UNL     1     -42.008  53.407 -55.084  1.00  0.00    -0.205 F 
ENDBRANCH  23  24
ENDBRANCH   8  23
TORSDOF 4
ENDMDL
MODEL 2
REMARK VINA RESULT:      -7.7      1.999      2.737
REMARK  4 active torsions:
REMARK  status: ('A' for Active; 'I' for Inactive)
REMARK    1  A    between atoms: C_6  and  O_7 
REMARK    2  A    between atoms: C_6  and  C_8 
REMARK    3  A    between atoms: N_15  and  C_17 
REMARK    4  A    between atoms: C_17  and  C_18 
ROOT
HETATM    1  C   UNL     1     -43.287  58.985 -57.997  1.00  0.00    -0.023 A 
HETATM    2  C   UNL     1     -42.535  58.505 -56.898  1.00  0.00     0.022 A 
HETATM    3  C   UNL     1     -42.880  58.801 -55.566  1.00  0.00     0.002 A 
HETATM    4  C   UNL     1     -44.022  59.564 -55.334  1.00  0.00     0.076 A 
HETATM    5  O   UNL     1     -44.415  59.876 -54.064  1.00  0.00    -0.349 OA
HETATM    6  C   UNL     1     -44.897  58.718 -53.367  1.00  0.00     0.203 C 
HETATM    7  C   UNL     1     -43.770  58.034 -52.588  1.00  0.00     0.262 C 
HETATM    8  N   UNL     1     -42.737  57.358 -53.479  1.00  0.00    -0.061 N 
HETATM    9  H   UNL     1     -41.996  57.044 -52.837  1.00  0.00     0.280 HD
HETATM   10  C   UNL     1     -42.043  58.319 -54.414  1.00  0.00     0.276 C 
HETATM   11  C   UNL     1     -44.778  60.058 -56.390  1.00  0.00     0.038 A 
HETATM   12  C   UNL     1     -44.424  59.757 -57.708  1.00  0.00     0.013 A 
ENDROOT
BRANCH   1  13
HETATM   13  C   UNL     1     -42.898  58.578 -59.425  1.00  0.00     0.088 C 
HETATM   14  C   UNL     1     -44.095  58.514 -60.398  1.00  0.00     0.070 C 
HETATM   15  C   UNL     1     -44.955  57.284 -60.175  1.00  0.00     0.237 C 
HETATM   16  N   UNL     1     -44.111  56.049 -60.345  1.00  0.00    -0.075 N 
HETATM   17  C   UNL     1     -44.942  54.793 -60.245  1.00  0.00     0.269 C 
HETATM   18  H   UNL     1     -43.739  56.054 -61.307  1.00  0.00     0.279 HD
HETATM   19  C   UNL     1     -42.939  56.019 -59.401  1.00  0.00     0.237 C 
HETATM   20  C   UNL     1     -42.092  57.273 -59.586  1.00  0.00     0.070 C 
BRANCH  13  21
HETATM   21  O   UNL     1     -42.065  59.647 -59.894  1.00  0.00    -0.385 OA
HETATM   22  H   UNL     1     -41.433  59.288 -60.544  1.00  0.00     0.211 HD
ENDBRANCH  13  21
ENDBRANCH   1  13
BRANCH   8  23
HETATM   23  C   UNL     1     -43.208  56.098 -54.176  1.00  0.00     0.278 C 
BRANCH  23  24
HETATM   24  C   UNL     1     -42.223  54.967 -54.154  1.00  0.00     0.028 A 
HETATM   25  C   UNL     1     -42.071  54.108 -53.058  1.00  0.00     0.045 A 
HETATM   26 CL   UNL     1     -43.078  54.267 -51.663  1.00  0.00    -0.084 Cl
HETATM   27  C   UNL     1     -41.116  53.089 -53.074  1.00  0.00     0.024 A 
HETATM   28  C   UNL     1     -40.299  52.914 -54.192  1.00  0.00     0.005 A 
HETATM   29  C   UNL     1     -40.442  53.755 -55.292  1.00  0.00     0.043 A 
HETATM   30  C   UNL     1     -41.396  54.765 -55.263  1.00  0.00     0.126 A 
HETATM   31  F   UNL     1     -41.539  55.556 -56.336  1.00  0.00    -0.205 F 
ENDBRANCH  23  24
ENDBRANCH   8  23
TORSDOF 4
ENDMDL
MODEL 3
REMARK VINA RESULT:      -7.7      3.062      4.644
REMARK  4 active torsions:
REMARK  status: ('A' for Active; 'I' for Inactive)
REMARK    1  A    between atoms: C_6  and  O_7 
REMARK    2  A    between atoms: C_6  and  C_8 
REMARK    3  A    between atoms: N_15  and  C_17 
REMARK    4  A    between atoms: C_17  and  C_18 
ROOT
HETATM    1  C   UNL     1     -43.220  56.452 -57.350  1.00  0.00    -0.023 A 
HETATM    2  C   UNL     1     -43.882  57.227 -56.366  1.00  0.00     0.022 A 
HETATM    3  C   UNL     1     -44.039  56.781 -55.041  1.00  0.00     0.002 A 
HETATM    4  C   UNL     1     -43.490  55.550 -54.689  1.00  0.00     0.076 A 
HETATM    5  O   UNL     1     -43.600  55.067 -53.417  1.00  0.00    -0.349 OA
HETATM    6  C   UNL     1     -42.799  55.825 -52.499  1.00  0.00     0.203 C 
HETATM    7  C   UNL     1     -43.606  56.966 -51.875  1.00  0.00     0.262 C 
HETATM    8  N   UNL     1     -43.952  58.076 -52.856  1.00  0.00    -0.061 N 
HETATM    9  H   UNL     1     -44.577  58.707 -52.336  1.00  0.00     0.280 HD
HETATM   10  C   UNL     1     -44.783  57.598 -54.022  1.00  0.00     0.276 C 
HETATM   11  C   UNL     1     -42.842  54.761 -55.631  1.00  0.00     0.038 A 
HETATM   12  C   UNL     1     -42.694  55.215 -56.945  1.00  0.00     0.013 A 
ENDROOT
BRANCH   1  13
HETATM   13  C   UNL     1     -43.025  57.018 -58.763  1.00  0.00     0.088 C 
HETATM   14  C   UNL     1     -44.015  58.148 -59.120  1.00  0.00     0.070 C 
HETATM   15  C   UNL     1     -45.409  57.624 -59.413  1.00  0.00     0.237 C 
HETATM   16  N   UNL     1     -45.342  56.645 -60.555  1.00  0.00    -0.075 N 
HETATM   17  C   UNL     1     -46.717  56.177 -60.963  1.00  0.00     0.269 C 
HETATM   18  H   UNL     1     -44.969  57.146 -61.376  1.00  0.00     0.279 HD
HETATM   19  C   UNL     1     -44.421  55.489 -60.268  1.00  0.00     0.237 C 
HETATM   20  C   UNL     1     -43.028  56.007 -59.929  1.00  0.00     0.070 C 
BRANCH  13  21
HETATM   21  O   UNL     1     -41.726  57.624 -58.738  1.00  0.00    -0.385 OA
HETATM   22  H   UNL     1     -41.620  58.099 -57.893  1.00  0.00     0.211 HD
ENDBRANCH  13  21
ENDBRANCH   1  13
BRANCH   8  23
HETATM   23  C   UNL     1     -42.789  58.948 -53.284  1.00  0.00     0.278 C 
BRANCH  23  24
HETATM   24  C   UNL     1     -41.770  59.201 -52.214  1.00  0.00     0.028 A 
HETATM   25  C   UNL     1     -42.050  59.927 -51.049  1.00  0.00     0.045 A 
HETATM   26 CL   UNL     1     -43.641  60.528 -50.743  1.00  0.00    -0.084 Cl
HETATM   27  C   UNL     1     -41.057  60.163 -50.096  1.00  0.00     0.024 A 
HETATM   28  C   UNL     1     -39.765  59.674 -50.297  1.00  0.00     0.005 A 
HETATM   29  C   UNL     1     -39.471  58.946 -51.446  1.00  0.00     0.043 A 
HETATM   30  C   UNL     1     -40.469  58.718 -52.386  1.00  0.00     0.126 A 
HETATM   31  F   UNL     1     -40.181  57.998 -53.480  1.00  0.00    -0.205 F 
ENDBRANCH  23  24
ENDBRANCH   8  23
TORSDOF 4
ENDMDL
MODEL 4
REMARK VINA RESULT:      -7.7      2.752      5.443
REMARK  4 active torsions:
REMARK  status: ('A' for Active; 'I' for Inactive)
REMARK    1  A    between atoms: C_6  and  O_7 
REMARK    2  A    between atoms: C_6  and  C_8 
REMARK    3  A    between atoms: N_15  and  C_17 
REMARK    4  A    between atoms: C_17  and  C_18 
ROOT
HETATM    1  C   UNL     1     -43.920  58.913 -52.723  1.00  0.00    -0.023 A 
HETATM    2  C   UNL     1     -43.878  57.504 -52.853  1.00  0.00     0.022 A 
HETATM    3  C   UNL     1     -43.887  56.865 -54.107  1.00  0.00     0.002 A 
HETATM    4  C   UNL     1     -43.903  57.659 -55.251  1.00  0.00     0.076 A 
HETATM    5  O   UNL     1     -43.902  57.099 -56.497  1.00  0.00    -0.349 OA
HETATM    6  C   UNL     1     -42.640  56.483 -56.793  1.00  0.00     0.203 C 
HETATM    7  C   UNL     1     -42.643  55.004 -56.395  1.00  0.00     0.262 C 
HETATM    8  N   UNL     1     -42.668  54.778 -54.891  1.00  0.00    -0.061 N 
HETATM    9  H   UNL     1     -42.778  53.761 -54.776  1.00  0.00     0.280 HD
HETATM   10  C   UNL     1     -43.888  55.367 -54.224  1.00  0.00     0.276 C 
HETATM   11  C   UNL     1     -43.952  59.044 -55.160  1.00  0.00     0.038 A 
HETATM   12  C   UNL     1     -43.944  59.666 -53.908  1.00  0.00     0.013 A 
ENDROOT
BRANCH   1  13
HETATM   13  C   UNL     1     -43.845  59.554 -51.331  1.00  0.00     0.088 C 
HETATM   14  C   UNL     1     -45.171  59.481 -50.544  1.00  0.00     0.070 C 
HETATM   15  C   UNL     1     -46.201  60.471 -51.054  1.00  0.00     0.237 C 
HETATM   16  N   UNL     1     -45.643  61.866 -50.955  1.00  0.00    -0.075 N 
HETATM   17  C   UNL     1     -46.668  62.902 -51.345  1.00  0.00     0.269 C 
HETATM   18  H   UNL     1     -45.433  62.050 -49.962  1.00  0.00     0.279 HD
HETATM   19  C   UNL     1     -44.362  62.029 -51.730  1.00  0.00     0.237 C 
HETATM   20  C   UNL     1     -43.335  61.008 -51.255  1.00  0.00     0.070 C 
BRANCH  13  21
HETATM   21  O   UNL     1     -42.911  58.743 -50.606  1.00  0.00    -0.385 OA
HETATM   22  H   UNL     1     -42.117  58.612 -51.157  1.00  0.00     0.211 HD
ENDBRANCH  13  21
ENDBRANCH   1  13
BRANCH   8  23
HETATM   23  C   UNL     1     -41.382  55.114 -54.163  1.00  0.00     0.278 C 
BRANCH  23  24
HETATM   24  C   UNL     1     -40.847  54.012 -53.298  1.00  0.00     0.028 A 
HETATM   25  C   UNL     1     -40.898  54.048 -51.898  1.00  0.00     0.045 A 
HETATM   26 CL   UNL     1     -41.658  55.363 -51.074  1.00  0.00    -0.084 Cl
HETATM   27  C   UNL     1     -40.357  53.011 -51.135  1.00  0.00     0.024 A 
HETATM   28  C   UNL     1     -39.754  51.920 -51.765  1.00  0.00     0.005 A 
HETATM   29  C   UNL     1     -39.701  51.866 -53.155  1.00  0.00     0.043 A 
HETATM   30  C   UNL     1     -40.244  52.906 -53.903  1.00  0.00     0.126 A 
HETATM   31  F   UNL     1     -40.205  52.834 -55.241  1.00  0.00    -0.205 F 
ENDBRANCH  23  24
ENDBRANCH   8  23
TORSDOF 4
ENDMDL
MODEL 5
REMARK VINA RESULT:      -7.6      2.985      5.605
REMARK  4 active torsions:
REMARK  status: ('A' for Active; 'I' for Inactive)
REMARK    1  A    between atoms: C_6  and  O_7 
REMARK    2  A    between atoms: C_6  and  C_8 
REMARK    3  A    between atoms: N_15  and  C_17 
REMARK    4  A    between atoms: C_17  and  C_18 
ROOT
HETATM    1  C   UNL     1     -44.720  58.547 -52.690  1.00  0.00    -0.023 A 
HETATM    2  C   UNL     1     -44.366  57.186 -52.854  1.00  0.00     0.022 A 
HETATM    3  C   UNL     1     -44.158  56.613 -54.122  1.00  0.00     0.002 A 
HETATM    4  C   UNL     1     -44.272  57.431 -55.243  1.00  0.00     0.076 A 
HETATM    5  O   UNL     1     -44.072  56.937 -56.500  1.00  0.00    -0.349 OA
HETATM    6  C   UNL     1     -42.690  56.618 -56.722  1.00  0.00     0.203 C 
HETATM    7  C   UNL     1     -42.398  55.157 -56.365  1.00  0.00     0.262 C 
HETATM    8  N   UNL     1     -42.468  54.869 -54.873  1.00  0.00    -0.061 N 
HETATM    9  H   UNL     1     -42.363  53.848 -54.793  1.00  0.00     0.280 HD
HETATM   10  C   UNL     1     -43.826  55.155 -54.278  1.00  0.00     0.276 C 
HETATM   11  C   UNL     1     -44.626  58.769 -55.119  1.00  0.00     0.038 A 
HETATM   12  C   UNL     1     -44.831  59.326 -53.853  1.00  0.00     0.013 A 
ENDROOT
BRANCH   1  13
HETATM   13  C   UNL     1     -44.874  59.131 -51.279  1.00  0.00     0.088 C 
HETATM   14  C   UNL     1     -46.174  59.942 -51.083  1.00  0.00     0.070 C 
HETATM   15  C   UNL     1     -46.110  61.305 -51.749  1.00  0.00     0.237 C 
HETATM   16  N   UNL     1     -44.951  62.081 -51.183  1.00  0.00    -0.075 N 
HETATM   17  C   UNL     1     -44.908  63.487 -51.728  1.00  0.00     0.269 C 
HETATM   18  H   UNL     1     -45.110  62.187 -50.169  1.00  0.00     0.279 HD
HETATM   19  C   UNL     1     -43.637  61.370 -51.368  1.00  0.00     0.237 C 
HETATM   20  C   UNL     1     -43.705  59.982 -50.741  1.00  0.00     0.070 C 
BRANCH  13  21
HETATM   21  O   UNL     1     -44.990  57.988 -50.422  1.00  0.00    -0.385 OA
HETATM   22  H   UNL     1     -44.095  57.658 -50.218  1.00  0.00     0.211 HD
ENDBRANCH  13  21
ENDBRANCH   1  13
BRANCH   8  23
HETATM   23  C   UNL     1     -41.334  55.442 -54.047  1.00  0.00     0.278 C 
BRANCH  23  24
HETATM   24  C   UNL     1     -40.957  54.623 -52.850  1.00  0.00     0.028 A 
HETATM   25  C   UNL     1     -40.445  53.323 -52.945  1.00  0.00     0.045 A 
HETATM   26 CL   UNL     1     -40.151  52.598 -54.486  1.00  0.00    -0.084 Cl
HETATM   27  C   UNL     1     -40.138  52.588 -51.797  1.00  0.00     0.024 A 
HETATM   28  C   UNL     1     -40.340  53.147 -50.534  1.00  0.00     0.005 A 
HETATM   29  C   UNL     1     -40.842  54.440 -50.422  1.00  0.00     0.043 A 
HETATM   30  C   UNL     1     -41.143  55.161 -51.573  1.00  0.00     0.126 A 
HETATM   31  F   UNL     1     -41.607  56.413 -51.453  1.00  0.00    -0.205 F 
ENDBRANCH  23  24
ENDBRANCH   8  23
TORSDOF 4
ENDMDL
MODEL 6
REMARK VINA RESULT:      -7.5      2.946      5.254
REMARK  4 active torsions:
REMARK  status: ('A' for Active; 'I' for Inactive)
REMARK    1  A    between atoms: C_6  and  O_7 
REMARK    2  A    between atoms: C_6  and  C_8 
REMARK    3  A    between atoms: N_15  and  C_17 
REMARK    4  A    between atoms: C_17  and  C_18 
ROOT
HETATM    1  C   UNL     1     -44.309  58.408 -54.278  1.00  0.00    -0.023 A 
HETATM    2  C   UNL     1     -44.162  57.176 -53.594  1.00  0.00     0.022 A 
HETATM    3  C   UNL     1     -43.709  56.010 -54.237  1.00  0.00     0.002 A 
HETATM    4  C   UNL     1     -43.363  56.091 -55.584  1.00  0.00     0.076 A 
HETATM    5  O   UNL     1     -42.906  54.997 -56.261  1.00  0.00    -0.349 OA
HETATM    6  C   UNL     1     -41.594  54.619 -55.820  1.00  0.00     0.203 C 
HETATM    7  C   UNL     1     -41.669  53.586 -54.692  1.00  0.00     0.262 C 
HETATM    8  N   UNL     1     -42.202  54.150 -53.383  1.00  0.00    -0.061 N 
HETATM    9  H   UNL     1     -42.300  53.335 -52.762  1.00  0.00     0.280 HD
HETATM   10  C   UNL     1     -43.602  54.702 -53.504  1.00  0.00     0.276 C 
HETATM   11  C   UNL     1     -43.502  57.281 -56.287  1.00  0.00     0.038 A 
HETATM   12  C   UNL     1     -43.955  58.432 -55.636  1.00  0.00     0.013 A 
ENDROOT
BRANCH   1  13
HETATM   13  C   UNL     1     -44.749  59.661 -53.509  1.00  0.00     0.088 C 
HETATM   14  C   UNL     1     -43.750  60.833 -53.612  1.00  0.00     0.070 C 
HETATM   15  C   UNL     1     -42.517  60.618 -52.754  1.00  0.00     0.237 C 
HETATM   16  N   UNL     1     -42.934  60.447 -51.318  1.00  0.00    -0.075 N 
HETATM   17  C   UNL     1     -41.738  60.341 -50.403  1.00  0.00     0.269 C 
HETATM   18  H   UNL     1     -43.424  61.308 -51.029  1.00  0.00     0.279 HD
HETATM   19  C   UNL     1     -43.885  59.295 -51.128  1.00  0.00     0.237 C 
HETATM   20  C   UNL     1     -45.107  59.479 -52.019  1.00  0.00     0.070 C 
BRANCH  13  21
HETATM   21  O   UNL     1     -45.941  60.098 -54.176  1.00  0.00    -0.385 OA
HETATM   22  H   UNL     1     -46.050  59.579 -54.995  1.00  0.00     0.211 HD
ENDBRANCH  13  21
ENDBRANCH   1  13
BRANCH   8  23
HETATM   23  C   UNL     1     -41.264  55.087 -52.650  1.00  0.00     0.278 C 
BRANCH  23  24
HETATM   24  C   UNL     1     -41.002  54.718 -51.221  1.00  0.00     0.028 A 
HETATM   25  C   UNL     1     -40.342  53.541 -50.845  1.00  0.00     0.045 A 
HETATM   26 CL   UNL     1     -39.720  52.456 -52.037  1.00  0.00    -0.084 Cl
HETATM   27  C   UNL     1     -40.151  53.226 -49.498  1.00  0.00     0.024 A 
HETATM   28  C   UNL     1     -40.620  54.088 -48.505  1.00  0.00     0.005 A 
HETATM   29  C   UNL     1     -41.273  55.265 -48.861  1.00  0.00     0.043 A 
HETATM   30  C   UNL     1     -41.456  55.566 -50.206  1.00  0.00     0.126 A 
HETATM   31  F   UNL     1     -42.067  56.712 -50.539  1.00  0.00    -0.205 F 
ENDBRANCH  23  24
ENDBRANCH   8  23
TORSDOF 4
ENDMDL
MODEL 7
REMARK VINA RESULT:      -7.5      2.133      2.678
REMARK  4 active torsions:
REMARK  status: ('A' for Active; 'I' for Inactive)
REMARK    1  A    between atoms: C_6  and  O_7 
REMARK    2  A    between atoms: C_6  and  C_8 
REMARK    3  A    between atoms: N_15  and  C_17 
REMARK    4  A    between atoms: C_17  and  C_18 
ROOT
HETATM    1  C   UNL     1     -43.024  59.099 -55.880  1.00  0.00    -0.023 A 
HETATM    2  C   UNL     1     -42.247  58.382 -54.938  1.00  0.00     0.022 A 
HETATM    3  C   UNL     1     -42.611  58.287 -53.582  1.00  0.00     0.002 A 
HETATM    4  C   UNL     1     -43.796  58.894 -53.172  1.00  0.00     0.076 A 
HETATM    5  O   UNL     1     -44.208  58.828 -51.872  1.00  0.00    -0.349 OA
HETATM    6  C   UNL     1     -44.624  57.500 -51.522  1.00  0.00     0.203 C 
HETATM    7  C   UNL     1     -43.460  56.695 -50.938  1.00  0.00     0.262 C 
HETATM    8  N   UNL     1     -42.388  56.343 -51.960  1.00  0.00    -0.061 N 
HETATM    9  H   UNL     1     -41.631  55.909 -51.414  1.00  0.00     0.280 HD
HETATM   10  C   UNL     1     -41.749  57.558 -52.589  1.00  0.00     0.276 C 
HETATM   11  C   UNL     1     -44.578  59.612 -54.068  1.00  0.00     0.038 A 
HETATM   12  C   UNL     1     -44.204  59.700 -55.412  1.00  0.00     0.013 A 
ENDROOT
BRANCH   1  13
HETATM   13  C   UNL     1     -42.610  59.117 -57.357  1.00  0.00     0.088 C 
HETATM   14  C   UNL     1     -43.636  59.809 -58.280  1.00  0.00     0.070 C 
HETATM   15  C   UNL     1     -44.860  58.948 -58.530  1.00  0.00     0.237 C 
HETATM   16  N   UNL     1     -44.435  57.645 -59.152  1.00  0.00    -0.075 N 
HETATM   17  C   UNL     1     -45.624  56.795 -59.526  1.00  0.00     0.269 C 
HETATM   18  H   UNL     1     -43.963  57.863 -60.044  1.00  0.00     0.279 HD
HETATM   19  C   UNL     1     -43.457  56.889 -58.291  1.00  0.00     0.237 C 
HETATM   20  C   UNL     1     -42.242  57.762 -57.997  1.00  0.00     0.070 C 
BRANCH  13  21
HETATM   21  O   UNL     1     -41.431  59.932 -57.396  1.00  0.00    -0.385 OA
HETATM   22  H   UNL     1     -40.910  59.692 -58.184  1.00  0.00     0.211 HD
ENDBRANCH  13  21
ENDBRANCH   1  13
BRANCH   8  23
HETATM   23  C   UNL     1     -42.784  55.294 -52.979  1.00  0.00     0.278 C 
BRANCH  23  24
HETATM   24  C   UNL     1     -41.747  54.239 -53.225  1.00  0.00     0.028 A 
HETATM   25  C   UNL     1     -41.247  53.942 -54.499  1.00  0.00     0.045 A 
HETATM   26 CL   UNL     1     -41.759  54.842 -55.882  1.00  0.00    -0.084 Cl
HETATM   27  C   UNL     1     -40.304  52.927 -54.680  1.00  0.00     0.024 A 
HETATM   28  C   UNL     1     -39.849  52.193 -53.584  1.00  0.00     0.005 A 
HETATM   29  C   UNL     1     -40.332  52.479 -52.310  1.00  0.00     0.043 A 
HETATM   30  C   UNL     1     -41.269  53.492 -52.144  1.00  0.00     0.126 A 
HETATM   31  F   UNL     1     -41.712  53.773 -50.910  1.00  0.00    -0.205 F 
ENDBRANCH  23  24
ENDBRANCH   8  23
TORSDOF 4
ENDMDL
MODEL 8
REMARK VINA RESULT:      -7.4     15.664     17.386
REMARK  4 active torsions:
REMARK  status: ('A' for Active; 'I' for Inactive)
REMARK    1  A    between atoms: C_6  and  O_7 
REMARK    2  A    between atoms: C_6  and  C_8 
REMARK    3  A    between atoms: N_15  and  C_17 
REMARK    4  A    between atoms: C_17  and  C_18 
ROOT
HETATM    1  C   UNL     1     -35.766  40.995 -56.436  1.00  0.00    -0.023 A 
HETATM    2  C   UNL     1     -35.762  40.102 -55.336  1.00  0.00     0.022 A 
HETATM    3  C   UNL     1     -34.569  39.631 -54.758  1.00  0.00     0.002 A 
HETATM    4  C   UNL     1     -33.359  40.092 -55.270  1.00  0.00     0.076 A 
HETATM    5  O   UNL     1     -32.168  39.679 -54.745  1.00  0.00    -0.349 OA
HETATM    6  C   UNL     1     -31.960  40.222 -53.433  1.00  0.00     0.203 C 
HETATM    7  C   UNL     1     -32.486  39.271 -52.354  1.00  0.00     0.262 C 
HETATM    8  N   UNL     1     -34.003  39.163 -52.324  1.00  0.00    -0.061 N 
HETATM    9  H   UNL     1     -34.205  38.421 -51.640  1.00  0.00     0.280 HD
HETATM   10  C   UNL     1     -34.585  38.649 -53.619  1.00  0.00     0.276 C 
HETATM   11  C   UNL     1     -33.327  40.961 -56.353  1.00  0.00     0.038 A 
HETATM   12  C   UNL     1     -34.519  41.421 -56.920  1.00  0.00     0.013 A 
ENDROOT
BRANCH   1  13
HETATM   13  C   UNL     1     -37.098  41.523 -56.986  1.00  0.00     0.088 C 
HETATM   14  C   UNL     1     -38.253  40.502 -56.895  1.00  0.00     0.070 C 
HETATM   15  C   UNL     1     -38.140  39.409 -57.941  1.00  0.00     0.237 C 
HETATM   16  N   UNL     1     -38.134  40.030 -59.313  1.00  0.00    -0.075 N 
HETATM   17  C   UNL     1     -38.136  38.980 -60.396  1.00  0.00     0.269 C 
HETATM   18  H   UNL     1     -39.021  40.544 -59.428  1.00  0.00     0.279 HD
HETATM   19  C   UNL     1     -37.009  41.015 -59.492  1.00  0.00     0.237 C 
HETATM   20  C   UNL     1     -37.087  42.094 -58.419  1.00  0.00     0.070 C 
BRANCH  13  21
HETATM   21  O   UNL     1     -37.453  42.600 -56.108  1.00  0.00    -0.385 OA
HETATM   22  H   UNL     1     -37.642  43.392 -56.645  1.00  0.00     0.211 HD
ENDBRANCH  13  21
ENDBRANCH   1  13
BRANCH   8  23
HETATM   23  C   UNL     1     -34.730  40.384 -51.799  1.00  0.00     0.278 C 
BRANCH  23  24
HETATM   24  C   UNL     1     -36.223  40.253 -51.757  1.00  0.00     0.028 A 
HETATM   25  C   UNL     1     -36.880  39.208 -51.093  1.00  0.00     0.045 A 
HETATM   26 CL   UNL     1     -35.987  38.023 -50.208  1.00  0.00    -0.084 Cl
HETATM   27  C   UNL     1     -38.273  39.112 -51.110  1.00  0.00     0.024 A 
HETATM   28  C   UNL     1     -39.031  40.064 -51.795  1.00  0.00     0.005 A 
HETATM   29  C   UNL     1     -38.395  41.111 -52.456  1.00  0.00     0.043 A 
HETATM   30  C   UNL     1     -37.007  41.195 -52.430  1.00  0.00     0.126 A 
HETATM   31  F   UNL     1     -36.405  42.219 -53.051  1.00  0.00    -0.205 F 
ENDBRANCH  23  24
ENDBRANCH   8  23
TORSDOF 4
ENDMDL
MODEL 9
REMARK VINA RESULT:      -7.4      3.274      5.627
REMARK  4 active torsions:
REMARK  status: ('A' for Active; 'I' for Inactive)
REMARK    1  A    between atoms: C_6  and  O_7 
REMARK    2  A    between atoms: C_6  and  C_8 
REMARK    3  A    between atoms: N_15  and  C_17 
REMARK    4  A    between atoms: C_17  and  C_18 
ROOT
HETATM    1  C   UNL     1     -43.178  56.327 -56.857  1.00  0.00    -0.023 A 
HETATM    2  C   UNL     1     -43.774  57.058 -55.801  1.00  0.00     0.022 A 
HETATM    3  C   UNL     1     -43.892  56.536 -54.500  1.00  0.00     0.002 A 
HETATM    4  C   UNL     1     -43.371  55.270 -54.247  1.00  0.00     0.076 A 
HETATM    5  O   UNL     1     -43.445  54.713 -53.002  1.00  0.00    -0.349 OA
HETATM    6  C   UNL     1     -42.583  55.388 -52.075  1.00  0.00     0.203 C 
HETATM    7  C   UNL     1     -43.328  56.512 -51.349  1.00  0.00     0.262 C 
HETATM    8  N   UNL     1     -43.676  57.691 -52.246  1.00  0.00    -0.061 N 
HETATM    9  H   UNL     1     -44.259  58.307 -51.663  1.00  0.00     0.280 HD
HETATM   10  C   UNL     1     -44.569  57.311 -53.403  1.00  0.00     0.276 C 
HETATM   11  C   UNL     1     -42.787  54.522 -55.262  1.00  0.00     0.038 A 
HETATM   12  C   UNL     1     -42.677  55.052 -56.550  1.00  0.00     0.013 A 
ENDROOT
BRANCH   1  13
HETATM   13  C   UNL     1     -43.022  56.972 -58.241  1.00  0.00     0.088 C 
HETATM   14  C   UNL     1     -44.069  58.068 -58.534  1.00  0.00     0.070 C 
HETATM   15  C   UNL     1     -45.437  57.491 -58.848  1.00  0.00     0.237 C 
HETATM   16  N   UNL     1     -45.330  56.576 -60.038  1.00  0.00    -0.075 N 
HETATM   17  C   UNL     1     -46.683  56.060 -60.464  1.00  0.00     0.269 C 
HETATM   18  H   UNL     1     -44.988  57.136 -60.835  1.00  0.00     0.279 HD
HETATM   19  C   UNL     1     -44.350  55.454 -59.815  1.00  0.00     0.237 C 
HETATM   20  C   UNL     1     -42.983  56.024 -59.456  1.00  0.00     0.070 C 
BRANCH  13  21
HETATM   21  O   UNL     1     -41.755  57.641 -58.190  1.00  0.00    -0.385 OA
HETATM   22  H   UNL     1     -41.675  58.097 -57.331  1.00  0.00     0.211 HD
ENDBRANCH  13  21
ENDBRANCH   1  13
BRANCH   8  23
HETATM   23  C   UNL     1     -42.503  58.553 -52.669  1.00  0.00     0.278 C 
BRANCH  23  24
HETATM   24  C   UNL     1     -42.799  60.021 -52.736  1.00  0.00     0.028 A 
HETATM   25  C   UNL     1     -42.659  60.775 -53.908  1.00  0.00     0.045 A 
HETATM   26 CL   UNL     1     -42.192  60.025 -55.393  1.00  0.00    -0.084 Cl
HETATM   27  C   UNL     1     -42.916  62.148 -53.911  1.00  0.00     0.024 A 
HETATM   28  C   UNL     1     -43.317  62.787 -52.736  1.00  0.00     0.005 A 
HETATM   29  C   UNL     1     -43.467  62.051 -51.564  1.00  0.00     0.043 A 
HETATM   30  C   UNL     1     -43.208  60.685 -51.576  1.00  0.00     0.126 A 
HETATM   31  F   UNL     1     -43.375  59.982 -50.446  1.00  0.00    -0.205 F 
ENDBRANCH  23  24
ENDBRANCH   8  23
TORSDOF 4
ENDMDL
MODEL 10
REMARK VINA RESULT:      -7.3      3.751      6.688
REMARK  4 active torsions:
REMARK  status: ('A' for Active; 'I' for Inactive)
REMARK    1  A    between atoms: C_6  and  O_7 
REMARK    2  A    between atoms: C_6  and  C_8 
REMARK    3  A    between atoms: N_15  and  C_17 
REMARK    4  A    between atoms: C_17  and  C_18 
ROOT
HETATM    1  C   UNL     1     -44.099  60.293 -50.544  1.00  0.00    -0.023 A 
HETATM    2  C   UNL     1     -44.195  59.475 -51.696  1.00  0.00     0.022 A 
HETATM    3  C   UNL     1     -43.090  59.218 -52.529  1.00  0.00     0.002 A 
HETATM    4  C   UNL     1     -41.858  59.764 -52.177  1.00  0.00     0.076 A 
HETATM    5  O   UNL     1     -40.746  59.543 -52.939  1.00  0.00    -0.349 OA
HETATM    6  C   UNL     1     -40.309  58.180 -52.841  1.00  0.00     0.203 C 
HETATM    7  C   UNL     1     -40.935  57.320 -53.943  1.00  0.00     0.262 C 
HETATM    8  N   UNL     1     -42.431  57.099 -53.767  1.00  0.00    -0.061 N 
HETATM    9  H   UNL     1     -42.730  56.609 -54.621  1.00  0.00     0.280 HD
HETATM   10  C   UNL     1     -43.223  58.384 -53.773  1.00  0.00     0.276 C 
HETATM   11  C   UNL     1     -41.730  60.577 -51.058  1.00  0.00     0.038 A 
HETATM   12  C   UNL     1     -42.836  60.825 -50.240  1.00  0.00     0.013 A 
ENDROOT
BRANCH   1  13
HETATM   13  C   UNL     1     -45.324  60.487 -49.640  1.00  0.00     0.088 C 
HETATM   14  C   UNL     1     -46.437  61.341 -50.283  1.00  0.00     0.070 C 
HETATM   15  C   UNL     1     -46.093  62.819 -50.302  1.00  0.00     0.237 C 
HETATM   16  N   UNL     1     -45.855  63.293 -48.894  1.00  0.00    -0.075 N 
HETATM   17  C   UNL     1     -45.618  64.782 -48.843  1.00  0.00     0.269 C 
HETATM   18  H   UNL     1     -46.724  63.136 -48.359  1.00  0.00     0.279 HD
HETATM   19  C   UNL     1     -44.753  62.529 -48.208  1.00  0.00     0.237 C 
HETATM   20  C   UNL     1     -45.068  61.038 -48.223  1.00  0.00     0.070 C 
BRANCH  13  21
HETATM   21  O   UNL     1     -45.875  59.172 -49.486  1.00  0.00    -0.385 OA
HETATM   22  H   UNL     1     -45.550  58.793 -48.648  1.00  0.00     0.211 HD
ENDBRANCH  13  21
ENDBRANCH   1  13
BRANCH   8  23
HETATM   23  C   UNL     1     -42.821  56.175 -52.632  1.00  0.00     0.278 C 
BRANCH  23  24
HETATM   24  C   UNL     1     -41.927  54.983 -52.460  1.00  0.00     0.028 A 
HETATM   25  C   UNL     1     -41.091  54.810 -51.350  1.00  0.00     0.045 A 
HETATM   26 CL   UNL     1     -41.092  55.953 -50.054  1.00  0.00    -0.084 Cl
HETATM   27  C   UNL     1     -40.252  53.698 -51.251  1.00  0.00     0.024 A 
HETATM   28  C   UNL     1     -40.238  52.740 -52.268  1.00  0.00     0.005 A 
HETATM   29  C   UNL     1     -41.068  52.894 -53.375  1.00  0.00     0.043 A 
HETATM   30  C   UNL     1     -41.898  54.006 -53.460  1.00  0.00     0.126 A 
HETATM   31  F   UNL     1     -42.708  54.134 -54.521  1.00  0.00    -0.205 F 
ENDBRANCH  23  24
ENDBRANCH   8  23
TORSDOF 4
ENDMDL
