MODEL 1
REMARK VINA RESULT:      -8.4      0.000      0.000
REMARK  6 active torsions:
REMARK  status: ('A' for Active; 'I' for Inactive)
REMARK    1  A    between atoms: CG_8  and  CB_9 
REMARK    2  A    between atoms: CB_9  and  CA_10 
REMARK    3  A    between atoms: CA_10  and  N_11 
REMARK    4  A    between atoms: CA_10  and  C_12 
REMARK       I    between atoms: N_11  and  C_18 
REMARK    5  A    between atoms: C_12  and  O_13 
REMARK       I    between atoms: C_18  and  N_19 
REMARK    6  A    between atoms: N_19  and  C_20 
ROOT
ATOM      1  CA  TRP A   1     -43.444  57.107 -55.464  1.00  0.00     0.114 C 
ENDROOT
BRANCH   1   2
ATOM      2  CB  TRP A   1     -43.304  58.081 -56.655  1.00  0.00     0.068 C 
BRANCH   2   3
ATOM      3  CG  TRP A   1     -44.387  57.903 -57.683  1.00  0.00    -0.028 A 
ATOM      4  CD2 TRP A   1     -44.481  56.848 -58.647  1.00  0.00    -0.002 A 
ATOM      5  CE3 TRP A   1     -43.685  55.726 -58.953  1.00  0.00     0.014 A 
ATOM      6  CE2 TRP A   1     -45.648  57.058 -59.384  1.00  0.00     0.042 A 
ATOM      7  CZ3 TRP A   1     -44.084  54.855 -59.974  1.00  0.00     0.001 A 
ATOM      8  CH2 TRP A   1     -45.255  55.090 -60.690  1.00  0.00     0.002 A 
ATOM      9  CZ2 TRP A   1     -46.059  56.199 -60.412  1.00  0.00     0.030 A 
ATOM     10  NE1 TRP A   1     -46.239  58.196 -58.890  1.00  0.00    -0.365 N 
ATOM     11  HE1 TRP A   1     -47.110  58.580 -59.228  1.00  0.00     0.165 HD
ATOM     12  CD1 TRP A   1     -45.492  58.712 -57.866  1.00  0.00     0.096 A 
ENDBRANCH   2   3
ENDBRANCH   1   2
BRANCH   1  13
ATOM     13  N   TRP A   1     -42.188  56.406 -55.157  1.00  0.00    -0.336 N 
HETATM   14  C   UNK A   0     -42.180  55.112 -54.678  1.00  0.00     0.321 C 
HETATM   15  N   UNK A   0     -40.901  54.726 -54.340  1.00  0.00    -0.309 N 
HETATM   16  O   UNK A   0     -43.191  54.429 -54.598  1.00  0.00    -0.247 OA
HETATM   17  H   UNK A   0     -40.165  55.298 -54.724  1.00  0.00     0.170 HD
ATOM     18  H   TRP A   1     -41.476  57.004 -54.760  1.00  0.00     0.164 HD
BRANCH  15  19
HETATM   19  C   UNK A   0     -40.512  53.536 -53.692  1.00  0.00     0.036 A 
HETATM   20  C   UNK A   0     -40.243  52.343 -54.370  1.00  0.00     0.039 A 
HETATM   21  C   UNK A   0     -39.890  51.222 -53.634  1.00  0.00    -0.024 A 
HETATM   22  C   UNK A   0     -39.798  51.263 -52.253  1.00  0.00    -0.026 A 
HETATM   23  C   UNK A   0     -39.540  49.862 -54.111  1.00  0.00     0.207 C 
HETATM   24  C   UNK A   0     -39.378  49.932 -51.751  1.00  0.00     0.207 C 
HETATM   25  C   UNK A   0     -40.058  52.428 -51.558  1.00  0.00     0.012 A 
HETATM   26  O   UNK A   0     -39.453  49.063 -52.905  1.00  0.00    -0.382 OA
HETATM   27  C   UNK A   0     -40.424  53.567 -52.286  1.00  0.00     0.030 A 
ENDBRANCH  15  19
ENDBRANCH   1  13
BRANCH   1  28
ATOM     28  C   TRP A   1     -44.043  57.822 -54.237  1.00  0.00     0.189 C 
BRANCH  28  29
ATOM     29  O   TRP A   1     -44.738  56.887 -53.413  1.00  0.00    -0.399 OA
ATOM     30  H   TRP A   1     -44.700  57.237 -52.505  1.00  0.00     0.209 HD
ENDBRANCH  28  29
ENDBRANCH   1  28
TORSDOF 6
ENDMDL
MODEL 2
REMARK VINA RESULT:      -8.4      1.296      2.054
REMARK  6 active torsions:
REMARK  status: ('A' for Active; 'I' for Inactive)
REMARK    1  A    between atoms: CG_8  and  CB_9 
REMARK    2  A    between atoms: CB_9  and  CA_10 
REMARK    3  A    between atoms: CA_10  and  N_11 
REMARK    4  A    between atoms: CA_10  and  C_12 
REMARK       I    between atoms: N_11  and  C_18 
REMARK    5  A    between atoms: C_12  and  O_13 
REMARK       I    between atoms: C_18  and  N_19 
REMARK    6  A    between atoms: N_19  and  C_20 
ROOT
ATOM      1  CA  TRP A   1     -43.279  56.513 -56.808  1.00  0.00     0.114 C 
ENDROOT
BRANCH   1   2
ATOM      2  CB  TRP A   1     -43.097  56.919 -58.287  1.00  0.00     0.068 C 
BRANCH   2   3
ATOM      3  CG  TRP A   1     -44.118  56.290 -59.194  1.00  0.00    -0.028 A 
ATOM      4  CD2 TRP A   1     -45.284  56.923 -59.734  1.00  0.00    -0.002 A 
ATOM      5  CE3 TRP A   1     -45.839  58.214 -59.621  1.00  0.00     0.014 A 
ATOM      6  CE2 TRP A   1     -45.935  55.986 -60.537  1.00  0.00     0.042 A 
ATOM      7  CZ3 TRP A   1     -47.015  58.522 -60.316  1.00  0.00     0.001 A 
ATOM      8  CH2 TRP A   1     -47.641  57.565 -61.111  1.00  0.00     0.002 A 
ATOM      9  CZ2 TRP A   1     -47.115  56.276 -61.235  1.00  0.00     0.030 A 
ATOM     10  NE1 TRP A   1     -45.197  54.827 -60.487  1.00  0.00    -0.365 N 
ATOM     11  HE1 TRP A   1     -45.427  53.981 -60.988  1.00  0.00     0.165 HD
ATOM     12  CD1 TRP A   1     -44.101  54.998 -59.685  1.00  0.00     0.096 A 
ENDBRANCH   2   3
ENDBRANCH   1   2
BRANCH   1  13
ATOM     13  N   TRP A   1     -42.051  55.958 -56.219  1.00  0.00    -0.336 N 
HETATM   14  C   UNK A   0     -42.043  54.736 -55.577  1.00  0.00     0.321 C 
HETATM   15  N   UNK A   0     -40.816  54.499 -54.997  1.00  0.00    -0.309 N 
HETATM   16  O   UNK A   0     -43.011  53.989 -55.565  1.00  0.00    -0.247 OA
HETATM   17  H   UNK A   0     -40.063  55.078 -55.335  1.00  0.00     0.170 HD
ATOM     18  H   TRP A   1     -41.451  56.655 -55.801  1.00  0.00     0.164 HD
BRANCH  15  19
HETATM   19  C   UNK A   0     -40.468  53.432 -54.144  1.00  0.00     0.036 A 
HETATM   20  C   UNK A   0     -40.197  52.138 -54.601  1.00  0.00     0.039 A 
HETATM   21  C   UNK A   0     -39.887  51.155 -53.673  1.00  0.00    -0.024 A 
HETATM   22  C   UNK A   0     -39.838  51.429 -52.318  1.00  0.00    -0.026 A 
HETATM   23  C   UNK A   0     -39.544  49.730 -53.901  1.00  0.00     0.207 C 
HETATM   24  C   UNK A   0     -39.456  50.197 -51.583  1.00  0.00     0.207 C 
HETATM   25  C   UNK A   0     -40.101  52.698 -51.838  1.00  0.00     0.012 A 
HETATM   26  O   UNK A   0     -39.509  49.146 -52.575  1.00  0.00    -0.382 OA
HETATM   27  C   UNK A   0     -40.424  53.700 -52.761  1.00  0.00     0.030 A 
ENDBRANCH  15  19
ENDBRANCH   1  13
BRANCH   1  28
ATOM     28  C   TRP A   1     -43.860  57.679 -55.985  1.00  0.00     0.189 C 
BRANCH  28  29
ATOM     29  O   TRP A   1     -45.157  57.337 -55.494  1.00  0.00    -0.399 OA
ATOM     30  H   TRP A   1     -45.489  56.623 -56.066  1.00  0.00     0.209 HD
ENDBRANCH  28  29
ENDBRANCH   1  28
TORSDOF 6
ENDMDL
MODEL 3
REMARK VINA RESULT:      -8.2      2.323      8.625
REMARK  6 active torsions:
REMARK  status: ('A' for Active; 'I' for Inactive)
REMARK    1  A    between atoms: CG_8  and  CB_9 
REMARK    2  A    between atoms: CB_9  and  CA_10 
REMARK    3  A    between atoms: CA_10  and  N_11 
REMARK    4  A    between atoms: CA_10  and  C_12 
REMARK       I    between atoms: N_11  and  C_18 
REMARK    5  A    between atoms: C_12  and  O_13 
REMARK       I    between atoms: C_18  and  N_19 
REMARK    6  A    between atoms: N_19  and  C_20 
ROOT
ATOM      1  CA  TRP A   1     -40.991  55.647 -54.442  1.00  0.00     0.114 C 
ENDROOT
BRANCH   1   2
ATOM      2  CB  TRP A   1     -41.854  54.561 -53.762  1.00  0.00     0.068 C 
BRANCH   2   3
ATOM      3  CG  TRP A   1     -41.051  53.645 -52.881  1.00  0.00    -0.028 A 
ATOM      4  CD2 TRP A   1     -40.617  52.318 -53.203  1.00  0.00    -0.002 A 
ATOM      5  CE3 TRP A   1     -40.772  51.482 -54.327  1.00  0.00     0.014 A 
ATOM      6  CE2 TRP A   1     -39.886  51.841 -52.114  1.00  0.00     0.042 A 
ATOM      7  CZ3 TRP A   1     -40.188  50.210 -54.326  1.00  0.00     0.001 A 
ATOM      8  CH2 TRP A   1     -39.462  49.763 -53.225  1.00  0.00     0.002 A 
ATOM      9  CZ2 TRP A   1     -39.299  50.569 -52.095  1.00  0.00     0.030 A 
ATOM     10  NE1 TRP A   1     -39.876  52.837 -51.167  1.00  0.00    -0.365 N 
ATOM     11  HE1 TRP A   1     -39.405  52.772 -50.275  1.00  0.00     0.165 HD
ATOM     12  CD1 TRP A   1     -40.571  53.927 -51.616  1.00  0.00     0.096 A 
ENDBRANCH   2   3
ENDBRANCH   1   2
BRANCH   1  13
ATOM     13  N   TRP A   1     -41.249  55.751 -55.886  1.00  0.00    -0.336 N 
HETATM   14  C   UNK A   0     -42.506  56.037 -56.378  1.00  0.00     0.321 C 
HETATM   15  N   UNK A   0     -42.523  55.947 -57.754  1.00  0.00    -0.309 N 
HETATM   16  O   UNK A   0     -43.446  56.340 -55.657  1.00  0.00    -0.247 OA
HETATM   17  H   UNK A   0     -41.617  55.961 -58.195  1.00  0.00     0.170 HD
ATOM     18  H   TRP A   1     -40.722  55.092 -56.441  1.00  0.00     0.164 HD
BRANCH  15  19
HETATM   19  C   UNK A   0     -43.647  56.031 -58.600  1.00  0.00     0.036 A 
HETATM   20  C   UNK A   0     -44.378  57.206 -58.794  1.00  0.00     0.039 A 
HETATM   21  C   UNK A   0     -45.483  57.174 -59.632  1.00  0.00    -0.024 A 
HETATM   22  C   UNK A   0     -45.869  56.011 -60.275  1.00  0.00    -0.026 A 
HETATM   23  C   UNK A   0     -46.400  58.276 -60.014  1.00  0.00     0.207 C 
HETATM   24  C   UNK A   0     -47.059  56.289 -61.117  1.00  0.00     0.207 C 
HETATM   25  C   UNK A   0     -45.165  54.835 -60.101  1.00  0.00     0.012 A 
HETATM   26  O   UNK A   0     -47.468  57.625 -60.745  1.00  0.00    -0.382 OA
HETATM   27  C   UNK A   0     -44.052  54.849 -59.252  1.00  0.00     0.030 A 
ENDBRANCH  15  19
ENDBRANCH   1  13
BRANCH   1  28
ATOM     28  C   TRP A   1     -41.130  56.996 -53.712  1.00  0.00     0.189 C 
BRANCH  28  29
ATOM     29  O   TRP A   1     -42.344  57.027 -52.961  1.00  0.00    -0.399 OA
ATOM     30  H   TRP A   1     -42.932  56.362 -53.360  1.00  0.00     0.209 HD
ENDBRANCH  28  29
ENDBRANCH   1  28
TORSDOF 6
ENDMDL
MODEL 4
REMARK VINA RESULT:      -8.2      1.864      2.427
REMARK  6 active torsions:
REMARK  status: ('A' for Active; 'I' for Inactive)
REMARK    1  A    between atoms: CG_8  and  CB_9 
REMARK    2  A    between atoms: CB_9  and  CA_10 
REMARK    3  A    between atoms: CA_10  and  N_11 
REMARK    4  A    between atoms: CA_10  and  C_12 
REMARK       I    between atoms: N_11  and  C_18 
REMARK    5  A    between atoms: C_12  and  O_13 
REMARK       I    between atoms: C_18  and  N_19 
REMARK    6  A    between atoms: N_19  and  C_20 
ROOT
ATOM      1  CA  TRP A   1     -42.577  58.168 -53.758  1.00  0.00     0.114 C 
ENDROOT
BRANCH   1   2
ATOM      2  CB  TRP A   1     -43.545  58.524 -54.907  1.00  0.00     0.068 C 
BRANCH   2   3
ATOM      3  CG  TRP A   1     -42.842  58.723 -56.221  1.00  0.00    -0.028 A 
ATOM      4  CD2 TRP A   1     -42.802  57.798 -57.314  1.00  0.00    -0.002 A 
ATOM      5  CE3 TRP A   1     -43.338  56.512 -57.531  1.00  0.00     0.014 A 
ATOM      6  CE2 TRP A   1     -42.062  58.391 -58.338  1.00  0.00     0.042 A 
ATOM      7  CZ3 TRP A   1     -43.122  55.872 -58.756  1.00  0.00     0.001 A 
ATOM      8  CH2 TRP A   1     -42.381  56.491 -59.760  1.00  0.00     0.002 A 
ATOM      9  CZ2 TRP A   1     -41.832  57.763 -59.569  1.00  0.00     0.030 A 
ATOM     10  NE1 TRP A   1     -41.666  59.628 -57.886  1.00  0.00    -0.365 N 
ATOM     11  HE1 TRP A   1     -41.125  60.287 -58.427  1.00  0.00     0.165 HD
ATOM     12  CD1 TRP A   1     -42.130  59.840 -56.616  1.00  0.00     0.096 A 
ENDBRANCH   2   3
ENDBRANCH   1   2
BRANCH   1  13
ATOM     13  N   TRP A   1     -41.654  57.081 -54.113  1.00  0.00    -0.336 N 
HETATM   14  C   UNK A   0     -41.754  55.829 -53.540  1.00  0.00     0.321 C 
HETATM   15  N   UNK A   0     -40.701  55.029 -53.930  1.00  0.00    -0.309 N 
HETATM   16  O   UNK A   0     -42.678  55.509 -52.806  1.00  0.00    -0.247 OA
HETATM   17  H   UNK A   0     -40.195  55.351 -54.740  1.00  0.00     0.170 HD
ATOM     18  H   TRP A   1     -40.706  57.390 -54.279  1.00  0.00     0.164 HD
BRANCH  15  19
HETATM   19  C   UNK A   0     -40.384  53.743 -53.448  1.00  0.00     0.036 A 
HETATM   20  C   UNK A   0     -40.227  52.628 -54.278  1.00  0.00     0.039 A 
HETATM   21  C   UNK A   0     -39.937  51.401 -53.698  1.00  0.00    -0.024 A 
HETATM   22  C   UNK A   0     -39.799  51.263 -52.328  1.00  0.00    -0.026 A 
HETATM   23  C   UNK A   0     -39.706  50.090 -54.352  1.00  0.00     0.207 C 
HETATM   24  C   UNK A   0     -39.466  49.853 -52.010  1.00  0.00     0.207 C 
HETATM   25  C   UNK A   0     -39.949  52.348 -51.485  1.00  0.00     0.012 A 
HETATM   26  O   UNK A   0     -39.642  49.143 -53.257  1.00  0.00    -0.382 OA
HETATM   27  C   UNK A   0     -40.250  53.591 -52.054  1.00  0.00     0.030 A 
ENDBRANCH  15  19
ENDBRANCH   1  13
BRANCH   1  28
ATOM     28  C   TRP A   1     -41.848  59.425 -53.244  1.00  0.00     0.189 C 
BRANCH  28  29
ATOM     29  O   TRP A   1     -40.450  59.332 -53.523  1.00  0.00    -0.399 OA
ATOM     30  H   TRP A   1     -40.027  60.074 -53.056  1.00  0.00     0.209 HD
ENDBRANCH  28  29
ENDBRANCH   1  28
TORSDOF 6
ENDMDL
MODEL 5
REMARK VINA RESULT:      -8.0      2.682      8.172
REMARK  6 active torsions:
REMARK  status: ('A' for Active; 'I' for Inactive)
REMARK    1  A    between atoms: CG_8  and  CB_9 
REMARK    2  A    between atoms: CB_9  and  CA_10 
REMARK    3  A    between atoms: CA_10  and  N_11 
REMARK    4  A    between atoms: CA_10  and  C_12 
REMARK       I    between atoms: N_11  and  C_18 
REMARK    5  A    between atoms: C_12  and  O_13 
REMARK       I    between atoms: C_18  and  N_19 
REMARK    6  A    between atoms: N_19  and  C_20 
ROOT
ATOM      1  CA  TRP A   1     -43.269  55.936 -52.044  1.00  0.00     0.114 C 
ENDROOT
BRANCH   1   2
ATOM      2  CB  TRP A   1     -43.416  54.569 -51.339  1.00  0.00     0.068 C 
BRANCH   2   3
ATOM      3  CG  TRP A   1     -42.102  53.861 -51.159  1.00  0.00    -0.028 A 
ATOM      4  CD2 TRP A   1     -41.356  53.180 -52.174  1.00  0.00    -0.002 A 
ATOM      5  CE3 TRP A   1     -41.559  52.946 -53.550  1.00  0.00     0.014 A 
ATOM      6  CE2 TRP A   1     -40.194  52.687 -51.580  1.00  0.00     0.042 A 
ATOM      7  CZ3 TRP A   1     -40.596  52.239 -54.279  1.00  0.00     0.001 A 
ATOM      8  CH2 TRP A   1     -39.444  51.762 -53.657  1.00  0.00     0.002 A 
ATOM      9  CZ2 TRP A   1     -39.222  51.974 -52.294  1.00  0.00     0.030 A 
ATOM     10  NE1 TRP A   1     -40.230  53.053 -50.256  1.00  0.00    -0.365 N 
ATOM     11  HE1 TRP A   1     -39.506  52.841 -49.584  1.00  0.00     0.165 HD
ATOM     12  CD1 TRP A   1     -41.371  53.761 -49.990  1.00  0.00     0.096 A 
ENDBRANCH   2   3
ENDBRANCH   1   2
BRANCH   1  13
ATOM     13  N   TRP A   1     -43.740  55.906 -53.436  1.00  0.00    -0.336 N 
HETATM   14  C   UNK A   0     -42.933  56.303 -54.483  1.00  0.00     0.321 C 
HETATM   15  N   UNK A   0     -43.639  56.314 -55.666  1.00  0.00    -0.309 N 
HETATM   16  O   UNK A   0     -41.751  56.581 -54.338  1.00  0.00    -0.247 OA
HETATM   17  H   UNK A   0     -44.506  55.800 -55.653  1.00  0.00     0.170 HD
ATOM     18  H   TRP A   1     -44.714  56.156 -53.541  1.00  0.00     0.164 HD
BRANCH  15  19
HETATM   19  C   UNK A   0     -43.199  56.793 -56.917  1.00  0.00     0.036 A 
HETATM   20  C   UNK A   0     -42.846  58.125 -57.151  1.00  0.00     0.039 A 
HETATM   21  C   UNK A   0     -42.448  58.496 -58.426  1.00  0.00    -0.024 A 
HETATM   22  C   UNK A   0     -42.392  57.579 -59.462  1.00  0.00    -0.026 A 
HETATM   23  C   UNK A   0     -42.009  59.824 -58.920  1.00  0.00     0.207 C 
HETATM   24  C   UNK A   0     -41.909  58.257 -60.690  1.00  0.00     0.207 C 
HETATM   25  C   UNK A   0     -42.736  56.256 -59.260  1.00  0.00     0.012 A 
HETATM   26  O   UNK A   0     -41.906  59.664 -60.356  1.00  0.00    -0.382 OA
HETATM   27  C   UNK A   0     -43.148  55.867 -57.979  1.00  0.00     0.030 A 
ENDBRANCH  15  19
ENDBRANCH   1  13
BRANCH   1  28
ATOM     28  C   TRP A   1     -43.928  57.055 -51.215  1.00  0.00     0.189 C 
BRANCH  28  29
ATOM     29  O   TRP A   1     -45.130  56.578 -50.609  1.00  0.00    -0.399 OA
ATOM     30  H   TRP A   1     -45.496  55.908 -51.213  1.00  0.00     0.209 HD
ENDBRANCH  28  29
ENDBRANCH   1  28
TORSDOF 6
ENDMDL
MODEL 6
REMARK VINA RESULT:      -8.0      2.597      7.814
REMARK  6 active torsions:
REMARK  status: ('A' for Active; 'I' for Inactive)
REMARK    1  A    between atoms: CG_8  and  CB_9 
REMARK    2  A    between atoms: CB_9  and  CA_10 
REMARK    3  A    between atoms: CA_10  and  N_11 
REMARK    4  A    between atoms: CA_10  and  C_12 
REMARK       I    between atoms: N_11  and  C_18 
REMARK    5  A    between atoms: C_12  and  O_13 
REMARK       I    between atoms: C_18  and  N_19 
REMARK    6  A    between atoms: N_19  and  C_20 
ROOT
ATOM      1  CA  TRP A   1     -42.599  56.415 -51.551  1.00  0.00     0.114 C 
ENDROOT
BRANCH   1   2
ATOM      2  CB  TRP A   1     -43.033  54.940 -51.399  1.00  0.00     0.068 C 
BRANCH   2   3
ATOM      3  CG  TRP A   1     -41.871  54.009 -51.191  1.00  0.00    -0.028 A 
ATOM      4  CD2 TRP A   1     -41.209  53.233 -52.197  1.00  0.00    -0.002 A 
ATOM      5  CE3 TRP A   1     -41.388  53.073 -53.586  1.00  0.00     0.014 A 
ATOM      6  CE2 TRP A   1     -40.178  52.531 -51.573  1.00  0.00     0.042 A 
ATOM      7  CZ3 TRP A   1     -40.531  52.227 -54.299  1.00  0.00     0.001 A 
ATOM      8  CH2 TRP A   1     -39.508  51.541 -53.648  1.00  0.00     0.002 A 
ATOM      9  CZ2 TRP A   1     -39.313  51.677 -52.270  1.00  0.00     0.030 A 
ATOM     10  NE1 TRP A   1     -40.210  52.864 -50.240  1.00  0.00    -0.365 N 
ATOM     11  HE1 TRP A   1     -39.564  52.512 -49.547  1.00  0.00     0.165 HD
ATOM     12  CD1 TRP A   1     -41.222  53.753 -49.997  1.00  0.00     0.096 A 
ENDBRANCH   2   3
ENDBRANCH   1   2
BRANCH   1  13
ATOM     13  N   TRP A   1     -42.035  56.704 -52.877  1.00  0.00    -0.336 N 
HETATM   14  C   UNK A   0     -42.838  56.844 -53.991  1.00  0.00     0.321 C 
HETATM   15  N   UNK A   0     -42.074  56.975 -55.130  1.00  0.00    -0.309 N 
HETATM   16  O   UNK A   0     -44.060  56.861 -53.928  1.00  0.00    -0.247 OA
HETATM   17  H   UNK A   0     -41.107  57.216 -54.972  1.00  0.00     0.170 HD
ATOM     18  H   TRP A   1     -41.153  56.244 -53.053  1.00  0.00     0.164 HD
BRANCH  15  19
HETATM   19  C   UNK A   0     -42.528  56.999 -56.464  1.00  0.00     0.036 A 
HETATM   20  C   UNK A   0     -42.975  55.862 -57.145  1.00  0.00     0.039 A 
HETATM   21  C   UNK A   0     -43.380  55.992 -58.465  1.00  0.00    -0.024 A 
HETATM   22  C   UNK A   0     -43.352  57.214 -59.113  1.00  0.00    -0.026 A 
HETATM   23  C   UNK A   0     -43.907  54.957 -59.388  1.00  0.00     0.207 C 
HETATM   24  C   UNK A   0     -43.864  57.047 -60.496  1.00  0.00     0.207 C 
HETATM   25  C   UNK A   0     -42.915  58.354 -58.465  1.00  0.00     0.012 A 
HETATM   26  O   UNK A   0     -43.975  55.616 -60.676  1.00  0.00    -0.382 OA
HETATM   27  C   UNK A   0     -42.495  58.238 -57.134  1.00  0.00     0.030 A 
ENDBRANCH  15  19
ENDBRANCH   1  13
BRANCH   1  28
ATOM     28  C   TRP A   1     -43.749  57.367 -51.171  1.00  0.00     0.189 C 
BRANCH  28  29
ATOM     29  O   TRP A   1     -44.945  56.624 -50.931  1.00  0.00    -0.399 OA
ATOM     30  H   TRP A   1     -45.532  56.794 -51.688  1.00  0.00     0.209 HD
ENDBRANCH  28  29
ENDBRANCH   1  28
TORSDOF 6
ENDMDL
MODEL 7
REMARK VINA RESULT:      -7.9      2.991      4.218
REMARK  6 active torsions:
REMARK  status: ('A' for Active; 'I' for Inactive)
REMARK    1  A    between atoms: CG_8  and  CB_9 
REMARK    2  A    between atoms: CB_9  and  CA_10 
REMARK    3  A    between atoms: CA_10  and  N_11 
REMARK    4  A    between atoms: CA_10  and  C_12 
REMARK       I    between atoms: N_11  and  C_18 
REMARK    5  A    between atoms: C_12  and  O_13 
REMARK       I    between atoms: C_18  and  N_19 
REMARK    6  A    between atoms: N_19  and  C_20 
ROOT
ATOM      1  CA  TRP A   1     -42.826  56.715 -58.216  1.00  0.00     0.114 C 
ENDROOT
BRANCH   1   2
ATOM      2  CB  TRP A   1     -43.704  57.961 -57.965  1.00  0.00     0.068 C 
BRANCH   2   3
ATOM      3  CG  TRP A   1     -42.897  59.188 -57.643  1.00  0.00    -0.028 A 
ATOM      4  CD2 TRP A   1     -42.272  60.068 -58.585  1.00  0.00    -0.002 A 
ATOM      5  CE3 TRP A   1     -42.189  60.099 -59.992  1.00  0.00     0.014 A 
ATOM      6  CE2 TRP A   1     -41.648  61.083 -57.859  1.00  0.00     0.042 A 
ATOM      7  CZ3 TRP A   1     -41.496  61.141 -60.619  1.00  0.00     0.001 A 
ATOM      8  CH2 TRP A   1     -40.885  62.141 -59.867  1.00  0.00     0.002 A 
ATOM      9  CZ2 TRP A   1     -40.946  62.130 -58.470  1.00  0.00     0.030 A 
ATOM     10  NE1 TRP A   1     -41.882  60.831 -56.528  1.00  0.00    -0.365 N 
ATOM     11  HE1 TRP A   1     -41.557  61.415 -55.770  1.00  0.00     0.165 HD
ATOM     12  CD1 TRP A   1     -42.633  59.696 -56.385  1.00  0.00     0.096 A 
ENDBRANCH   2   3
ENDBRANCH   1   2
BRANCH   1  13
ATOM     13  N   TRP A   1     -43.082  55.639 -57.247  1.00  0.00    -0.336 N 
HETATM   14  C   UNK A   0     -42.374  55.545 -56.066  1.00  0.00     0.321 C 
HETATM   15  N   UNK A   0     -42.698  54.385 -55.395  1.00  0.00    -0.309 N 
HETATM   16  O   UNK A   0     -41.589  56.406 -55.694  1.00  0.00    -0.247 OA
HETATM   17  H   UNK A   0     -43.549  53.938 -55.698  1.00  0.00     0.170 HD
ATOM     18  H   TRP A   1     -43.302  54.751 -57.675  1.00  0.00     0.164 HD
BRANCH  15  19
HETATM   19  C   UNK A   0     -42.087  53.874 -54.232  1.00  0.00     0.036 A 
HETATM   20  C   UNK A   0     -41.047  52.940 -54.257  1.00  0.00     0.039 A 
HETATM   21  C   UNK A   0     -40.531  52.484 -53.053  1.00  0.00    -0.024 A 
HETATM   22  C   UNK A   0     -41.021  52.935 -51.840  1.00  0.00    -0.026 A 
HETATM   23  C   UNK A   0     -39.427  51.522 -52.813  1.00  0.00     0.207 C 
HETATM   24  C   UNK A   0     -40.261  52.295 -50.737  1.00  0.00     0.207 C 
HETATM   25  C   UNK A   0     -42.048  53.857 -51.785  1.00  0.00     0.012 A 
HETATM   26  O   UNK A   0     -39.458  51.281 -51.385  1.00  0.00    -0.382 OA
HETATM   27  C   UNK A   0     -42.585  54.321 -52.992  1.00  0.00     0.030 A 
ENDBRANCH  15  19
ENDBRANCH   1  13
BRANCH   1  28
ATOM     28  C   TRP A   1     -42.949  56.242 -59.677  1.00  0.00     0.189 C 
BRANCH  28  29
ATOM     29  O   TRP A   1     -41.688  56.353 -60.338  1.00  0.00    -0.399 OA
ATOM     30  H   TRP A   1     -41.745  55.799 -61.136  1.00  0.00     0.209 HD
ENDBRANCH  28  29
ENDBRANCH   1  28
TORSDOF 6
ENDMDL
MODEL 8
REMARK VINA RESULT:      -7.8      3.955      9.066
REMARK  6 active torsions:
REMARK  status: ('A' for Active; 'I' for Inactive)
REMARK    1  A    between atoms: CG_8  and  CB_9 
REMARK    2  A    between atoms: CB_9  and  CA_10 
REMARK    3  A    between atoms: CA_10  and  N_11 
REMARK    4  A    between atoms: CA_10  and  C_12 
REMARK       I    between atoms: N_11  and  C_18 
REMARK    5  A    between atoms: C_12  and  O_13 
REMARK       I    between atoms: C_18  and  N_19 
REMARK    6  A    between atoms: N_19  and  C_20 
ROOT
ATOM      1  CA  TRP A   1     -42.390  55.137 -53.629  1.00  0.00     0.114 C 
ENDROOT
BRANCH   1   2
ATOM      2  CB  TRP A   1     -40.909  54.724 -53.777  1.00  0.00     0.068 C 
BRANCH   2   3
ATOM      3  CG  TRP A   1     -40.503  53.651 -52.806  1.00  0.00    -0.028 A 
ATOM      4  CD2 TRP A   1     -40.239  52.278 -53.115  1.00  0.00    -0.002 A 
ATOM      5  CE3 TRP A   1     -40.266  51.517 -54.302  1.00  0.00     0.014 A 
ATOM      6  CE2 TRP A   1     -39.875  51.643 -51.927  1.00  0.00     0.042 A 
ATOM      7  CZ3 TRP A   1     -39.924  50.161 -54.260  1.00  0.00     0.001 A 
ATOM      8  CH2 TRP A   1     -39.563  49.557 -53.058  1.00  0.00     0.002 A 
ATOM      9  CZ2 TRP A   1     -39.534  50.286 -51.866  1.00  0.00     0.030 A 
ATOM     10  NE1 TRP A   1     -39.917  52.592 -50.933  1.00  0.00    -0.365 N 
ATOM     11  HE1 TRP A   1     -39.686  52.417 -49.965  1.00  0.00     0.165 HD
ATOM     12  CD1 TRP A   1     -40.291  53.803 -51.449  1.00  0.00     0.096 A 
ENDBRANCH   2   3
ENDBRANCH   1   2
BRANCH   1  13
ATOM     13  N   TRP A   1     -42.575  56.596 -53.650  1.00  0.00    -0.336 N 
HETATM   14  C   UNK A   0     -42.695  57.328 -52.487  1.00  0.00     0.321 C 
HETATM   15  N   UNK A   0     -42.994  58.644 -52.767  1.00  0.00    -0.309 N 
HETATM   16  O   UNK A   0     -42.533  56.839 -51.377  1.00  0.00    -0.247 OA
HETATM   17  H   UNK A   0     -42.819  58.930 -53.718  1.00  0.00     0.170 HD
ATOM     18  H   TRP A   1     -43.156  56.920 -54.411  1.00  0.00     0.164 HD
BRANCH  15  19
HETATM   19  C   UNK A   0     -43.327  59.658 -51.847  1.00  0.00     0.036 A 
HETATM   20  C   UNK A   0     -44.643  60.042 -51.568  1.00  0.00     0.039 A 
HETATM   21  C   UNK A   0     -44.859  61.069 -50.660  1.00  0.00    -0.024 A 
HETATM   22  C   UNK A   0     -43.807  61.711 -50.030  1.00  0.00    -0.026 A 
HETATM   23  C   UNK A   0     -46.142  61.641 -50.185  1.00  0.00     0.207 C 
HETATM   24  C   UNK A   0     -44.346  62.737 -49.103  1.00  0.00     0.207 C 
HETATM   25  C   UNK A   0     -42.498  61.351 -50.287  1.00  0.00     0.012 A 
HETATM   26  O   UNK A   0     -45.759  62.800 -49.406  1.00  0.00    -0.382 OA
HETATM   27  C   UNK A   0     -42.262  60.322 -51.207  1.00  0.00     0.030 A 
ENDBRANCH  15  19
ENDBRANCH   1  13
BRANCH   1  28
ATOM     28  C   TRP A   1     -43.270  54.410 -54.664  1.00  0.00     0.189 C 
BRANCH  28  29
ATOM     29  O   TRP A   1     -44.640  54.771 -54.487  1.00  0.00    -0.399 OA
ATOM     30  H   TRP A   1     -44.685  55.738 -54.584  1.00  0.00     0.209 HD
ENDBRANCH  28  29
ENDBRANCH   1  28
TORSDOF 6
ENDMDL
MODEL 9
REMARK VINA RESULT:      -7.6      2.537      5.303
REMARK  6 active torsions:
REMARK  status: ('A' for Active; 'I' for Inactive)
REMARK    1  A    between atoms: CG_8  and  CB_9 
REMARK    2  A    between atoms: CB_9  and  CA_10 
REMARK    3  A    between atoms: CA_10  and  N_11 
REMARK    4  A    between atoms: CA_10  and  C_12 
REMARK       I    between atoms: N_11  and  C_18 
REMARK    5  A    between atoms: C_12  and  O_13 
REMARK       I    between atoms: C_18  and  N_19 
REMARK    6  A    between atoms: N_19  and  C_20 
ROOT
ATOM      1  CA  TRP A   1     -43.182  57.465 -55.075  1.00  0.00     0.114 C 
ENDROOT
BRANCH   1   2
ATOM      2  CB  TRP A   1     -44.059  57.436 -53.803  1.00  0.00     0.068 C 
BRANCH   2   3
ATOM      3  CG  TRP A   1     -43.780  58.586 -52.875  1.00  0.00    -0.028 A 
ATOM      4  CD2 TRP A   1     -42.694  58.688 -51.948  1.00  0.00    -0.002 A 
ATOM      5  CE3 TRP A   1     -41.618  57.845 -51.601  1.00  0.00     0.014 A 
ATOM      6  CE2 TRP A   1     -42.804  59.923 -51.308  1.00  0.00     0.042 A 
ATOM      7  CZ3 TRP A   1     -40.694  58.266 -50.639  1.00  0.00     0.001 A 
ATOM      8  CH2 TRP A   1     -40.829  59.506 -50.020  1.00  0.00     0.002 A 
ATOM      9  CZ2 TRP A   1     -41.890  60.358 -50.340  1.00  0.00     0.030 A 
ATOM     10  NE1 TRP A   1     -43.914  60.548 -51.824  1.00  0.00    -0.365 N 
ATOM     11  HE1 TRP A   1     -44.229  61.468 -51.553  1.00  0.00     0.165 HD
ATOM     12  CD1 TRP A   1     -44.509  59.756 -52.769  1.00  0.00     0.096 A 
ENDBRANCH   2   3
ENDBRANCH   1   2
BRANCH   1  13
ATOM     13  N   TRP A   1     -41.991  56.613 -54.959  1.00  0.00    -0.336 N 
HETATM   14  C   UNK A   0     -42.057  55.346 -54.415  1.00  0.00     0.321 C 
HETATM   15  N   UNK A   0     -40.796  54.802 -54.292  1.00  0.00    -0.309 N 
HETATM   16  O   UNK A   0     -43.113  54.808 -54.115  1.00  0.00    -0.247 OA
HETATM   17  H   UNK A   0     -40.078  55.257 -54.834  1.00  0.00     0.170 HD
ATOM     18  H   TRP A   1     -41.148  57.121 -54.733  1.00  0.00     0.164 HD
BRANCH  15  19
HETATM   19  C   UNK A   0     -40.447  53.593 -53.656  1.00  0.00     0.036 A 
HETATM   20  C   UNK A   0     -40.200  52.404 -54.348  1.00  0.00     0.039 A 
HETATM   21  C   UNK A   0     -39.886  51.263 -53.624  1.00  0.00    -0.024 A 
HETATM   22  C   UNK A   0     -39.811  51.282 -52.242  1.00  0.00    -0.026 A 
HETATM   23  C   UNK A   0     -39.565  49.901 -54.116  1.00  0.00     0.207 C 
HETATM   24  C   UNK A   0     -39.432  49.933 -51.754  1.00  0.00     0.207 C 
HETATM   25  C   UNK A   0     -40.050  52.444 -51.533  1.00  0.00     0.012 A 
HETATM   26  O   UNK A   0     -39.515  49.084 -52.922  1.00  0.00    -0.382 OA
HETATM   27  C   UNK A   0     -40.377  53.602 -52.249  1.00  0.00     0.030 A 
ENDBRANCH  15  19
ENDBRANCH   1  13
BRANCH   1  28
ATOM     28  C   TRP A   1     -44.022  57.151 -56.328  1.00  0.00     0.189 C 
BRANCH  28  29
ATOM     29  O   TRP A   1     -45.369  57.585 -56.141  1.00  0.00    -0.399 OA
ATOM     30  H   TRP A   1     -45.360  58.555 -56.226  1.00  0.00     0.209 HD
ENDBRANCH  28  29
ENDBRANCH   1  28
TORSDOF 6
ENDMDL
MODEL 10
REMARK VINA RESULT:      -7.4      3.121      4.327
REMARK  6 active torsions:
REMARK  status: ('A' for Active; 'I' for Inactive)
REMARK    1  A    between atoms: CG_8  and  CB_9 
REMARK    2  A    between atoms: CB_9  and  CA_10 
REMARK    3  A    between atoms: CA_10  and  N_11 
REMARK    4  A    between atoms: CA_10  and  C_12 
REMARK       I    between atoms: N_11  and  C_18 
REMARK    5  A    between atoms: C_12  and  O_13 
REMARK       I    between atoms: C_18  and  N_19 
REMARK    6  A    between atoms: N_19  and  C_20 
ROOT
ATOM      1  CA  TRP A   1     -43.071  56.542 -58.397  1.00  0.00     0.114 C 
ENDROOT
BRANCH   1   2
ATOM      2  CB  TRP A   1     -44.191  57.603 -58.458  1.00  0.00     0.068 C 
BRANCH   2   3
ATOM      3  CG  TRP A   1     -43.678  59.005 -58.274  1.00  0.00    -0.028 A 
ATOM      4  CD2 TRP A   1     -42.966  59.785 -59.242  1.00  0.00    -0.002 A 
ATOM      5  CE3 TRP A   1     -42.532  59.551 -60.562  1.00  0.00     0.014 A 
ATOM      6  CE2 TRP A   1     -42.700  61.027 -58.664  1.00  0.00     0.042 A 
ATOM      7  CZ3 TRP A   1     -41.858  60.562 -61.256  1.00  0.00     0.001 A 
ATOM      8  CH2 TRP A   1     -41.610  61.793 -60.653  1.00  0.00     0.002 A 
ATOM      9  CZ2 TRP A   1     -42.024  62.049 -59.342  1.00  0.00     0.030 A 
ATOM     10  NE1 TRP A   1     -43.228  61.004 -57.395  1.00  0.00    -0.365 N 
ATOM     11  HE1 TRP A   1     -43.196  61.780 -56.748  1.00  0.00     0.165 HD
ATOM     12  CD1 TRP A   1     -43.820  59.795 -57.149  1.00  0.00     0.096 A 
ENDBRANCH   2   3
ENDBRANCH   1   2
BRANCH   1  13
ATOM     13  N   TRP A   1     -43.299  55.541 -57.345  1.00  0.00    -0.336 N 
HETATM   14  C   UNK A   0     -42.575  55.548 -56.169  1.00  0.00     0.321 C 
HETATM   15  N   UNK A   0     -42.873  54.439 -55.407  1.00  0.00    -0.309 N 
HETATM   16  O   UNK A   0     -41.799  56.446 -55.875  1.00  0.00    -0.247 OA
HETATM   17  H   UNK A   0     -43.721  53.958 -55.663  1.00  0.00     0.170 HD
ATOM     18  H   TRP A   1     -43.510  54.619 -57.700  1.00  0.00     0.164 HD
BRANCH  15  19
HETATM   19  C   UNK A   0     -42.240  54.027 -54.217  1.00  0.00     0.036 A 
HETATM   20  C   UNK A   0     -42.651  54.438 -52.945  1.00  0.00     0.039 A 
HETATM   21  C   UNK A   0     -41.943  53.992 -51.839  1.00  0.00    -0.024 A 
HETATM   22  C   UNK A   0     -40.850  53.153 -51.970  1.00  0.00    -0.026 A 
HETATM   23  C   UNK A   0     -42.186  54.263 -50.401  1.00  0.00     0.207 C 
HETATM   24  C   UNK A   0     -40.319  52.826 -50.623  1.00  0.00     0.207 C 
HETATM   25  C   UNK A   0     -40.422  52.732 -53.214  1.00  0.00     0.012 A 
HETATM   26  O   UNK A   0     -41.033  53.706 -49.724  1.00  0.00    -0.382 OA
HETATM   27  C   UNK A   0     -41.121  53.180 -54.342  1.00  0.00     0.030 A 
ENDBRANCH  15  19
ENDBRANCH   1  13
BRANCH   1  28
ATOM     28  C   TRP A   1     -42.839  55.908 -59.782  1.00  0.00     0.189 C 
BRANCH  28  29
ATOM     29  O   TRP A   1     -41.552  56.275 -60.281  1.00  0.00    -0.399 OA
ATOM     30  H   TRP A   1     -41.144  56.840 -59.602  1.00  0.00     0.209 HD
ENDBRANCH  28  29
ENDBRANCH   1  28
TORSDOF 6
ENDMDL
