MODEL 1
REMARK VINA RESULT:      -8.8      0.000      0.000
REMARK  3 active torsions:
REMARK  status: ('A' for Active; 'I' for Inactive)
REMARK    1  A    between atoms: C_3  and  N_4 
REMARK       I    between atoms: N_4  and  C_5 
REMARK    2  A    between atoms: C_5  and  C_6 
REMARK    3  A    between atoms: N_20  and  C_21 
ROOT
HETATM    1  N   UNL     1     -41.635  57.339 -51.799  1.00  0.00    -0.305 N 
HETATM    2  C   UNL     1     -41.407  56.205 -51.046  1.00  0.00     0.257 C 
HETATM    3  O   UNL     1     -41.504  56.069 -49.832  1.00  0.00    -0.267 OA
HETATM    4  H   UNL     1     -41.641  57.268 -52.802  1.00  0.00     0.170 HD
ENDROOT
BRANCH   2   5
HETATM    5  C   UNL     1     -41.044  54.998 -51.844  1.00  0.00     0.034 A 
HETATM    6  C   UNL     1     -40.627  53.850 -51.157  1.00  0.00     0.049 A 
HETATM    7  C   UNL     1     -40.292  52.702 -51.873  1.00  0.00     0.063 A 
HETATM    8  C   UNL     1     -40.360  52.697 -53.270  1.00  0.00     0.062 A 
HETATM    9  N   UNL     1     -39.887  51.553 -51.190  1.00  0.00    -0.317 N 
HETATM   10  N   UNL     1     -40.029  51.541 -53.978  1.00  0.00    -0.317 N 
HETATM   11  C   UNL     1     -40.750  53.844 -53.960  1.00  0.00     0.033 A 
HETATM   12  C   UNL     1     -39.630  50.370 -53.371  1.00  0.00     0.314 A 
HETATM   13  H   UNL     1     -40.072  51.516 -54.989  1.00  0.00     0.169 HD
HETATM   14  O   UNL     1     -39.357  49.371 -54.024  1.00  0.00    -0.262 OA
HETATM   15  C   UNL     1     -39.545  50.378 -51.825  1.00  0.00     0.314 A 
HETATM   16  O   UNL     1     -39.195  49.386 -51.199  1.00  0.00    -0.262 OA
HETATM   17  C   UNL     1     -41.088  54.998 -53.247  1.00  0.00     0.019 A 
HETATM   18  H   UNL     1     -39.822  51.544 -50.181  1.00  0.00     0.169 HD
ENDBRANCH   2   5
BRANCH   1  19
HETATM   19  C   UNL     1     -41.938  58.588 -51.290  1.00  0.00     0.158 A 
HETATM   20  C   UNL     1     -40.973  59.513 -50.818  1.00  0.00     0.003 A 
HETATM   21  C   UNL     1     -39.496  59.402 -50.779  1.00  0.00     0.054 C 
HETATM   22  C   UNL     1     -41.716  60.606 -50.420  1.00  0.00     0.129 A 
HETATM   23  N   UNL     1     -43.045  60.302 -50.607  1.00  0.00    -0.241 N 
HETATM   24  N   UNL     1     -43.167  59.081 -51.181  1.00  0.00    -0.149 NA
BRANCH  23  25
HETATM   25  C   UNL     1     -44.211  61.084 -50.353  1.00  0.00     0.079 A 
HETATM   26  C   UNL     1     -45.049  61.624 -51.342  1.00  0.00     0.062 A 
HETATM   27 CL   UNL     1     -44.730  61.618 -53.043  1.00  0.00    -0.082 Cl
HETATM   28  C   UNL     1     -46.204  62.332 -50.967  1.00  0.00     0.026 A 
HETATM   29  C   UNL     1     -46.528  62.524 -49.625  1.00  0.00     0.002 A 
HETATM   30  C   UNL     1     -45.689  62.025 -48.640  1.00  0.00     0.002 A 
HETATM   31  C   UNL     1     -44.538  61.318 -48.998  1.00  0.00     0.033 A 
ENDBRANCH  23  25
ENDBRANCH   1  19
TORSDOF 3
ENDMDL
MODEL 2
REMARK VINA RESULT:      -8.8      4.856      6.278
REMARK  3 active torsions:
REMARK  status: ('A' for Active; 'I' for Inactive)
REMARK    1  A    between atoms: C_3  and  N_4 
REMARK       I    between atoms: N_4  and  C_5 
REMARK    2  A    between atoms: C_5  and  C_6 
REMARK    3  A    between atoms: N_20  and  C_21 
ROOT
HETATM    1  N   UNL     1     -42.339  56.013 -54.862  1.00  0.00    -0.305 N 
HETATM    2  C   UNL     1     -41.382  56.235 -53.893  1.00  0.00     0.257 C 
HETATM    3  O   UNL     1     -40.852  57.294 -53.580  1.00  0.00    -0.267 OA
HETATM    4  H   UNL     1     -42.778  55.110 -54.920  1.00  0.00     0.170 HD
ENDROOT
BRANCH   2   5
HETATM    5  C   UNL     1     -41.002  55.022 -53.113  1.00  0.00     0.034 A 
HETATM    6  C   UNL     1     -40.711  53.846 -53.817  1.00  0.00     0.049 A 
HETATM    7  C   UNL     1     -40.343  52.697 -53.118  1.00  0.00     0.063 A 
HETATM    8  C   UNL     1     -40.273  52.713 -51.721  1.00  0.00     0.062 A 
HETATM    9  N   UNL     1     -40.040  51.527 -53.818  1.00  0.00    -0.317 N 
HETATM   10  N   UNL     1     -39.896  51.561 -51.030  1.00  0.00    -0.317 N 
HETATM   11  C   UNL     1     -40.586  53.873 -51.014  1.00  0.00     0.033 A 
HETATM   12  C   UNL     1     -39.577  50.375 -51.655  1.00  0.00     0.314 A 
HETATM   13  H   UNL     1     -39.839  51.551 -50.020  1.00  0.00     0.169 HD
HETATM   14  O   UNL     1     -39.240  49.386 -51.017  1.00  0.00    -0.262 OA
HETATM   15  C   UNL     1     -39.662  50.354 -53.201  1.00  0.00     0.314 A 
HETATM   16  O   UNL     1     -39.402  49.344 -53.842  1.00  0.00    -0.262 OA
HETATM   17  C   UNL     1     -40.956  55.028 -51.709  1.00  0.00     0.019 A 
HETATM   18  H   UNL     1     -40.096  51.496 -54.827  1.00  0.00     0.169 HD
ENDBRANCH   2   5
BRANCH   1  19
HETATM   19  C   UNL     1     -42.819  56.965 -55.742  1.00  0.00     0.158 A 
HETATM   20  C   UNL     1     -44.086  57.592 -55.627  1.00  0.00     0.003 A 
HETATM   21  C   UNL     1     -45.134  57.425 -54.593  1.00  0.00     0.054 C 
HETATM   22  C   UNL     1     -44.134  58.460 -56.699  1.00  0.00     0.129 A 
HETATM   23  N   UNL     1     -42.973  58.301 -57.421  1.00  0.00    -0.241 N 
HETATM   24  N   UNL     1     -42.157  57.415 -56.802  1.00  0.00    -0.149 NA
BRANCH  23  25
HETATM   25  C   UNL     1     -42.535  58.956 -58.611  1.00  0.00     0.079 A 
HETATM   26  C   UNL     1     -42.324  58.321 -59.846  1.00  0.00     0.062 A 
HETATM   27 CL   UNL     1     -42.361  56.613 -60.119  1.00  0.00    -0.082 Cl
HETATM   28  C   UNL     1     -41.944  59.083 -60.965  1.00  0.00     0.026 A 
HETATM   29  C   UNL     1     -41.756  60.461 -60.869  1.00  0.00     0.002 A 
HETATM   30  C   UNL     1     -41.927  61.092 -59.646  1.00  0.00     0.002 A 
HETATM   31  C   UNL     1     -42.305  60.347 -58.526  1.00  0.00     0.033 A 
ENDBRANCH  23  25
ENDBRANCH   1  19
TORSDOF 3
ENDMDL
MODEL 3
REMARK VINA RESULT:      -8.7      1.422      2.264
REMARK  3 active torsions:
REMARK  status: ('A' for Active; 'I' for Inactive)
REMARK    1  A    between atoms: C_3  and  N_4 
REMARK       I    between atoms: N_4  and  C_5 
REMARK    2  A    between atoms: C_5  and  C_6 
REMARK    3  A    between atoms: N_20  and  C_21 
ROOT
HETATM    1  N   UNL     1     -41.537  56.864 -51.211  1.00  0.00    -0.305 N 
HETATM    2  C   UNL     1     -41.359  56.128 -52.365  1.00  0.00     0.257 C 
HETATM    3  O   UNL     1     -41.486  56.496 -53.526  1.00  0.00    -0.267 OA
HETATM    4  H   UNL     1     -41.272  56.463 -50.328  1.00  0.00     0.170 HD
ENDROOT
BRANCH   2   5
HETATM    5  C   UNL     1     -40.909  54.724 -52.136  1.00  0.00     0.034 A 
HETATM    6  C   UNL     1     -40.870  53.853 -53.233  1.00  0.00     0.049 A 
HETATM    7  C   UNL     1     -40.444  52.538 -53.055  1.00  0.00     0.063 A 
HETATM    8  C   UNL     1     -40.068  52.084 -51.787  1.00  0.00     0.062 A 
HETATM    9  N   UNL     1     -40.393  51.672 -54.150  1.00  0.00    -0.317 N 
HETATM   10  N   UNL     1     -39.635  50.768 -51.619  1.00  0.00    -0.317 N 
HETATM   11  C   UNL     1     -40.129  52.938 -50.687  1.00  0.00     0.033 A 
HETATM   12  C   UNL     1     -39.552  49.861 -52.654  1.00  0.00     0.314 A 
HETATM   13  H   UNL     1     -39.359  50.420 -50.711  1.00  0.00     0.169 HD
HETATM   14  O   UNL     1     -39.159  48.717 -52.472  1.00  0.00    -0.262 OA
HETATM   15  C   UNL     1     -39.978  50.360 -54.057  1.00  0.00     0.314 A 
HETATM   16  O   UNL     1     -39.942  49.625 -55.034  1.00  0.00    -0.262 OA
HETATM   17  C   UNL     1     -40.555  54.259 -50.860  1.00  0.00     0.019 A 
HETATM   18  H   UNL     1     -40.672  51.982 -55.071  1.00  0.00     0.169 HD
ENDBRANCH   2   5
BRANCH   1  19
HETATM   19  C   UNL     1     -41.992  58.168 -51.160  1.00  0.00     0.158 A 
HETATM   20  C   UNL     1     -41.163  59.295 -50.924  1.00  0.00     0.003 A 
HETATM   21  C   UNL     1     -39.698  59.364 -50.718  1.00  0.00     0.054 C 
HETATM   22  C   UNL     1     -42.029  60.369 -50.968  1.00  0.00     0.129 A 
HETATM   23  N   UNL     1     -43.299  59.877 -51.167  1.00  0.00    -0.241 N 
HETATM   24  N   UNL     1     -43.259  58.533 -51.327  1.00  0.00    -0.149 NA
BRANCH  23  25
HETATM   25  C   UNL     1     -44.543  60.566 -51.284  1.00  0.00     0.079 A 
HETATM   26  C   UNL     1     -45.125  61.351 -50.275  1.00  0.00     0.062 A 
HETATM   27 CL   UNL     1     -44.558  61.475 -48.645  1.00  0.00    -0.082 Cl
HETATM   28  C   UNL     1     -46.330  62.029 -50.527  1.00  0.00     0.026 A 
HETATM   29  C   UNL     1     -46.972  61.925 -51.760  1.00  0.00     0.002 A 
HETATM   30  C   UNL     1     -46.424  61.125 -52.752  1.00  0.00     0.002 A 
HETATM   31  C   UNL     1     -45.226  60.446 -52.515  1.00  0.00     0.033 A 
ENDBRANCH  23  25
ENDBRANCH   1  19
TORSDOF 3
ENDMDL
MODEL 4
REMARK VINA RESULT:      -8.7      6.511     10.243
REMARK  3 active torsions:
REMARK  status: ('A' for Active; 'I' for Inactive)
REMARK    1  A    between atoms: C_3  and  N_4 
REMARK       I    between atoms: N_4  and  C_5 
REMARK    2  A    between atoms: C_5  and  C_6 
REMARK    3  A    between atoms: N_20  and  C_21 
ROOT
HETATM    1  N   UNL     1     -42.096  56.581 -56.259  1.00  0.00    -0.305 N 
HETATM    2  C   UNL     1     -42.676  56.463 -57.507  1.00  0.00     0.257 C 
HETATM    3  O   UNL     1     -43.395  55.565 -57.926  1.00  0.00    -0.267 OA
HETATM    4  H   UNL     1     -41.634  57.440 -56.013  1.00  0.00     0.170 HD
ENDROOT
BRANCH   2   5
HETATM    5  C   UNL     1     -42.414  57.614 -58.419  1.00  0.00     0.034 A 
HETATM    6  C   UNL     1     -42.004  58.829 -57.853  1.00  0.00     0.049 A 
HETATM    7  C   UNL     1     -41.740  59.920 -58.678  1.00  0.00     0.063 A 
HETATM    8  C   UNL     1     -41.893  59.810 -60.064  1.00  0.00     0.062 A 
HETATM    9  N   UNL     1     -41.321  61.129 -58.117  1.00  0.00    -0.317 N 
HETATM   10  N   UNL     1     -41.620  60.906 -60.884  1.00  0.00    -0.317 N 
HETATM   11  C   UNL     1     -42.324  58.612 -60.631  1.00  0.00     0.033 A 
HETATM   12  C   UNL     1     -41.195  62.124 -60.401  1.00  0.00     0.314 A 
HETATM   13  H   UNL     1     -41.724  60.846 -61.889  1.00  0.00     0.169 HD
HETATM   14  O   UNL     1     -40.955  63.061 -61.151  1.00  0.00    -0.262 OA
HETATM   15  C   UNL     1     -41.034  62.250 -58.866  1.00  0.00     0.314 A 
HETATM   16  O   UNL     1     -40.667  63.296 -58.346  1.00  0.00    -0.262 OA
HETATM   17  C   UNL     1     -42.591  57.513 -59.808  1.00  0.00     0.019 A 
HETATM   18  H   UNL     1     -41.216  61.228 -57.117  1.00  0.00     0.169 HD
ENDBRANCH   2   5
BRANCH   1  19
HETATM   19  C   UNL     1     -42.155  55.629 -55.260  1.00  0.00     0.158 A 
HETATM   20  C   UNL     1     -43.173  55.567 -54.274  1.00  0.00     0.003 A 
HETATM   21  C   UNL     1     -44.367  56.427 -54.092  1.00  0.00     0.054 C 
HETATM   22  C   UNL     1     -42.837  54.472 -53.506  1.00  0.00     0.129 A 
HETATM   23  N   UNL     1     -41.656  53.961 -53.996  1.00  0.00    -0.241 N 
HETATM   24  N   UNL     1     -41.271  54.651 -55.096  1.00  0.00    -0.149 NA
BRANCH  23  25
HETATM   25  C   UNL     1     -40.888  52.841 -53.558  1.00  0.00     0.079 A 
HETATM   26  C   UNL     1     -40.300  52.715 -52.289  1.00  0.00     0.062 A 
HETATM   27 CL   UNL     1     -40.221  53.960 -51.090  1.00  0.00    -0.082 Cl
HETATM   28  C   UNL     1     -39.611  51.537 -51.953  1.00  0.00     0.026 A 
HETATM   29  C   UNL     1     -39.486  50.490 -52.865  1.00  0.00     0.002 A 
HETATM   30  C   UNL     1     -40.034  50.617 -54.133  1.00  0.00     0.002 A 
HETATM   31  C   UNL     1     -40.721  51.783 -54.480  1.00  0.00     0.033 A 
ENDBRANCH  23  25
ENDBRANCH   1  19
TORSDOF 3
ENDMDL
MODEL 5
REMARK VINA RESULT:      -8.6      5.875      7.506
REMARK  3 active torsions:
REMARK  status: ('A' for Active; 'I' for Inactive)
REMARK    1  A    between atoms: C_3  and  N_4 
REMARK       I    between atoms: N_4  and  C_5 
REMARK    2  A    between atoms: C_5  and  C_6 
REMARK    3  A    between atoms: N_20  and  C_21 
ROOT
HETATM    1  N   UNL     1     -42.503  55.349 -57.126  1.00  0.00    -0.305 N 
HETATM    2  C   UNL     1     -42.660  55.815 -55.836  1.00  0.00     0.257 C 
HETATM    3  O   UNL     1     -43.308  56.781 -55.453  1.00  0.00    -0.267 OA
HETATM    4  H   UNL     1     -42.045  54.466 -57.275  1.00  0.00     0.170 HD
ENDROOT
BRANCH   2   5
HETATM    5  C   UNL     1     -41.981  54.990 -54.796  1.00  0.00     0.034 A 
HETATM    6  C   UNL     1     -41.615  53.678 -55.125  1.00  0.00     0.049 A 
HETATM    7  C   UNL     1     -40.969  52.883 -54.180  1.00  0.00     0.063 A 
HETATM    8  C   UNL     1     -40.696  53.387 -52.904  1.00  0.00     0.062 A 
HETATM    9  N   UNL     1     -40.593  51.579 -54.510  1.00  0.00    -0.317 N 
HETATM   10  N   UNL     1     -40.042  52.587 -51.965  1.00  0.00    -0.317 N 
HETATM   11  C   UNL     1     -41.080  54.682 -52.561  1.00  0.00     0.033 A 
HETATM   12  C   UNL     1     -39.636  51.296 -52.224  1.00  0.00     0.314 A 
HETATM   13  H   UNL     1     -39.835  52.932 -51.037  1.00  0.00     0.169 HD
HETATM   14  O   UNL     1     -39.055  50.627 -51.379  1.00  0.00    -0.262 OA
HETATM   15  C   UNL     1     -39.946  50.735 -53.633  1.00  0.00     0.314 A 
HETATM   16  O   UNL     1     -39.627  49.597 -53.952  1.00  0.00    -0.262 OA
HETATM   17  C   UNL     1     -41.728  55.484 -53.506  1.00  0.00     0.019 A 
HETATM   18  H   UNL     1     -40.793  51.197 -55.424  1.00  0.00     0.169 HD
ENDBRANCH   2   5
BRANCH   1  19
HETATM   19  C   UNL     1     -42.996  55.964 -58.261  1.00  0.00     0.158 A 
HETATM   20  C   UNL     1     -43.826  55.326 -59.218  1.00  0.00     0.003 A 
HETATM   21  C   UNL     1     -44.366  53.947 -59.232  1.00  0.00     0.054 C 
HETATM   22  C   UNL     1     -44.076  56.306 -60.158  1.00  0.00     0.129 A 
HETATM   23  N   UNL     1     -43.381  57.434 -59.784  1.00  0.00    -0.241 N 
HETATM   24  N   UNL     1     -42.759  57.227 -58.599  1.00  0.00    -0.149 NA
BRANCH  23  25
HETATM   25  C   UNL     1     -43.300  58.713 -60.412  1.00  0.00     0.079 A 
HETATM   26  C   UNL     1     -44.393  59.560 -60.655  1.00  0.00     0.062 A 
HETATM   27 CL   UNL     1     -46.057  59.144 -60.427  1.00  0.00    -0.082 Cl
HETATM   28  C   UNL     1     -44.181  60.824 -61.231  1.00  0.00     0.026 A 
HETATM   29  C   UNL     1     -42.902  61.251 -61.584  1.00  0.00     0.002 A 
HETATM   30  C   UNL     1     -41.819  60.408 -61.380  1.00  0.00     0.002 A 
HETATM   31  C   UNL     1     -42.015  59.149 -60.807  1.00  0.00     0.033 A 
ENDBRANCH  23  25
ENDBRANCH   1  19
TORSDOF 3
ENDMDL
MODEL 6
REMARK VINA RESULT:      -8.4      7.440     10.340
REMARK  3 active torsions:
REMARK  status: ('A' for Active; 'I' for Inactive)
REMARK    1  A    between atoms: C_3  and  N_4 
REMARK       I    between atoms: N_4  and  C_5 
REMARK    2  A    between atoms: C_5  and  C_6 
REMARK    3  A    between atoms: N_20  and  C_21 
ROOT
HETATM    1  N   UNL     1     -43.524  55.529 -56.858  1.00  0.00    -0.305 N 
HETATM    2  C   UNL     1     -43.208  56.187 -58.029  1.00  0.00     0.257 C 
HETATM    3  O   UNL     1     -42.154  56.732 -58.331  1.00  0.00    -0.267 OA
HETATM    4  H   UNL     1     -44.388  55.017 -56.801  1.00  0.00     0.170 HD
ENDROOT
BRANCH   2   5
HETATM    5  C   UNL     1     -44.291  56.173 -59.054  1.00  0.00     0.034 A 
HETATM    6  C   UNL     1     -45.138  57.286 -59.139  1.00  0.00     0.049 A 
HETATM    7  C   UNL     1     -46.154  57.309 -60.093  1.00  0.00     0.063 A 
HETATM    8  C   UNL     1     -46.335  56.224 -60.957  1.00  0.00     0.062 A 
HETATM    9  N   UNL     1     -46.992  58.423 -60.187  1.00  0.00    -0.317 N 
HETATM   10  N   UNL     1     -47.350  56.259 -61.915  1.00  0.00    -0.317 N 
HETATM   11  C   UNL     1     -45.512  55.104 -60.861  1.00  0.00     0.033 A 
HETATM   12  C   UNL     1     -48.208  57.326 -62.070  1.00  0.00     0.314 A 
HETATM   13  H   UNL     1     -47.497  55.485 -62.549  1.00  0.00     0.169 HD
HETATM   14  O   UNL     1     -49.080  57.327 -62.928  1.00  0.00    -0.262 OA
HETATM   15  C   UNL     1     -48.013  58.525 -61.108  1.00  0.00     0.314 A 
HETATM   16  O   UNL     1     -48.731  59.514 -61.167  1.00  0.00    -0.262 OA
HETATM   17  C   UNL     1     -44.492  55.074 -59.906  1.00  0.00     0.019 A 
HETATM   18  H   UNL     1     -46.880  59.211 -59.564  1.00  0.00     0.169 HD
ENDBRANCH   2   5
BRANCH   1  19
HETATM   19  C   UNL     1     -42.708  55.443 -55.746  1.00  0.00     0.158 A 
HETATM   20  C   UNL     1     -42.320  56.553 -54.952  1.00  0.00     0.003 A 
HETATM   21  C   UNL     1     -42.686  57.983 -55.083  1.00  0.00     0.054 C 
HETATM   22  C   UNL     1     -41.528  56.004 -53.964  1.00  0.00     0.129 A 
HETATM   23  N   UNL     1     -41.426  54.653 -54.209  1.00  0.00    -0.241 N 
HETATM   24  N   UNL     1     -42.188  54.314 -55.276  1.00  0.00    -0.149 NA
BRANCH  23  25
HETATM   25  C   UNL     1     -40.725  53.640 -53.489  1.00  0.00     0.079 A 
HETATM   26  C   UNL     1     -40.544  53.622 -52.097  1.00  0.00     0.062 A 
HETATM   27 CL   UNL     1     -40.956  54.905 -51.012  1.00  0.00    -0.082 Cl
HETATM   28  C   UNL     1     -39.881  52.538 -51.494  1.00  0.00     0.026 A 
HETATM   29  C   UNL     1     -39.383  51.483 -52.257  1.00  0.00     0.002 A 
HETATM   30  C   UNL     1     -39.525  51.509 -53.637  1.00  0.00     0.002 A 
HETATM   31  C   UNL     1     -40.183  52.578 -54.248  1.00  0.00     0.033 A 
ENDBRANCH  23  25
ENDBRANCH   1  19
TORSDOF 3
ENDMDL
MODEL 7
REMARK VINA RESULT:      -8.2      7.683     10.332
REMARK  3 active torsions:
REMARK  status: ('A' for Active; 'I' for Inactive)
REMARK    1  A    between atoms: C_3  and  N_4 
REMARK       I    between atoms: N_4  and  C_5 
REMARK    2  A    between atoms: C_5  and  C_6 
REMARK    3  A    between atoms: N_20  and  C_21 
ROOT
HETATM    1  N   UNL     1     -43.816  57.202 -56.568  1.00  0.00    -0.305 N 
HETATM    2  C   UNL     1     -43.753  56.939 -57.921  1.00  0.00     0.257 C 
HETATM    3  O   UNL     1     -42.910  56.290 -58.528  1.00  0.00    -0.267 OA
HETATM    4  H   UNL     1     -44.639  57.643 -56.193  1.00  0.00     0.170 HD
ENDROOT
BRANCH   2   5
HETATM    5  C   UNL     1     -44.894  57.487 -58.709  1.00  0.00     0.034 A 
HETATM    6  C   UNL     1     -45.435  56.695 -59.731  1.00  0.00     0.049 A 
HETATM    7  C   UNL     1     -46.509  57.173 -60.479  1.00  0.00     0.063 A 
HETATM    8  C   UNL     1     -47.040  58.441 -60.221  1.00  0.00     0.062 A 
HETATM    9  N   UNL     1     -47.058  56.381 -61.491  1.00  0.00    -0.317 N 
HETATM   10  N   UNL     1     -48.121  58.910 -60.970  1.00  0.00    -0.317 N 
HETATM   11  C   UNL     1     -46.490  59.244 -59.223  1.00  0.00     0.033 A 
HETATM   12  C   UNL     1     -48.716  58.180 -61.976  1.00  0.00     0.314 A 
HETATM   13  H   UNL     1     -48.519  59.823 -60.799  1.00  0.00     0.169 HD
HETATM   14  O   UNL     1     -49.669  58.619 -62.606  1.00  0.00    -0.262 OA
HETATM   15  C   UNL     1     -48.123  56.780 -62.269  1.00  0.00     0.314 A 
HETATM   16  O   UNL     1     -48.584  56.063 -63.148  1.00  0.00    -0.262 OA
HETATM   17  C   UNL     1     -45.412  58.770 -58.469  1.00  0.00     0.019 A 
HETATM   18  H   UNL     1     -46.679  55.467 -61.697  1.00  0.00     0.169 HD
ENDBRANCH   2   5
BRANCH   1  19
HETATM   19  C   UNL     1     -42.858  56.843 -55.639  1.00  0.00     0.158 A 
HETATM   20  C   UNL     1     -42.061  57.766 -54.914  1.00  0.00     0.003 A 
HETATM   21  C   UNL     1     -42.070  59.247 -54.941  1.00  0.00     0.054 C 
HETATM   22  C   UNL     1     -41.267  56.972 -54.112  1.00  0.00     0.129 A 
HETATM   23  N   UNL     1     -41.558  55.658 -54.400  1.00  0.00    -0.241 N 
HETATM   24  N   UNL     1     -42.564  55.591 -55.304  1.00  0.00    -0.149 NA
BRANCH  23  25
HETATM   25  C   UNL     1     -41.016  54.456 -53.854  1.00  0.00     0.079 A 
HETATM   26  C   UNL     1     -40.896  54.179 -52.482  1.00  0.00     0.062 A 
HETATM   27 CL   UNL     1     -41.192  55.303 -51.200  1.00  0.00    -0.082 Cl
HETATM   28  C   UNL     1     -40.397  52.934 -52.063  1.00  0.00     0.026 A 
HETATM   29  C   UNL     1     -40.001  51.968 -52.987  1.00  0.00     0.002 A 
HETATM   30  C   UNL     1     -40.083  52.244 -54.344  1.00  0.00     0.002 A 
HETATM   31  C   UNL     1     -40.578  53.478 -54.774  1.00  0.00     0.033 A 
ENDBRANCH  23  25
ENDBRANCH   1  19
TORSDOF 3
ENDMDL
MODEL 8
REMARK VINA RESULT:      -8.0     17.096     20.291
REMARK  3 active torsions:
REMARK  status: ('A' for Active; 'I' for Inactive)
REMARK    1  A    between atoms: C_3  and  N_4 
REMARK       I    between atoms: N_4  and  C_5 
REMARK    2  A    between atoms: C_5  and  C_6 
REMARK    3  A    between atoms: N_20  and  C_21 
ROOT
HETATM    1  N   UNL     1     -37.608  39.434 -59.053  1.00  0.00    -0.305 N 
HETATM    2  C   UNL     1     -37.375  40.787 -58.909  1.00  0.00     0.257 C 
HETATM    3  O   UNL     1     -37.648  41.690 -59.689  1.00  0.00    -0.267 OA
HETATM    4  H   UNL     1     -37.445  38.823 -58.271  1.00  0.00     0.170 HD
ENDROOT
BRANCH   2   5
HETATM    5  C   UNL     1     -36.756  41.170 -57.607  1.00  0.00     0.034 A 
HETATM    6  C   UNL     1     -37.418  40.807 -56.426  1.00  0.00     0.049 A 
HETATM    7  C   UNL     1     -36.860  41.141 -55.193  1.00  0.00     0.063 A 
HETATM    8  C   UNL     1     -35.652  41.843 -55.131  1.00  0.00     0.062 A 
HETATM    9  N   UNL     1     -37.512  40.770 -54.014  1.00  0.00    -0.317 N 
HETATM   10  N   UNL     1     -35.097  42.165 -53.892  1.00  0.00    -0.317 N 
HETATM   11  C   UNL     1     -35.002  42.228 -56.302  1.00  0.00     0.033 A 
HETATM   12  C   UNL     1     -35.680  41.826 -52.691  1.00  0.00     0.314 A 
HETATM   13  H   UNL     1     -34.224  42.672 -53.826  1.00  0.00     0.169 HD
HETATM   14  O   UNL     1     -35.159  42.117 -51.622  1.00  0.00    -0.262 OA
HETATM   15  C   UNL     1     -37.023  41.057 -52.758  1.00  0.00     0.314 A 
HETATM   16  O   UNL     1     -37.616  40.718 -51.742  1.00  0.00    -0.262 OA
HETATM   17  C   UNL     1     -35.556  41.896 -57.543  1.00  0.00     0.019 A 
HETATM   18  H   UNL     1     -38.392  40.273 -54.042  1.00  0.00     0.169 HD
ENDBRANCH   2   5
BRANCH   1  19
HETATM   19  C   UNL     1     -38.127  38.830 -60.183  1.00  0.00     0.158 A 
HETATM   20  C   UNL     1     -37.351  38.411 -61.293  1.00  0.00     0.003 A 
HETATM   21  C   UNL     1     -35.886  38.479 -61.502  1.00  0.00     0.054 C 
HETATM   22  C   UNL     1     -38.271  37.864 -62.164  1.00  0.00     0.129 A 
HETATM   23  N   UNL     1     -39.520  38.009 -61.603  1.00  0.00    -0.241 N 
HETATM   24  N   UNL     1     -39.415  38.562 -60.371  1.00  0.00    -0.149 NA
BRANCH  23  25
HETATM   25  C   UNL     1     -40.800  37.617 -62.096  1.00  0.00     0.079 A 
HETATM   26  C   UNL     1     -41.841  37.100 -61.307  1.00  0.00     0.062 A 
HETATM   27 CL   UNL     1     -41.715  36.658 -59.640  1.00  0.00    -0.082 Cl
HETATM   28  C   UNL     1     -43.080  36.801 -61.899  1.00  0.00     0.026 A 
HETATM   29  C   UNL     1     -43.293  36.991 -63.263  1.00  0.00     0.002 A 
HETATM   30  C   UNL     1     -42.260  37.467 -64.058  1.00  0.00     0.002 A 
HETATM   31  C   UNL     1     -41.024  37.770 -63.483  1.00  0.00     0.033 A 
ENDBRANCH  23  25
ENDBRANCH   1  19
TORSDOF 3
ENDMDL
MODEL 9
REMARK VINA RESULT:      -7.9      6.694      9.847
REMARK  3 active torsions:
REMARK  status: ('A' for Active; 'I' for Inactive)
REMARK    1  A    between atoms: C_3  and  N_4 
REMARK       I    between atoms: N_4  and  C_5 
REMARK    2  A    between atoms: C_5  and  C_6 
REMARK    3  A    between atoms: N_20  and  C_21 
ROOT
HETATM    1  N   UNL     1     -42.323  57.723 -55.874  1.00  0.00    -0.305 N 
HETATM    2  C   UNL     1     -42.565  57.446 -57.205  1.00  0.00     0.257 C 
HETATM    3  O   UNL     1     -43.045  56.430 -57.691  1.00  0.00    -0.267 OA
HETATM    4  H   UNL     1     -42.043  58.653 -55.611  1.00  0.00     0.170 HD
ENDROOT
BRANCH   2   5
HETATM    5  C   UNL     1     -42.234  58.562 -58.137  1.00  0.00     0.034 A 
HETATM    6  C   UNL     1     -41.794  59.775 -57.590  1.00  0.00     0.049 A 
HETATM    7  C   UNL     1     -41.467  60.834 -58.434  1.00  0.00     0.063 A 
HETATM    8  C   UNL     1     -41.586  60.694 -59.820  1.00  0.00     0.062 A 
HETATM    9  N   UNL     1     -41.017  62.040 -57.891  1.00  0.00    -0.317 N 
HETATM   10  N   UNL     1     -41.248  61.757 -60.659  1.00  0.00    -0.317 N 
HETATM   11  C   UNL     1     -42.046  59.499 -60.370  1.00  0.00     0.033 A 
HETATM   12  C   UNL     1     -40.791  62.971 -60.194  1.00  0.00     0.314 A 
HETATM   13  H   UNL     1     -41.327  61.676 -61.664  1.00  0.00     0.169 HD
HETATM   14  O   UNL     1     -40.494  63.879 -60.960  1.00  0.00    -0.262 OA
HETATM   15  C   UNL     1     -40.667  63.131 -58.659  1.00  0.00     0.314 A 
HETATM   16  O   UNL     1     -40.275  64.174 -58.154  1.00  0.00    -0.262 OA
HETATM   17  C   UNL     1     -42.377  58.432 -59.528  1.00  0.00     0.019 A 
HETATM   18  H   UNL     1     -40.936  62.161 -56.891  1.00  0.00     0.169 HD
ENDBRANCH   2   5
BRANCH   1  19
HETATM   19  C   UNL     1     -42.503  56.838 -54.829  1.00  0.00     0.158 A 
HETATM   20  C   UNL     1     -43.738  56.629 -54.164  1.00  0.00     0.003 A 
HETATM   21  C   UNL     1     -45.064  57.239 -54.418  1.00  0.00     0.054 C 
HETATM   22  C   UNL     1     -43.454  55.669 -53.213  1.00  0.00     0.129 A 
HETATM   23  N   UNL     1     -42.111  55.379 -53.296  1.00  0.00    -0.241 N 
HETATM   24  N   UNL     1     -41.548  56.068 -54.318  1.00  0.00    -0.149 NA
BRANCH  23  25
HETATM   25  C   UNL     1     -41.320  54.464 -52.540  1.00  0.00     0.079 A 
HETATM   26  C   UNL     1     -40.854  53.225 -53.010  1.00  0.00     0.062 A 
HETATM   27 CL   UNL     1     -41.305  52.483 -54.507  1.00  0.00    -0.082 Cl
HETATM   28  C   UNL     1     -40.034  52.432 -52.189  1.00  0.00     0.026 A 
HETATM   29  C   UNL     1     -39.684  52.845 -50.905  1.00  0.00     0.002 A 
HETATM   30  C   UNL     1     -40.168  54.050 -50.417  1.00  0.00     0.002 A 
HETATM   31  C   UNL     1     -40.983  54.849 -51.223  1.00  0.00     0.033 A 
ENDBRANCH  23  25
ENDBRANCH   1  19
TORSDOF 3
ENDMDL
MODEL 10
REMARK VINA RESULT:      -7.9      4.431      5.626
REMARK  3 active torsions:
REMARK  status: ('A' for Active; 'I' for Inactive)
REMARK    1  A    between atoms: C_3  and  N_4 
REMARK       I    between atoms: N_4  and  C_5 
REMARK    2  A    between atoms: C_5  and  C_6 
REMARK    3  A    between atoms: N_20  and  C_21 
ROOT
HETATM    1  N   UNL     1     -41.982  56.092 -55.619  1.00  0.00    -0.305 N 
HETATM    2  C   UNL     1     -41.342  56.341 -54.422  1.00  0.00     0.257 C 
HETATM    3  O   UNL     1     -41.063  57.424 -53.922  1.00  0.00    -0.267 OA
HETATM    4  H   UNL     1     -42.260  55.151 -55.840  1.00  0.00     0.170 HD
ENDROOT
BRANCH   2   5
HETATM    5  C   UNL     1     -41.004  55.118 -53.638  1.00  0.00     0.034 A 
HETATM    6  C   UNL     1     -40.711  53.941 -54.341  1.00  0.00     0.049 A 
HETATM    7  C   UNL     1     -40.381  52.783 -53.639  1.00  0.00     0.063 A 
HETATM    8  C   UNL     1     -40.350  52.790 -52.241  1.00  0.00     0.062 A 
HETATM    9  N   UNL     1     -40.078  51.611 -54.337  1.00  0.00    -0.317 N 
HETATM   10  N   UNL     1     -40.011  51.628 -51.546  1.00  0.00    -0.317 N 
HETATM   11  C   UNL     1     -40.664  53.951 -51.536  1.00  0.00     0.033 A 
HETATM   12  C   UNL     1     -39.693  50.440 -52.169  1.00  0.00     0.314 A 
HETATM   13  H   UNL     1     -39.982  51.612 -50.535  1.00  0.00     0.169 HD
HETATM   14  O   UNL     1     -39.390  49.442 -51.527  1.00  0.00    -0.262 OA
HETATM   15  C   UNL     1     -39.736  50.429 -53.717  1.00  0.00     0.314 A 
HETATM   16  O   UNL     1     -39.474  49.418 -54.355  1.00  0.00    -0.262 OA
HETATM   17  C   UNL     1     -40.997  55.115 -52.234  1.00  0.00     0.019 A 
HETATM   18  H   UNL     1     -40.106  51.587 -55.347  1.00  0.00     0.169 HD
ENDBRANCH   2   5
BRANCH   1  19
HETATM   19  C   UNL     1     -42.355  57.054 -56.539  1.00  0.00     0.158 A 
HETATM   20  C   UNL     1     -42.969  56.771 -57.786  1.00  0.00     0.003 A 
HETATM   21  C   UNL     1     -43.369  55.469 -58.369  1.00  0.00     0.054 C 
HETATM   22  C   UNL     1     -43.166  58.011 -58.357  1.00  0.00     0.129 A 
HETATM   23  N   UNL     1     -42.644  58.956 -57.502  1.00  0.00    -0.241 N 
HETATM   24  N   UNL     1     -42.190  58.362 -56.373  1.00  0.00    -0.149 NA
BRANCH  23  25
HETATM   25  C   UNL     1     -42.591  60.376 -57.625  1.00  0.00     0.079 A 
HETATM   26  C   UNL     1     -43.601  61.258 -57.206  1.00  0.00     0.062 A 
HETATM   27 CL   UNL     1     -45.171  60.795 -56.648  1.00  0.00    -0.082 Cl
HETATM   28  C   UNL     1     -43.410  62.645 -57.328  1.00  0.00     0.026 A 
HETATM   29  C   UNL     1     -42.239  63.167 -57.876  1.00  0.00     0.002 A 
HETATM   30  C   UNL     1     -41.250  62.304 -58.325  1.00  0.00     0.002 A 
HETATM   31  C   UNL     1     -41.426  60.923 -58.209  1.00  0.00     0.033 A 
ENDBRANCH  23  25
ENDBRANCH   1  19
TORSDOF 3
ENDMDL
