MODEL 1
REMARK VINA RESULT:      -9.5      0.000      0.000
REMARK  9 active torsions:
REMARK  status: ('A' for Active; 'I' for Inactive)
REMARK    1  A    between atoms: C_3  and  C_4 
REMARK    2  A    between atoms: C_4  and  C_5 
REMARK    3  A    between atoms: C_5  and  N_6 
REMARK       I    between atoms: N_6  and  C_7 
REMARK    4  A    between atoms: C_7  and  C_8 
REMARK    5  A    between atoms: C_8  and  C_9 
REMARK    6  A    between atoms: C_9  and  C_10 
REMARK    7  A    between atoms: C_9  and  C_26 
REMARK    8  A    between atoms: C_14  and  C_15 
REMARK    9  A    between atoms: C_28  and  N_29 
ROOT
HETATM    1  C   UNL     1     -42.501  58.184 -55.879  1.00  0.00     0.062 C 
ENDROOT
BRANCH   1   2
HETATM    2  C   UNL     1     -43.122  59.430 -55.227  1.00  0.00     0.116 C 
BRANCH   2   3
HETATM    3  C   UNL     1     -42.946  59.578 -53.726  1.00  0.00     0.218 C 
HETATM    4  N   UNL     1     -41.695  59.272 -53.243  1.00  0.00    -0.361 N 
HETATM    5  H   UNL     1     -41.038  58.791 -53.848  1.00  0.00     0.162 HD
HETATM    6  O   UNL     1     -43.851  59.993 -53.006  1.00  0.00    -0.274 OA
BRANCH   4   7
HETATM    7  C   UNL     1     -41.415  59.362 -51.821  1.00  0.00     0.128 C 
BRANCH   7   8
HETATM    8  C   UNL     1     -40.613  58.175 -51.302  1.00  0.00     0.079 C 
BRANCH   8   9
HETATM    9  C   UNL     1     -41.522  57.012 -51.008  1.00  0.00     0.035 A 
HETATM   10  C   UNL     1     -41.001  55.768 -50.657  1.00  0.00     0.027 A 
HETATM   11  C   UNL     1     -41.878  54.709 -50.443  1.00  0.00     0.003 A 
HETATM   12  C   UNL     1     -43.244  54.914 -50.586  1.00  0.00     0.019 A 
HETATM   13  C   UNL     1     -43.679  56.179 -50.939  1.00  0.00     0.117 A 
HETATM   14  N   UNL     1     -42.851  57.226 -51.151  1.00  0.00    -0.266 NA
ENDBRANCH   8   9
ENDBRANCH   7   8
ENDBRANCH   4   7
ENDBRANCH   2   3
ENDBRANCH   1   2
BRANCH   1  15
HETATM   15  C   UNL     1     -42.991  56.888 -55.263  1.00  0.00    -0.021 A 
HETATM   16  C   UNL     1     -42.152  55.770 -54.924  1.00  0.00    -0.001 A 
HETATM   17  C   UNL     1     -42.956  54.791 -54.346  1.00  0.00     0.043 A 
HETATM   18  C   UNL     1     -40.772  55.518 -55.036  1.00  0.00     0.015 A 
HETATM   19  C   UNL     1     -42.448  53.570 -53.875  1.00  0.00     0.044 A 
HETATM   20  N   UNL     1     -44.243  55.275 -54.346  1.00  0.00    -0.365 N 
HETATM   21  C   UNL     1     -41.064  53.320 -53.976  1.00  0.00    -0.005 A 
HETATM   22  C   UNL     1     -40.251  54.308 -54.555  1.00  0.00     0.015 A 
HETATM   23  H   UNL     1     -45.047  54.770 -53.998  1.00  0.00     0.165 HD
HETATM   24  C   UNL     1     -44.271  56.544 -54.858  1.00  0.00     0.097 A 
BRANCH  21  25
HETATM   25  C   UNL     1     -40.462  52.067 -53.474  1.00  0.00     0.066 A 
HETATM   26  N   UNL     1     -40.063  52.086 -52.175  1.00  0.00    -0.260 NA
HETATM   27  C   UNL     1     -39.512  50.964 -51.664  1.00  0.00     0.117 A 
HETATM   28  C   UNL     1     -39.324  49.801 -52.387  1.00  0.00     0.019 A 
HETATM   29  C   UNL     1     -39.725  49.788 -53.717  1.00  0.00     0.004 A 
HETATM   30  C   UNL     1     -40.300  50.932 -54.268  1.00  0.00     0.032 A 
ENDBRANCH  21  25
ENDBRANCH   1  15
BRANCH   1  31
HETATM   31  C   UNL     1     -42.539  58.034 -57.401  1.00  0.00    -0.047 A 
HETATM   32  C   UNL     1     -43.176  56.910 -57.972  1.00  0.00     0.043 A 
HETATM   33  C   UNL     1     -43.213  56.732 -59.363  1.00  0.00     0.103 A 
HETATM   34  C   UNL     1     -42.599  57.654 -60.215  1.00  0.00     0.036 A 
HETATM   35  C   UNL     1     -41.944  58.751 -59.664  1.00  0.00     0.003 A 
HETATM   36  C   UNL     1     -41.912  58.934 -58.277  1.00  0.00     0.008 A 
BRANCH  33  37
HETATM   37  N   UNL     1     -43.903  55.568 -59.932  1.00  0.00    -0.116 N 
HETATM   38  O   UNL     1     -44.221  55.612 -61.130  1.00  0.00    -0.532 OA
HETATM   39  O   UNL     1     -44.127  54.605 -59.183  1.00  0.00    -0.532 OA
ENDBRANCH  33  37
ENDBRANCH   1  31
TORSDOF 9
ENDMDL
MODEL 2
REMARK VINA RESULT:      -9.1      1.635      1.914
REMARK  9 active torsions:
REMARK  status: ('A' for Active; 'I' for Inactive)
REMARK    1  A    between atoms: C_3  and  C_4 
REMARK    2  A    between atoms: C_4  and  C_5 
REMARK    3  A    between atoms: C_5  and  N_6 
REMARK       I    between atoms: N_6  and  C_7 
REMARK    4  A    between atoms: C_7  and  C_8 
REMARK    5  A    between atoms: C_8  and  C_9 
REMARK    6  A    between atoms: C_9  and  C_10 
REMARK    7  A    between atoms: C_9  and  C_26 
REMARK    8  A    between atoms: C_14  and  C_15 
REMARK    9  A    between atoms: C_28  and  N_29 
ROOT
HETATM    1  C   UNL     1     -42.481  58.245 -55.820  1.00  0.00     0.062 C 
ENDROOT
BRANCH   1   2
HETATM    2  C   UNL     1     -43.155  59.473 -55.188  1.00  0.00     0.116 C 
BRANCH   2   3
HETATM    3  C   UNL     1     -42.878  59.727 -53.717  1.00  0.00     0.218 C 
HETATM    4  N   UNL     1     -41.720  59.168 -53.227  1.00  0.00    -0.361 N 
HETATM    5  H   UNL     1     -41.232  58.479 -53.787  1.00  0.00     0.162 HD
HETATM    6  O   UNL     1     -43.619  60.427 -53.031  1.00  0.00    -0.274 OA
BRANCH   4   7
HETATM    7  C   UNL     1     -41.361  59.332 -51.830  1.00  0.00     0.128 C 
BRANCH   7   8
HETATM    8  C   UNL     1     -40.617  58.126 -51.268  1.00  0.00     0.079 C 
BRANCH   8   9
HETATM    9  C   UNL     1     -41.570  56.989 -51.014  1.00  0.00     0.035 A 
HETATM   10  C   UNL     1     -41.097  55.717 -50.700  1.00  0.00     0.027 A 
HETATM   11  C   UNL     1     -42.014  54.685 -50.522  1.00  0.00     0.003 A 
HETATM   12  C   UNL     1     -43.371  54.945 -50.667  1.00  0.00     0.019 A 
HETATM   13  C   UNL     1     -43.757  56.235 -50.983  1.00  0.00     0.117 A 
HETATM   14  N   UNL     1     -42.890  57.257 -51.158  1.00  0.00    -0.266 NA
ENDBRANCH   8   9
ENDBRANCH   7   8
ENDBRANCH   4   7
ENDBRANCH   2   3
ENDBRANCH   1   2
BRANCH   1  15
HETATM   15  C   UNL     1     -42.980  56.934 -55.244  1.00  0.00    -0.021 A 
HETATM   16  C   UNL     1     -42.145  55.812 -54.910  1.00  0.00    -0.001 A 
HETATM   17  C   UNL     1     -42.958  54.818 -54.372  1.00  0.00     0.043 A 
HETATM   18  C   UNL     1     -40.761  55.565 -54.996  1.00  0.00     0.015 A 
HETATM   19  C   UNL     1     -42.457  53.588 -53.917  1.00  0.00     0.044 A 
HETATM   20  N   UNL     1     -44.246  55.297 -54.390  1.00  0.00    -0.365 N 
HETATM   21  C   UNL     1     -41.070  53.344 -53.992  1.00  0.00    -0.005 A 
HETATM   22  C   UNL     1     -40.247  54.347 -54.531  1.00  0.00     0.015 A 
HETATM   23  H   UNL     1     -45.056  54.783 -54.072  1.00  0.00     0.165 HD
HETATM   24  C   UNL     1     -44.267  56.577 -54.875  1.00  0.00     0.097 A 
BRANCH  21  25
HETATM   25  C   UNL     1     -40.475  52.082 -53.504  1.00  0.00     0.066 A 
HETATM   26  N   UNL     1     -40.079  52.084 -52.204  1.00  0.00    -0.260 NA
HETATM   27  C   UNL     1     -39.534  50.953 -51.706  1.00  0.00     0.117 A 
HETATM   28  C   UNL     1     -39.351  49.797 -52.443  1.00  0.00     0.019 A 
HETATM   29  C   UNL     1     -39.749  49.803 -53.773  1.00  0.00     0.004 A 
HETATM   30  C   UNL     1     -40.317  50.956 -54.312  1.00  0.00     0.032 A 
ENDBRANCH  21  25
ENDBRANCH   1  15
BRANCH   1  31
HETATM   31  C   UNL     1     -42.437  58.110 -57.343  1.00  0.00    -0.047 A 
HETATM   32  C   UNL     1     -42.186  59.253 -58.134  1.00  0.00     0.043 A 
HETATM   33  C   UNL     1     -42.159  59.168 -59.535  1.00  0.00     0.103 A 
HETATM   34  C   UNL     1     -42.401  57.952 -60.179  1.00  0.00     0.036 A 
HETATM   35  C   UNL     1     -42.676  56.824 -59.412  1.00  0.00     0.003 A 
HETATM   36  C   UNL     1     -42.698  56.905 -58.014  1.00  0.00     0.008 A 
BRANCH  33  37
HETATM   37  N   UNL     1     -41.871  60.366 -60.333  1.00  0.00    -0.116 N 
HETATM   38  O   UNL     1     -41.673  61.430 -59.730  1.00  0.00    -0.532 OA
HETATM   39  O   UNL     1     -41.839  60.243 -61.567  1.00  0.00    -0.532 OA
ENDBRANCH  33  37
ENDBRANCH   1  31
TORSDOF 9
ENDMDL
MODEL 3
REMARK VINA RESULT:      -8.9      1.509      2.153
REMARK  9 active torsions:
REMARK  status: ('A' for Active; 'I' for Inactive)
REMARK    1  A    between atoms: C_3  and  C_4 
REMARK    2  A    between atoms: C_4  and  C_5 
REMARK    3  A    between atoms: C_5  and  N_6 
REMARK       I    between atoms: N_6  and  C_7 
REMARK    4  A    between atoms: C_7  and  C_8 
REMARK    5  A    between atoms: C_8  and  C_9 
REMARK    6  A    between atoms: C_9  and  C_10 
REMARK    7  A    between atoms: C_9  and  C_26 
REMARK    8  A    between atoms: C_14  and  C_15 
REMARK    9  A    between atoms: C_28  and  N_29 
ROOT
HETATM    1  C   UNL     1     -43.641  58.698 -56.490  1.00  0.00     0.062 C 
ENDROOT
BRANCH   1   2
HETATM    2  C   UNL     1     -44.666  59.837 -56.361  1.00  0.00     0.116 C 
BRANCH   2   3
HETATM    3  C   UNL     1     -44.516  60.761 -55.166  1.00  0.00     0.218 C 
HETATM    4  N   UNL     1     -43.222  61.009 -54.767  1.00  0.00    -0.361 N 
HETATM    5  H   UNL     1     -42.474  60.434 -55.139  1.00  0.00     0.162 HD
HETATM    6  O   UNL     1     -45.487  61.288 -54.630  1.00  0.00    -0.274 OA
BRANCH   4   7
HETATM    7  C   UNL     1     -42.958  61.866 -53.626  1.00  0.00     0.128 C 
BRANCH   7   8
HETATM    8  C   UNL     1     -43.149  61.150 -52.294  1.00  0.00     0.079 C 
BRANCH   8   9
HETATM    9  C   UNL     1     -42.418  59.834 -52.293  1.00  0.00     0.035 A 
HETATM   10  C   UNL     1     -42.923  58.737 -51.598  1.00  0.00     0.027 A 
HETATM   11  C   UNL     1     -42.188  57.555 -51.583  1.00  0.00     0.003 A 
HETATM   12  C   UNL     1     -40.972  57.500 -52.253  1.00  0.00     0.019 A 
HETATM   13  C   UNL     1     -40.541  58.635 -52.916  1.00  0.00     0.117 A 
HETATM   14  N   UNL     1     -41.234  59.794 -52.949  1.00  0.00    -0.266 NA
ENDBRANCH   8   9
ENDBRANCH   7   8
ENDBRANCH   4   7
ENDBRANCH   2   3
ENDBRANCH   1   2
BRANCH   1  15
HETATM   15  C   UNL     1     -43.937  57.528 -55.572  1.00  0.00    -0.021 A 
HETATM   16  C   UNL     1     -42.995  56.500 -55.221  1.00  0.00    -0.001 A 
HETATM   17  C   UNL     1     -43.622  55.631 -54.331  1.00  0.00     0.043 A 
HETATM   18  C   UNL     1     -41.653  56.247 -55.564  1.00  0.00     0.015 A 
HETATM   19  C   UNL     1     -42.973  54.521 -53.768  1.00  0.00     0.044 A 
HETATM   20  N   UNL     1     -44.905  56.091 -54.154  1.00  0.00    -0.365 N 
HETATM   21  C   UNL     1     -41.626  54.273 -54.102  1.00  0.00    -0.005 A 
HETATM   22  C   UNL     1     -40.991  55.150 -54.997  1.00  0.00     0.015 A 
HETATM   23  H   UNL     1     -45.599  55.648 -53.569  1.00  0.00     0.165 HD
HETATM   24  C   UNL     1     -45.094  57.247 -54.863  1.00  0.00     0.097 A 
BRANCH  21  25
HETATM   25  C   UNL     1     -40.877  53.138 -53.521  1.00  0.00     0.066 A 
HETATM   26  N   UNL     1     -40.614  53.227 -52.192  1.00  0.00    -0.260 NA
HETATM   27  C   UNL     1     -39.938  52.212 -51.610  1.00  0.00     0.117 A 
HETATM   28  C   UNL     1     -39.492  51.094 -52.290  1.00  0.00     0.019 A 
HETATM   29  C   UNL     1     -39.756  51.012 -53.651  1.00  0.00     0.004 A 
HETATM   30  C   UNL     1     -40.455  52.043 -54.276  1.00  0.00     0.032 A 
ENDBRANCH  21  25
ENDBRANCH   1  15
BRANCH   1  31
HETATM   31  C   UNL     1     -43.303  58.144 -57.875  1.00  0.00    -0.047 A 
HETATM   32  C   UNL     1     -44.246  57.336 -58.549  1.00  0.00     0.043 A 
HETATM   33  C   UNL     1     -43.961  56.796 -59.813  1.00  0.00     0.103 A 
HETATM   34  C   UNL     1     -42.725  57.028 -60.423  1.00  0.00     0.036 A 
HETATM   35  C   UNL     1     -41.777  57.799 -59.758  1.00  0.00     0.003 A 
HETATM   36  C   UNL     1     -42.062  58.345 -58.501  1.00  0.00     0.008 A 
BRANCH  33  37
HETATM   37  N   UNL     1     -44.968  55.982 -60.503  1.00  0.00    -0.116 N 
HETATM   38  O   UNL     1     -46.160  56.291 -60.361  1.00  0.00    -0.532 OA
HETATM   39  O   UNL     1     -44.568  55.031 -61.192  1.00  0.00    -0.532 OA
ENDBRANCH  33  37
ENDBRANCH   1  31
TORSDOF 9
ENDMDL
MODEL 4
REMARK VINA RESULT:      -8.7      2.996      8.364
REMARK  9 active torsions:
REMARK  status: ('A' for Active; 'I' for Inactive)
REMARK    1  A    between atoms: C_3  and  C_4 
REMARK    2  A    between atoms: C_4  and  C_5 
REMARK    3  A    between atoms: C_5  and  N_6 
REMARK       I    between atoms: N_6  and  C_7 
REMARK    4  A    between atoms: C_7  and  C_8 
REMARK    5  A    between atoms: C_8  and  C_9 
REMARK    6  A    between atoms: C_9  and  C_10 
REMARK    7  A    between atoms: C_9  and  C_26 
REMARK    8  A    between atoms: C_14  and  C_15 
REMARK    9  A    between atoms: C_28  and  N_29 
ROOT
HETATM    1  C   UNL     1     -40.808  54.557 -53.905  1.00  0.00     0.062 C 
ENDROOT
BRANCH   1   2
HETATM    2  C   UNL     1     -41.133  54.317 -55.388  1.00  0.00     0.116 C 
BRANCH   2   3
HETATM    3  C   UNL     1     -42.238  55.164 -55.993  1.00  0.00     0.218 C 
HETATM    4  N   UNL     1     -41.856  56.411 -56.433  1.00  0.00    -0.361 N 
HETATM    5  H   UNL     1     -40.946  56.770 -56.165  1.00  0.00     0.162 HD
HETATM    6  O   UNL     1     -43.383  54.738 -56.123  1.00  0.00    -0.274 OA
BRANCH   4   7
HETATM    7  C   UNL     1     -42.831  57.314 -57.016  1.00  0.00     0.128 C 
BRANCH   7   8
HETATM    8  C   UNL     1     -42.663  57.470 -58.523  1.00  0.00     0.079 C 
BRANCH   8   9
HETATM    9  C   UNL     1     -43.740  56.714 -59.255  1.00  0.00     0.035 A 
HETATM   10  C   UNL     1     -44.879  57.366 -59.721  1.00  0.00     0.027 A 
HETATM   11  C   UNL     1     -45.871  56.618 -60.349  1.00  0.00     0.003 A 
HETATM   12  C   UNL     1     -45.705  55.247 -60.490  1.00  0.00     0.019 A 
HETATM   13  C   UNL     1     -44.545  54.677 -59.997  1.00  0.00     0.117 A 
HETATM   14  N   UNL     1     -43.565  55.378 -59.387  1.00  0.00    -0.266 NA
ENDBRANCH   8   9
ENDBRANCH   7   8
ENDBRANCH   4   7
ENDBRANCH   2   3
ENDBRANCH   1   2
BRANCH   1  15
HETATM   15  C   UNL     1     -41.901  55.312 -53.173  1.00  0.00    -0.021 A 
HETATM   16  C   UNL     1     -41.886  56.724 -52.906  1.00  0.00    -0.001 A 
HETATM   17  C   UNL     1     -43.075  57.049 -52.257  1.00  0.00     0.043 A 
HETATM   18  C   UNL     1     -40.975  57.761 -53.184  1.00  0.00     0.015 A 
HETATM   19  C   UNL     1     -43.397  58.360 -51.870  1.00  0.00     0.044 A 
HETATM   20  N   UNL     1     -43.786  55.882 -52.111  1.00  0.00    -0.365 N 
HETATM   21  C   UNL     1     -42.489  59.401 -52.157  1.00  0.00    -0.005 A 
HETATM   22  C   UNL     1     -41.292  59.076 -52.815  1.00  0.00     0.015 A 
HETATM   23  H   UNL     1     -44.687  55.812 -51.658  1.00  0.00     0.165 HD
HETATM   24  C   UNL     1     -43.111  54.842 -52.689  1.00  0.00     0.097 A 
BRANCH  21  25
HETATM   25  C   UNL     1     -42.781  60.806 -51.802  1.00  0.00     0.066 A 
HETATM   26  N   UNL     1     -42.964  61.650 -52.851  1.00  0.00    -0.260 NA
HETATM   27  C   UNL     1     -43.240  62.945 -52.581  1.00  0.00     0.117 A 
HETATM   28  C   UNL     1     -43.338  63.461 -51.302  1.00  0.00     0.019 A 
HETATM   29  C   UNL     1     -43.142  62.596 -50.234  1.00  0.00     0.004 A 
HETATM   30  C   UNL     1     -42.860  61.254 -50.484  1.00  0.00     0.032 A 
ENDBRANCH  21  25
ENDBRANCH   1  15
BRANCH   1  31
HETATM   31  C   UNL     1     -40.375  53.379 -53.030  1.00  0.00    -0.047 A 
HETATM   32  C   UNL     1     -40.187  52.109 -53.619  1.00  0.00     0.043 A 
HETATM   33  C   UNL     1     -39.809  51.003 -52.842  1.00  0.00     0.103 A 
HETATM   34  C   UNL     1     -39.631  51.130 -51.461  1.00  0.00     0.036 A 
HETATM   35  C   UNL     1     -39.839  52.370 -50.865  1.00  0.00     0.003 A 
HETATM   36  C   UNL     1     -40.210  53.476 -51.639  1.00  0.00     0.008 A 
BRANCH  33  37
HETATM   37  N   UNL     1     -39.595  49.699 -53.482  1.00  0.00    -0.116 N 
HETATM   38  O   UNL     1     -39.326  48.733 -52.753  1.00  0.00    -0.532 OA
HETATM   39  O   UNL     1     -39.700  49.638 -54.716  1.00  0.00    -0.532 OA
ENDBRANCH  33  37
ENDBRANCH   1  31
TORSDOF 9
ENDMDL
MODEL 5
REMARK VINA RESULT:      -8.7      1.660      2.134
REMARK  9 active torsions:
REMARK  status: ('A' for Active; 'I' for Inactive)
REMARK    1  A    between atoms: C_3  and  C_4 
REMARK    2  A    between atoms: C_4  and  C_5 
REMARK    3  A    between atoms: C_5  and  N_6 
REMARK       I    between atoms: N_6  and  C_7 
REMARK    4  A    between atoms: C_7  and  C_8 
REMARK    5  A    between atoms: C_8  and  C_9 
REMARK    6  A    between atoms: C_9  and  C_10 
REMARK    7  A    between atoms: C_9  and  C_26 
REMARK    8  A    between atoms: C_14  and  C_15 
REMARK    9  A    between atoms: C_28  and  N_29 
ROOT
HETATM    1  C   UNL     1     -43.204  57.454 -57.111  1.00  0.00     0.062 C 
ENDROOT
BRANCH   1   2
HETATM    2  C   UNL     1     -43.402  58.948 -56.806  1.00  0.00     0.116 C 
BRANCH   2   3
HETATM    3  C   UNL     1     -43.050  59.414 -55.405  1.00  0.00     0.218 C 
HETATM    4  N   UNL     1     -41.782  59.094 -54.975  1.00  0.00    -0.361 N 
HETATM    5  H   UNL     1     -41.238  58.421 -55.504  1.00  0.00     0.162 HD
HETATM    6  O   UNL     1     -43.832  60.075 -54.727  1.00  0.00    -0.274 OA
BRANCH   4   7
HETATM    7  C   UNL     1     -41.340  59.475 -53.645  1.00  0.00     0.128 C 
BRANCH   7   8
HETATM    8  C   UNL     1     -40.648  58.336 -52.906  1.00  0.00     0.079 C 
BRANCH   8   9
HETATM    9  C   UNL     1     -41.637  57.572 -52.067  1.00  0.00     0.035 A 
HETATM   10  C   UNL     1     -41.236  56.471 -51.314  1.00  0.00     0.027 A 
HETATM   11  C   UNL     1     -42.195  55.765 -50.593  1.00  0.00     0.003 A 
HETATM   12  C   UNL     1     -43.523  56.170 -50.645  1.00  0.00     0.019 A 
HETATM   13  C   UNL     1     -43.838  57.272 -51.419  1.00  0.00     0.117 A 
HETATM   14  N   UNL     1     -42.928  57.978 -52.127  1.00  0.00    -0.266 NA
ENDBRANCH   8   9
ENDBRANCH   7   8
ENDBRANCH   4   7
ENDBRANCH   2   3
ENDBRANCH   1   2
BRANCH   1  15
HETATM   15  C   UNL     1     -43.517  56.561 -55.926  1.00  0.00    -0.021 A 
HETATM   16  C   UNL     1     -42.631  55.561 -55.394  1.00  0.00    -0.001 A 
HETATM   17  C   UNL     1     -43.252  54.984 -54.289  1.00  0.00     0.043 A 
HETATM   18  C   UNL     1     -41.342  55.115 -55.741  1.00  0.00     0.015 A 
HETATM   19  C   UNL     1     -42.648  53.980 -53.515  1.00  0.00     0.044 A 
HETATM   20  N   UNL     1     -44.480  55.587 -54.156  1.00  0.00    -0.365 N 
HETATM   21  C   UNL     1     -41.352  53.540 -53.855  1.00  0.00    -0.005 A 
HETATM   22  C   UNL     1     -40.723  54.124 -54.967  1.00  0.00     0.015 A 
HETATM   23  H   UNL     1     -45.159  55.357 -53.443  1.00  0.00     0.165 HD
HETATM   24  C   UNL     1     -44.634  56.559 -55.107  1.00  0.00     0.097 A 
BRANCH  21  25
HETATM   25  C   UNL     1     -40.650  52.507 -53.064  1.00  0.00     0.066 A 
HETATM   26  N   UNL     1     -40.261  51.403 -53.754  1.00  0.00    -0.260 NA
HETATM   27  C   UNL     1     -39.609  50.432 -53.079  1.00  0.00     0.117 A 
HETATM   28  C   UNL     1     -39.321  50.492 -51.729  1.00  0.00     0.019 A 
HETATM   29  C   UNL     1     -39.728  51.619 -51.026  1.00  0.00     0.004 A 
HETATM   30  C   UNL     1     -40.400  52.639 -51.698  1.00  0.00     0.032 A 
ENDBRANCH  21  25
ENDBRANCH   1  15
BRANCH   1  31
HETATM   31  C   UNL     1     -43.860  56.847 -58.352  1.00  0.00    -0.047 A 
HETATM   32  C   UNL     1     -45.071  57.390 -58.834  1.00  0.00     0.043 A 
HETATM   33  C   UNL     1     -45.709  56.844 -59.958  1.00  0.00     0.103 A 
HETATM   34  C   UNL     1     -45.169  55.735 -60.615  1.00  0.00     0.036 A 
HETATM   35  C   UNL     1     -43.990  55.173 -60.134  1.00  0.00     0.003 A 
HETATM   36  C   UNL     1     -43.349  55.720 -59.016  1.00  0.00     0.008 A 
BRANCH  33  37
HETATM   37  N   UNL     1     -46.954  57.443 -60.454  1.00  0.00    -0.116 N 
HETATM   38  O   UNL     1     -47.275  58.558 -60.017  1.00  0.00    -0.532 OA
HETATM   39  O   UNL     1     -47.614  56.801 -61.285  1.00  0.00    -0.532 OA
ENDBRANCH  33  37
ENDBRANCH   1  31
TORSDOF 9
ENDMDL
MODEL 6
REMARK VINA RESULT:      -8.7      2.232      6.543
REMARK  9 active torsions:
REMARK  status: ('A' for Active; 'I' for Inactive)
REMARK    1  A    between atoms: C_3  and  C_4 
REMARK    2  A    between atoms: C_4  and  C_5 
REMARK    3  A    between atoms: C_5  and  N_6 
REMARK       I    between atoms: N_6  and  C_7 
REMARK    4  A    between atoms: C_7  and  C_8 
REMARK    5  A    between atoms: C_8  and  C_9 
REMARK    6  A    between atoms: C_9  and  C_10 
REMARK    7  A    between atoms: C_9  and  C_26 
REMARK    8  A    between atoms: C_14  and  C_15 
REMARK    9  A    between atoms: C_28  and  N_29 
ROOT
HETATM    1  C   UNL     1     -42.841  58.806 -54.469  1.00  0.00     0.062 C 
ENDROOT
BRANCH   1   2
HETATM    2  C   UNL     1     -41.978  59.114 -55.703  1.00  0.00     0.116 C 
BRANCH   2   3
HETATM    3  C   UNL     1     -42.691  59.169 -57.042  1.00  0.00     0.218 C 
HETATM    4  N   UNL     1     -41.918  58.858 -58.138  1.00  0.00    -0.361 N 
HETATM    5  H   UNL     1     -40.911  58.806 -58.031  1.00  0.00     0.162 HD
HETATM    6  O   UNL     1     -43.889  59.427 -57.127  1.00  0.00    -0.274 OA
BRANCH   4   7
HETATM    7  C   UNL     1     -42.490  58.892 -59.472  1.00  0.00     0.128 C 
BRANCH   7   8
HETATM    8  C   UNL     1     -42.462  57.532 -60.159  1.00  0.00     0.079 C 
BRANCH   8   9
HETATM    9  C   UNL     1     -43.861  57.015 -60.364  1.00  0.00     0.035 A 
HETATM   10  C   UNL     1     -44.966  57.814 -60.079  1.00  0.00     0.027 A 
HETATM   11  C   UNL     1     -46.241  57.276 -60.236  1.00  0.00     0.003 A 
HETATM   12  C   UNL     1     -46.379  55.963 -60.666  1.00  0.00     0.019 A 
HETATM   13  C   UNL     1     -45.230  55.237 -60.925  1.00  0.00     0.117 A 
HETATM   14  N   UNL     1     -43.981  55.733 -60.784  1.00  0.00    -0.266 NA
ENDBRANCH   8   9
ENDBRANCH   7   8
ENDBRANCH   4   7
ENDBRANCH   2   3
ENDBRANCH   1   2
BRANCH   1  15
HETATM   15  C   UNL     1     -43.303  57.362 -54.415  1.00  0.00    -0.021 A 
HETATM   16  C   UNL     1     -42.437  56.228 -54.237  1.00  0.00    -0.001 A 
HETATM   17  C   UNL     1     -43.231  55.085 -54.198  1.00  0.00     0.043 A 
HETATM   18  C   UNL     1     -41.046  56.078 -54.080  1.00  0.00     0.015 A 
HETATM   19  C   UNL     1     -42.703  53.798 -54.011  1.00  0.00     0.044 A 
HETATM   20  N   UNL     1     -44.533  55.493 -54.365  1.00  0.00    -0.365 N 
HETATM   21  C   UNL     1     -41.311  53.647 -53.842  1.00  0.00    -0.005 A 
HETATM   22  C   UNL     1     -40.509  54.799 -53.877  1.00  0.00     0.015 A 
HETATM   23  H   UNL     1     -45.331  54.872 -54.395  1.00  0.00     0.165 HD
HETATM   24  C   UNL     1     -44.593  56.857 -54.458  1.00  0.00     0.097 A 
BRANCH  21  25
HETATM   25  C   UNL     1     -40.695  52.323 -53.613  1.00  0.00     0.066 A 
HETATM   26  N   UNL     1     -40.060  52.169 -52.422  1.00  0.00    -0.260 NA
HETATM   27  C   UNL     1     -39.486  50.975 -52.159  1.00  0.00     0.117 A 
HETATM   28  C   UNL     1     -39.499  49.905 -53.034  1.00  0.00     0.019 A 
HETATM   29  C   UNL     1     -40.142  50.070 -54.255  1.00  0.00     0.004 A 
HETATM   30  C   UNL     1     -40.746  51.290 -54.550  1.00  0.00     0.032 A 
ENDBRANCH  21  25
ENDBRANCH   1  15
BRANCH   1  31
HETATM   31  C   UNL     1     -42.335  59.196 -53.079  1.00  0.00    -0.047 A 
HETATM   32  C   UNL     1     -40.948  59.163 -52.811  1.00  0.00     0.043 A 
HETATM   33  C   UNL     1     -40.452  59.496 -51.541  1.00  0.00     0.103 A 
HETATM   34  C   UNL     1     -41.322  59.849 -50.507  1.00  0.00     0.036 A 
HETATM   35  C   UNL     1     -42.692  59.859 -50.750  1.00  0.00     0.003 A 
HETATM   36  C   UNL     1     -43.190  59.533 -52.018  1.00  0.00     0.008 A 
BRANCH  33  37
HETATM   37  N   UNL     1     -39.005  59.478 -51.296  1.00  0.00    -0.116 N 
HETATM   38  O   UNL     1     -38.610  59.702 -50.142  1.00  0.00    -0.532 OA
HETATM   39  O   UNL     1     -38.259  59.236 -52.257  1.00  0.00    -0.532 OA
ENDBRANCH  33  37
ENDBRANCH   1  31
TORSDOF 9
ENDMDL
MODEL 7
REMARK VINA RESULT:      -8.7      2.383      6.364
REMARK  9 active torsions:
REMARK  status: ('A' for Active; 'I' for Inactive)
REMARK    1  A    between atoms: C_3  and  C_4 
REMARK    2  A    between atoms: C_4  and  C_5 
REMARK    3  A    between atoms: C_5  and  N_6 
REMARK       I    between atoms: N_6  and  C_7 
REMARK    4  A    between atoms: C_7  and  C_8 
REMARK    5  A    between atoms: C_8  and  C_9 
REMARK    6  A    between atoms: C_9  and  C_10 
REMARK    7  A    between atoms: C_9  and  C_26 
REMARK    8  A    between atoms: C_14  and  C_15 
REMARK    9  A    between atoms: C_28  and  N_29 
ROOT
HETATM    1  C   UNL     1     -43.214  58.962 -54.542  1.00  0.00     0.062 C 
ENDROOT
BRANCH   1   2
HETATM    2  C   UNL     1     -42.063  59.273 -55.513  1.00  0.00     0.116 C 
BRANCH   2   3
HETATM    3  C   UNL     1     -42.377  59.193 -56.996  1.00  0.00     0.218 C 
HETATM    4  N   UNL     1     -41.941  58.055 -57.634  1.00  0.00    -0.361 N 
HETATM    5  H   UNL     1     -41.286  57.444 -57.157  1.00  0.00     0.162 HD
HETATM    6  O   UNL     1     -43.022  60.068 -57.569  1.00  0.00    -0.274 OA
BRANCH   4   7
HETATM    7  C   UNL     1     -42.171  57.876 -59.056  1.00  0.00     0.128 C 
BRANCH   7   8
HETATM    8  C   UNL     1     -42.657  56.474 -59.402  1.00  0.00     0.079 C 
BRANCH   8   9
HETATM    9  C   UNL     1     -44.149  56.467 -59.607  1.00  0.00     0.035 A 
HETATM   10  C   UNL     1     -44.730  55.677 -60.597  1.00  0.00     0.027 A 
HETATM   11  C   UNL     1     -46.108  55.741 -60.783  1.00  0.00     0.003 A 
HETATM   12  C   UNL     1     -46.866  56.591 -59.987  1.00  0.00     0.019 A 
HETATM   13  C   UNL     1     -46.210  57.344 -59.030  1.00  0.00     0.117 A 
HETATM   14  N   UNL     1     -44.875  57.300 -58.824  1.00  0.00    -0.266 NA
ENDBRANCH   8   9
ENDBRANCH   7   8
ENDBRANCH   4   7
ENDBRANCH   2   3
ENDBRANCH   1   2
BRANCH   1  15
HETATM   15  C   UNL     1     -43.582  57.491 -54.512  1.00  0.00    -0.021 A 
HETATM   16  C   UNL     1     -42.660  56.418 -54.259  1.00  0.00    -0.001 A 
HETATM   17  C   UNL     1     -43.379  55.224 -54.272  1.00  0.00     0.043 A 
HETATM   18  C   UNL     1     -41.279  56.360 -53.995  1.00  0.00     0.015 A 
HETATM   19  C   UNL     1     -42.783  53.975 -54.035  1.00  0.00     0.044 A 
HETATM   20  N   UNL     1     -44.688  55.545 -54.542  1.00  0.00    -0.365 N 
HETATM   21  C   UNL     1     -41.401  53.917 -53.759  1.00  0.00    -0.005 A 
HETATM   22  C   UNL     1     -40.676  55.120 -53.742  1.00  0.00     0.015 A 
HETATM   23  H   UNL     1     -45.438  54.873 -54.627  1.00  0.00     0.165 HD
HETATM   24  C   UNL     1     -44.829  56.902 -54.650  1.00  0.00     0.097 A 
BRANCH  21  25
HETATM   25  C   UNL     1     -40.719  52.637 -53.472  1.00  0.00     0.066 A 
HETATM   26  N   UNL     1     -40.203  52.514 -52.222  1.00  0.00    -0.260 NA
HETATM   27  C   UNL     1     -39.575  51.361 -51.906  1.00  0.00     0.117 A 
HETATM   28  C   UNL     1     -39.420  50.304 -52.783  1.00  0.00     0.019 A 
HETATM   29  C   UNL     1     -39.941  50.437 -54.063  1.00  0.00     0.004 A 
HETATM   30  C   UNL     1     -40.598  51.616 -54.414  1.00  0.00     0.032 A 
ENDBRANCH  21  25
ENDBRANCH   1  15
BRANCH   1  31
HETATM   31  C   UNL     1     -43.136  59.463 -53.099  1.00  0.00    -0.047 A 
HETATM   32  C   UNL     1     -44.323  59.600 -52.346  1.00  0.00     0.043 A 
HETATM   33  C   UNL     1     -44.289  60.075 -51.026  1.00  0.00     0.103 A 
HETATM   34  C   UNL     1     -43.079  60.445 -50.434  1.00  0.00     0.036 A 
HETATM   35  C   UNL     1     -41.905  60.341 -51.173  1.00  0.00     0.003 A 
HETATM   36  C   UNL     1     -41.936  59.861 -52.488  1.00  0.00     0.008 A 
BRANCH  33  37
HETATM   37  N   UNL     1     -45.535  60.184 -50.257  1.00  0.00    -0.116 N 
HETATM   38  O   UNL     1     -46.049  61.306 -50.142  1.00  0.00    -0.532 OA
HETATM   39  O   UNL     1     -46.004  59.145 -49.768  1.00  0.00    -0.532 OA
ENDBRANCH  33  37
ENDBRANCH   1  31
TORSDOF 9
ENDMDL
MODEL 8
REMARK VINA RESULT:      -8.3      2.429      6.683
REMARK  9 active torsions:
REMARK  status: ('A' for Active; 'I' for Inactive)
REMARK    1  A    between atoms: C_3  and  C_4 
REMARK    2  A    between atoms: C_4  and  C_5 
REMARK    3  A    between atoms: C_5  and  N_6 
REMARK       I    between atoms: N_6  and  C_7 
REMARK    4  A    between atoms: C_7  and  C_8 
REMARK    5  A    between atoms: C_8  and  C_9 
REMARK    6  A    between atoms: C_9  and  C_10 
REMARK    7  A    between atoms: C_9  and  C_26 
REMARK    8  A    between atoms: C_14  and  C_15 
REMARK    9  A    between atoms: C_28  and  N_29 
ROOT
HETATM    1  C   UNL     1     -42.679  58.416 -52.870  1.00  0.00     0.062 C 
ENDROOT
BRANCH   1   2
HETATM    2  C   UNL     1     -41.707  59.220 -53.747  1.00  0.00     0.116 C 
BRANCH   2   3
HETATM    3  C   UNL     1     -42.002  59.264 -55.236  1.00  0.00     0.218 C 
HETATM    4  N   UNL     1     -42.829  58.270 -55.705  1.00  0.00    -0.361 N 
HETATM    5  H   UNL     1     -43.031  57.475 -55.108  1.00  0.00     0.162 HD
HETATM    6  O   UNL     1     -41.567  60.159 -55.956  1.00  0.00    -0.274 OA
BRANCH   4   7
HETATM    7  C   UNL     1     -43.169  58.202 -57.115  1.00  0.00     0.128 C 
BRANCH   7   8
HETATM    8  C   UNL     1     -42.819  56.857 -57.741  1.00  0.00     0.079 C 
BRANCH   8   9
HETATM    9  C   UNL     1     -43.915  56.407 -58.670  1.00  0.00     0.035 A 
HETATM   10  C   UNL     1     -43.777  55.246 -59.428  1.00  0.00     0.027 A 
HETATM   11  C   UNL     1     -44.795  54.895 -60.310  1.00  0.00     0.003 A 
HETATM   12  C   UNL     1     -45.915  55.710 -60.418  1.00  0.00     0.019 A 
HETATM   13  C   UNL     1     -45.972  56.846 -59.632  1.00  0.00     0.117 A 
HETATM   14  N   UNL     1     -45.002  57.210 -58.765  1.00  0.00    -0.266 NA
ENDBRANCH   8   9
ENDBRANCH   7   8
ENDBRANCH   4   7
ENDBRANCH   2   3
ENDBRANCH   1   2
BRANCH   1  15
HETATM   15  C   UNL     1     -41.987  57.349 -52.044  1.00  0.00    -0.021 A 
HETATM   16  C   UNL     1     -41.692  56.018 -52.501  1.00  0.00    -0.001 A 
HETATM   17  C   UNL     1     -41.018  55.353 -51.479  1.00  0.00     0.043 A 
HETATM   18  C   UNL     1     -41.917  55.329 -53.708  1.00  0.00     0.015 A 
HETATM   19  C   UNL     1     -40.560  54.032 -51.603  1.00  0.00     0.044 A 
HETATM   20  N   UNL     1     -40.919  56.230 -50.425  1.00  0.00    -0.365 N 
HETATM   21  C   UNL     1     -40.775  53.344 -52.815  1.00  0.00    -0.005 A 
HETATM   22  C   UNL     1     -41.451  54.014 -53.849  1.00  0.00     0.015 A 
HETATM   23  H   UNL     1     -40.488  56.015 -49.536  1.00  0.00     0.165 HD
HETATM   24  C   UNL     1     -41.462  57.440 -50.765  1.00  0.00     0.097 A 
BRANCH  21  25
HETATM   25  C   UNL     1     -40.293  51.962 -53.020  1.00  0.00     0.066 A 
HETATM   26  N   UNL     1     -39.862  51.319 -51.904  1.00  0.00    -0.260 NA
HETATM   27  C   UNL     1     -39.417  50.050 -52.035  1.00  0.00     0.117 A 
HETATM   28  C   UNL     1     -39.367  49.373 -53.239  1.00  0.00     0.019 A 
HETATM   29  C   UNL     1     -39.799  50.037 -54.379  1.00  0.00     0.004 A 
HETATM   30  C   UNL     1     -40.267  51.346 -54.272  1.00  0.00     0.032 A 
ENDBRANCH  21  25
ENDBRANCH   1  15
BRANCH   1  31
HETATM   31  C   UNL     1     -43.663  59.157 -51.963  1.00  0.00    -0.047 A 
HETATM   32  C   UNL     1     -43.345  60.455 -51.507  1.00  0.00     0.043 A 
HETATM   33  C   UNL     1     -44.217  61.155 -50.659  1.00  0.00     0.103 A 
HETATM   34  C   UNL     1     -45.411  60.572 -50.228  1.00  0.00     0.036 A 
HETATM   35  C   UNL     1     -45.724  59.283 -50.648  1.00  0.00     0.003 A 
HETATM   36  C   UNL     1     -44.859  58.585 -51.499  1.00  0.00     0.008 A 
BRANCH  33  37
HETATM   37  N   UNL     1     -43.874  62.513 -50.220  1.00  0.00    -0.116 N 
HETATM   38  O   UNL     1     -42.689  62.868 -50.304  1.00  0.00    -0.532 OA
HETATM   39  O   UNL     1     -44.792  63.231 -49.793  1.00  0.00    -0.532 OA
ENDBRANCH  33  37
ENDBRANCH   1  31
TORSDOF 9
ENDMDL
MODEL 9
REMARK VINA RESULT:      -8.1      3.038      7.589
REMARK  9 active torsions:
REMARK  status: ('A' for Active; 'I' for Inactive)
REMARK    1  A    between atoms: C_3  and  C_4 
REMARK    2  A    between atoms: C_4  and  C_5 
REMARK    3  A    between atoms: C_5  and  N_6 
REMARK       I    between atoms: N_6  and  C_7 
REMARK    4  A    between atoms: C_7  and  C_8 
REMARK    5  A    between atoms: C_8  and  C_9 
REMARK    6  A    between atoms: C_9  and  C_10 
REMARK    7  A    between atoms: C_9  and  C_26 
REMARK    8  A    between atoms: C_14  and  C_15 
REMARK    9  A    between atoms: C_28  and  N_29 
ROOT
HETATM    1  C   UNL     1     -42.953  60.179 -51.199  1.00  0.00     0.062 C 
ENDROOT
BRANCH   1   2
HETATM    2  C   UNL     1     -41.936  59.622 -50.190  1.00  0.00     0.116 C 
BRANCH   2   3
HETATM    3  C   UNL     1     -41.125  58.416 -50.628  1.00  0.00     0.218 C 
HETATM    4  N   UNL     1     -41.502  57.215 -50.072  1.00  0.00    -0.361 N 
HETATM    5  H   UNL     1     -42.138  57.216 -49.282  1.00  0.00     0.162 HD
HETATM    6  O   UNL     1     -40.227  58.508 -51.461  1.00  0.00    -0.274 OA
BRANCH   4   7
HETATM    7  C   UNL     1     -40.789  55.996 -50.406  1.00  0.00     0.128 C 
BRANCH   7   8
HETATM    8  C   UNL     1     -41.668  54.976 -51.121  1.00  0.00     0.079 C 
BRANCH   8   9
HETATM    9  C   UNL     1     -41.127  54.683 -52.495  1.00  0.00     0.035 A 
HETATM   10  C   UNL     1     -41.014  55.692 -53.448  1.00  0.00     0.027 A 
HETATM   11  C   UNL     1     -40.556  55.365 -54.721  1.00  0.00     0.003 A 
HETATM   12  C   UNL     1     -40.230  54.046 -55.011  1.00  0.00     0.019 A 
HETATM   13  C   UNL     1     -40.373  53.104 -54.008  1.00  0.00     0.117 A 
HETATM   14  N   UNL     1     -40.813  53.393 -52.764  1.00  0.00    -0.266 NA
ENDBRANCH   8   9
ENDBRANCH   7   8
ENDBRANCH   4   7
ENDBRANCH   2   3
ENDBRANCH   1   2
BRANCH   1  15
HETATM   15  C   UNL     1     -43.545  59.109 -52.095  1.00  0.00    -0.021 A 
HETATM   16  C   UNL     1     -43.195  58.906 -53.475  1.00  0.00    -0.001 A 
HETATM   17  C   UNL     1     -43.914  57.809 -53.942  1.00  0.00     0.043 A 
HETATM   18  C   UNL     1     -42.306  59.545 -54.360  1.00  0.00     0.015 A 
HETATM   19  C   UNL     1     -43.791  57.320 -55.253  1.00  0.00     0.044 A 
HETATM   20  N   UNL     1     -44.693  57.365 -52.901  1.00  0.00    -0.365 N 
HETATM   21  C   UNL     1     -42.893  57.953 -56.137  1.00  0.00    -0.005 A 
HETATM   22  C   UNL     1     -42.163  59.057 -55.667  1.00  0.00     0.015 A 
HETATM   23  H   UNL     1     -45.335  56.585 -52.954  1.00  0.00     0.165 HD
HETATM   24  C   UNL     1     -44.453  58.111 -51.779  1.00  0.00     0.097 A 
BRANCH  21  25
HETATM   25  C   UNL     1     -42.696  57.470 -57.520  1.00  0.00     0.066 A 
HETATM   26  N   UNL     1     -43.209  56.243 -57.793  1.00  0.00    -0.260 NA
HETATM   27  C   UNL     1     -43.062  55.757 -59.045  1.00  0.00     0.117 A 
HETATM   28  C   UNL     1     -42.413  56.433 -60.061  1.00  0.00     0.019 A 
HETATM   29  C   UNL     1     -41.881  57.684 -59.775  1.00  0.00     0.004 A 
HETATM   30  C   UNL     1     -42.022  58.210 -58.493  1.00  0.00     0.032 A 
ENDBRANCH  21  25
ENDBRANCH   1  15
BRANCH   1  31
HETATM   31  C   UNL     1     -44.093  61.071 -50.704  1.00  0.00    -0.047 A 
HETATM   32  C   UNL     1     -44.514  60.977 -49.359  1.00  0.00     0.043 A 
HETATM   33  C   UNL     1     -45.570  61.767 -48.878  1.00  0.00     0.103 A 
HETATM   34  C   UNL     1     -46.243  62.649 -49.727  1.00  0.00     0.036 A 
HETATM   35  C   UNL     1     -45.856  62.732 -51.061  1.00  0.00     0.003 A 
HETATM   36  C   UNL     1     -44.799  61.950 -51.542  1.00  0.00     0.008 A 
BRANCH  33  37
HETATM   37  N   UNL     1     -45.971  61.669 -47.469  1.00  0.00    -0.116 N 
HETATM   38  O   UNL     1     -47.184  61.684 -47.210  1.00  0.00    -0.532 OA
HETATM   39  O   UNL     1     -45.074  61.574 -46.618  1.00  0.00    -0.532 OA
ENDBRANCH  33  37
ENDBRANCH   1  31
TORSDOF 9
ENDMDL
MODEL 10
REMARK VINA RESULT:      -8.0      2.505      3.422
REMARK  9 active torsions:
REMARK  status: ('A' for Active; 'I' for Inactive)
REMARK    1  A    between atoms: C_3  and  C_4 
REMARK    2  A    between atoms: C_4  and  C_5 
REMARK    3  A    between atoms: C_5  and  N_6 
REMARK       I    between atoms: N_6  and  C_7 
REMARK    4  A    between atoms: C_7  and  C_8 
REMARK    5  A    between atoms: C_8  and  C_9 
REMARK    6  A    between atoms: C_9  and  C_10 
REMARK    7  A    between atoms: C_9  and  C_26 
REMARK    8  A    between atoms: C_14  and  C_15 
REMARK    9  A    between atoms: C_28  and  N_29 
ROOT
HETATM    1  C   UNL     1     -42.578  58.149 -56.064  1.00  0.00     0.062 C 
ENDROOT
BRANCH   1   2
HETATM    2  C   UNL     1     -42.954  59.485 -55.402  1.00  0.00     0.116 C 
BRANCH   2   3
HETATM    3  C   UNL     1     -42.218  59.849 -54.126  1.00  0.00     0.218 C 
HETATM    4  N   UNL     1     -43.007  60.306 -53.095  1.00  0.00    -0.361 N 
HETATM    5  H   UNL     1     -43.970  60.558 -53.288  1.00  0.00     0.162 HD
HETATM    6  O   UNL     1     -41.004  59.696 -54.013  1.00  0.00    -0.274 OA
BRANCH   4   7
HETATM    7  C   UNL     1     -42.410  60.698 -51.831  1.00  0.00     0.128 C 
BRANCH   7   8
HETATM    8  C   UNL     1     -43.388  60.612 -50.666  1.00  0.00     0.079 C 
BRANCH   8   9
HETATM    9  C   UNL     1     -43.562  61.962 -50.022  1.00  0.00     0.035 A 
HETATM   10  C   UNL     1     -42.769  63.043 -50.403  1.00  0.00     0.027 A 
HETATM   11  C   UNL     1     -42.931  64.259 -49.745  1.00  0.00     0.003 A 
HETATM   12  C   UNL     1     -43.870  64.364 -48.727  1.00  0.00     0.019 A 
HETATM   13  C   UNL     1     -44.614  63.242 -48.408  1.00  0.00     0.117 A 
HETATM   14  N   UNL     1     -44.481  62.051 -49.031  1.00  0.00    -0.266 NA
ENDBRANCH   8   9
ENDBRANCH   7   8
ENDBRANCH   4   7
ENDBRANCH   2   3
ENDBRANCH   1   2
BRANCH   1  15
HETATM   15  C   UNL     1     -43.010  56.944 -55.252  1.00  0.00    -0.021 A 
HETATM   16  C   UNL     1     -42.187  55.796 -54.983  1.00  0.00    -0.001 A 
HETATM   17  C   UNL     1     -42.916  54.926 -54.175  1.00  0.00     0.043 A 
HETATM   18  C   UNL     1     -40.873  55.433 -55.335  1.00  0.00     0.015 A 
HETATM   19  C   UNL     1     -42.396  53.710 -53.704  1.00  0.00     0.044 A 
HETATM   20  N   UNL     1     -44.147  55.503 -53.970  1.00  0.00    -0.365 N 
HETATM   21  C   UNL     1     -41.076  53.351 -54.047  1.00  0.00    -0.005 A 
HETATM   22  C   UNL     1     -40.339  54.228 -54.859  1.00  0.00     0.015 A 
HETATM   23  H   UNL     1     -44.893  55.087 -53.429  1.00  0.00     0.165 HD
HETATM   24  C   UNL     1     -44.202  56.728 -54.578  1.00  0.00     0.097 A 
BRANCH  21  25
HETATM   25  C   UNL     1     -40.461  52.098 -53.560  1.00  0.00     0.066 A 
HETATM   26  N   UNL     1     -40.091  52.095 -52.253  1.00  0.00    -0.260 NA
HETATM   27  C   UNL     1     -39.529  50.972 -51.756  1.00  0.00     0.117 A 
HETATM   28  C   UNL     1     -39.301  49.830 -52.501  1.00  0.00     0.019 A 
HETATM   29  C   UNL     1     -39.672  49.841 -53.840  1.00  0.00     0.004 A 
HETATM   30  C   UNL     1     -40.258  50.986 -54.377  1.00  0.00     0.032 A 
ENDBRANCH  21  25
ENDBRANCH   1  15
BRANCH   1  31
HETATM   31  C   UNL     1     -42.957  57.901 -57.525  1.00  0.00    -0.047 A 
HETATM   32  C   UNL     1     -44.308  57.662 -57.861  1.00  0.00     0.043 A 
HETATM   33  C   UNL     1     -44.687  57.411 -59.189  1.00  0.00     0.103 A 
HETATM   34  C   UNL     1     -43.730  57.371 -60.206  1.00  0.00     0.036 A 
HETATM   35  C   UNL     1     -42.393  57.578 -59.885  1.00  0.00     0.003 A 
HETATM   36  C   UNL     1     -42.013  57.835 -58.562  1.00  0.00     0.008 A 
BRANCH  33  37
HETATM   37  N   UNL     1     -46.101  57.191 -59.515  1.00  0.00    -0.116 N 
HETATM   38  O   UNL     1     -46.445  56.051 -59.861  1.00  0.00    -0.532 OA
HETATM   39  O   UNL     1     -46.872  58.158 -59.424  1.00  0.00    -0.532 OA
ENDBRANCH  33  37
ENDBRANCH   1  31
TORSDOF 9
ENDMDL
