MODEL 1
REMARK VINA RESULT:      -8.2      0.000      0.000
REMARK  8 active torsions:
REMARK  status: ('A' for Active; 'I' for Inactive)
REMARK    1  A    between atoms: C_2  and  N_3 
REMARK       I    between atoms: N_3  and  C_4 
REMARK       I    between atoms: C_4  and  N_5 
REMARK       I    between atoms: N_5  and  C_6 
REMARK    2  A    between atoms: C_6  and  C_7 
REMARK    3  A    between atoms: C_7  and  S_8 
REMARK    4  A    between atoms: C_7  and  C_29 
REMARK    5  A    between atoms: S_8  and  C_9 
REMARK    6  A    between atoms: N_10  and  C_11 
REMARK    7  A    between atoms: C_18  and  C_19 
REMARK    8  A    between atoms: C_19  and  N_20 
ROOT
HETATM    1  C   UNL     1     -44.694  57.921 -54.303  1.00  0.00     0.197 A 
HETATM    2  N   UNL     1     -43.751  57.269 -55.078  1.00  0.00    -0.274 N 
HETATM    3  C   UNL     1     -43.846  57.903 -56.311  1.00  0.00     0.161 A 
HETATM    4  N   UNL     1     -44.742  58.869 -56.250  1.00  0.00    -0.132 NA
HETATM    5  N   UNL     1     -45.257  58.887 -54.992  1.00  0.00    -0.122 NA
ENDROOT
BRANCH   1   6
HETATM    6  S   UNL     1     -44.926  57.722 -52.600  1.00  0.00    -0.070 SA
BRANCH   6   7
HETATM    7  C   UNL     1     -43.277  58.129 -51.905  1.00  0.00     0.180 C 
BRANCH   7   8
HETATM    8  C   UNL     1     -43.234  59.432 -51.089  1.00  0.00     0.244 C 
HETATM    9  N   UNL     1     -44.277  59.665 -50.214  1.00  0.00    -0.278 N 
HETATM   10  C   UNL     1     -44.705  60.871 -49.727  1.00  0.00     0.322 C 
HETATM   11  H   UNL     1     -45.013  58.974 -50.153  1.00  0.00     0.173 HD
HETATM   12  N   UNL     1     -43.815  61.896 -49.790  1.00  0.00    -0.343 N 
HETATM   13  O   UNL     1     -45.854  60.977 -49.304  1.00  0.00    -0.247 OA
HETATM   14  H   UNL     1     -42.881  61.686 -50.139  1.00  0.00     0.164 HD
HETATM   15  O   UNL     1     -42.249  60.174 -51.144  1.00  0.00    -0.271 OA
BRANCH  12  16
HETATM   16  C   UNL     1     -44.124  63.244 -49.368  1.00  0.00     0.120 C 
HETATM   17  C   UNL     1     -43.005  64.219 -49.685  1.00  0.00     0.026 C 
ENDBRANCH  12  16
ENDBRANCH   7   8
BRANCH   7  18
HETATM   18  C   UNL     1     -42.592  56.929 -51.267  1.00  0.00    -0.035 A 
HETATM   19  C   UNL     1     -43.342  55.766 -51.013  1.00  0.00     0.009 A 
HETATM   20  C   UNL     1     -42.761  54.657 -50.398  1.00  0.00     0.001 A 
HETATM   21  C   UNL     1     -41.419  54.690 -50.028  1.00  0.00     0.000 A 
HETATM   22  C   UNL     1     -40.660  55.832 -50.274  1.00  0.00     0.001 A 
HETATM   23  C   UNL     1     -41.241  56.944 -50.888  1.00  0.00     0.009 A 
ENDBRANCH   7  18
ENDBRANCH   6   7
ENDBRANCH   1   6
BRANCH   2  24
HETATM   24  C   UNL     1     -42.897  56.194 -54.730  1.00  0.00     0.043 A 
HETATM   25  C   UNL     1     -41.523  56.413 -54.566  1.00  0.00     0.033 A 
HETATM   26  C   UNL     1     -40.687  55.351 -54.216  1.00  0.00     0.044 A 
HETATM   27  C   UNL     1     -41.223  54.080 -54.043  1.00  0.00     0.116 A 
HETATM   28  F   UNL     1     -40.419  53.064 -53.710  1.00  0.00    -0.206 F 
HETATM   29  C   UNL     1     -42.582  53.848 -54.215  1.00  0.00     0.044 A 
HETATM   30  C   UNL     1     -43.427  54.905 -54.562  1.00  0.00     0.033 A 
ENDBRANCH   2  24
BRANCH   3  31
HETATM   31  C   UNL     1     -43.200  57.487 -57.585  1.00  0.00     0.315 C 
BRANCH  31  32
HETATM   32  N   UNL     1     -44.123  56.574 -58.389  1.00  0.00    -0.064 N 
HETATM   33  H   UNL     1     -44.817  56.241 -57.697  1.00  0.00     0.280 HD
HETATM   34  C   UNL     1     -44.904  57.334 -59.438  1.00  0.00     0.235 C 
HETATM   35  C   UNL     1     -45.912  56.406 -60.098  1.00  0.00     0.028 C 
HETATM   36  C   UNL     1     -45.238  55.167 -60.676  1.00  0.00     0.003 C 
HETATM   37  C   UNL     1     -44.415  54.445 -59.615  1.00  0.00     0.028 C 
HETATM   38  C   UNL     1     -43.411  55.374 -58.948  1.00  0.00     0.235 C 
ENDBRANCH  31  32
ENDBRANCH   3  31
TORSDOF 8
ENDMDL
MODEL 2
REMARK VINA RESULT:      -8.0      2.828      7.588
REMARK  8 active torsions:
REMARK  status: ('A' for Active; 'I' for Inactive)
REMARK    1  A    between atoms: C_2  and  N_3 
REMARK       I    between atoms: N_3  and  C_4 
REMARK       I    between atoms: C_4  and  N_5 
REMARK       I    between atoms: N_5  and  C_6 
REMARK    2  A    between atoms: C_6  and  C_7 
REMARK    3  A    between atoms: C_7  and  S_8 
REMARK    4  A    between atoms: C_7  and  C_29 
REMARK    5  A    between atoms: S_8  and  C_9 
REMARK    6  A    between atoms: N_10  and  C_11 
REMARK    7  A    between atoms: C_18  and  C_19 
REMARK    8  A    between atoms: C_19  and  N_20 
ROOT
HETATM    1  C   UNL     1     -42.825  57.556 -53.738  1.00  0.00     0.197 A 
HETATM    2  N   UNL     1     -43.262  57.413 -52.433  1.00  0.00    -0.274 N 
HETATM    3  C   UNL     1     -44.407  58.200 -52.383  1.00  0.00     0.161 A 
HETATM    4  N   UNL     1     -44.638  58.729 -53.570  1.00  0.00    -0.132 NA
HETATM    5  N   UNL     1     -43.658  58.312 -54.415  1.00  0.00    -0.122 NA
ENDROOT
BRANCH   1   6
HETATM    6  S   UNL     1     -41.544  56.665 -54.485  1.00  0.00    -0.070 SA
BRANCH   6   7
HETATM    7  C   UNL     1     -42.274  54.997 -54.713  1.00  0.00     0.180 C 
BRANCH   7   8
HETATM    8  C   UNL     1     -42.859  54.745 -56.112  1.00  0.00     0.244 C 
HETATM    9  N   UNL     1     -42.386  55.528 -57.147  1.00  0.00    -0.278 N 
HETATM   10  C   UNL     1     -43.010  55.815 -58.331  1.00  0.00     0.322 C 
HETATM   11  H   UNL     1     -41.683  56.225 -56.935  1.00  0.00     0.173 HD
HETATM   12  N   UNL     1     -44.005  54.970 -58.707  1.00  0.00    -0.343 N 
HETATM   13  O   UNL     1     -42.678  56.817 -58.960  1.00  0.00    -0.247 OA
HETATM   14  H   UNL     1     -44.178  54.157 -58.118  1.00  0.00     0.164 HD
HETATM   15  O   UNL     1     -43.637  53.806 -56.307  1.00  0.00    -0.271 OA
BRANCH  12  16
HETATM   16  C   UNL     1     -44.799  55.159 -59.901  1.00  0.00     0.120 C 
HETATM   17  C   UNL     1     -45.888  56.199 -59.711  1.00  0.00     0.026 C 
ENDBRANCH  12  16
ENDBRANCH   7   8
BRANCH   7  18
HETATM   18  C   UNL     1     -41.398  53.886 -54.155  1.00  0.00    -0.035 A 
HETATM   19  C   UNL     1     -41.130  53.852 -52.773  1.00  0.00     0.009 A 
HETATM   20  C   UNL     1     -40.303  52.871 -52.226  1.00  0.00     0.001 A 
HETATM   21  C   UNL     1     -39.731  51.905 -53.050  1.00  0.00     0.000 A 
HETATM   22  C   UNL     1     -39.987  51.921 -54.419  1.00  0.00     0.001 A 
HETATM   23  C   UNL     1     -40.813  52.904 -54.969  1.00  0.00     0.009 A 
ENDBRANCH   7  18
ENDBRANCH   6   7
ENDBRANCH   1   6
BRANCH   2  24
HETATM   24  C   UNL     1     -42.689  56.668 -51.374  1.00  0.00     0.043 A 
HETATM   25  C   UNL     1     -41.468  57.067 -50.815  1.00  0.00     0.033 A 
HETATM   26  C   UNL     1     -40.911  56.332 -49.766  1.00  0.00     0.044 A 
HETATM   27  C   UNL     1     -41.568  55.204 -49.290  1.00  0.00     0.116 A 
HETATM   28  F   UNL     1     -41.032  54.500 -48.286  1.00  0.00    -0.206 F 
HETATM   29  C   UNL     1     -42.774  54.792 -49.845  1.00  0.00     0.044 A 
HETATM   30  C   UNL     1     -43.341  55.522 -50.892  1.00  0.00     0.033 A 
ENDBRANCH   2  24
BRANCH   3  31
HETATM   31  C   UNL     1     -45.186  58.575 -51.173  1.00  0.00     0.315 C 
BRANCH  31  32
HETATM   32  N   UNL     1     -44.488  59.692 -50.401  1.00  0.00    -0.064 N 
HETATM   33  H   UNL     1     -43.835  59.195 -49.769  1.00  0.00     0.280 HD
HETATM   34  C   UNL     1     -43.630  60.556 -51.298  1.00  0.00     0.235 C 
HETATM   35  C   UNL     1     -42.844  61.548 -50.455  1.00  0.00     0.028 C 
HETATM   36  C   UNL     1     -43.763  62.383 -49.571  1.00  0.00     0.003 C 
HETATM   37  C   UNL     1     -44.655  61.492 -48.712  1.00  0.00     0.028 C 
HETATM   38  C   UNL     1     -45.436  60.494 -49.554  1.00  0.00     0.235 C 
ENDBRANCH  31  32
ENDBRANCH   3  31
TORSDOF 8
ENDMDL
MODEL 3
REMARK VINA RESULT:      -8.0      3.173      5.671
REMARK  8 active torsions:
REMARK  status: ('A' for Active; 'I' for Inactive)
REMARK    1  A    between atoms: C_2  and  N_3 
REMARK       I    between atoms: N_3  and  C_4 
REMARK       I    between atoms: C_4  and  N_5 
REMARK       I    between atoms: N_5  and  C_6 
REMARK    2  A    between atoms: C_6  and  C_7 
REMARK    3  A    between atoms: C_7  and  S_8 
REMARK    4  A    between atoms: C_7  and  C_29 
REMARK    5  A    between atoms: S_8  and  C_9 
REMARK    6  A    between atoms: N_10  and  C_11 
REMARK    7  A    between atoms: C_18  and  C_19 
REMARK    8  A    between atoms: C_19  and  N_20 
ROOT
HETATM    1  C   UNL     1     -41.258  57.685 -51.003  1.00  0.00     0.197 A 
HETATM    2  N   UNL     1     -41.877  56.697 -51.748  1.00  0.00    -0.274 N 
HETATM    3  C   UNL     1     -41.825  55.581 -50.920  1.00  0.00     0.161 A 
HETATM    4  N   UNL     1     -41.255  55.901 -49.774  1.00  0.00    -0.132 NA
HETATM    5  N   UNL     1     -40.918  57.217 -49.824  1.00  0.00    -0.122 NA
ENDROOT
BRANCH   1   6
HETATM    6  S   UNL     1     -41.178  59.365 -51.406  1.00  0.00    -0.070 SA
BRANCH   6   7
HETATM    7  C   UNL     1     -42.943  59.865 -51.457  1.00  0.00     0.180 C 
BRANCH   7   8
HETATM    8  C   UNL     1     -43.354  60.863 -50.361  1.00  0.00     0.244 C 
HETATM    9  N   UNL     1     -44.248  60.422 -49.405  1.00  0.00    -0.278 N 
HETATM   10  C   UNL     1     -45.083  61.180 -48.629  1.00  0.00     0.322 C 
HETATM   11  H   UNL     1     -44.587  59.471 -49.472  1.00  0.00     0.173 HD
HETATM   12  N   UNL     1     -44.753  62.491 -48.493  1.00  0.00    -0.343 N 
HETATM   13  O   UNL     1     -46.083  60.663 -48.137  1.00  0.00    -0.247 OA
HETATM   14  H   UNL     1     -43.887  62.804 -48.927  1.00  0.00     0.164 HD
HETATM   15  O   UNL     1     -42.815  61.972 -50.289  1.00  0.00    -0.271 OA
BRANCH  12  16
HETATM   16  C   UNL     1     -45.555  63.439 -47.752  1.00  0.00     0.120 C 
HETATM   17  C   UNL     1     -45.145  63.525 -46.293  1.00  0.00     0.026 C 
ENDBRANCH  12  16
ENDBRANCH   7   8
BRANCH   7  18
HETATM   18  C   UNL     1     -43.425  60.194 -52.862  1.00  0.00    -0.035 A 
HETATM   19  C   UNL     1     -44.808  60.230 -53.122  1.00  0.00     0.009 A 
HETATM   20  C   UNL     1     -45.291  60.492 -54.404  1.00  0.00     0.001 A 
HETATM   21  C   UNL     1     -44.400  60.727 -55.447  1.00  0.00     0.000 A 
HETATM   22  C   UNL     1     -43.029  60.698 -55.209  1.00  0.00     0.001 A 
HETATM   23  C   UNL     1     -42.542  60.433 -53.927  1.00  0.00     0.009 A 
ENDBRANCH   7  18
ENDBRANCH   6   7
ENDBRANCH   1   6
BRANCH   2  24
HETATM   24  C   UNL     1     -42.423  56.771 -53.053  1.00  0.00     0.043 A 
HETATM   25  C   UNL     1     -43.810  56.699 -53.240  1.00  0.00     0.033 A 
HETATM   26  C   UNL     1     -44.342  56.780 -54.528  1.00  0.00     0.044 A 
HETATM   27  C   UNL     1     -43.491  56.922 -55.618  1.00  0.00     0.116 A 
HETATM   28  F   UNL     1     -44.003  56.998 -56.851  1.00  0.00    -0.206 F 
HETATM   29  C   UNL     1     -42.113  56.983 -55.446  1.00  0.00     0.044 A 
HETATM   30  C   UNL     1     -41.571  56.906 -54.161  1.00  0.00     0.033 A 
ENDBRANCH   2  24
BRANCH   3  31
HETATM   31  C   UNL     1     -42.171  54.181 -51.281  1.00  0.00     0.315 C 
BRANCH  31  32
HETATM   32  N   UNL     1     -41.043  53.529 -52.077  1.00  0.00    -0.064 N 
HETATM   33  H   UNL     1     -40.310  54.260 -52.125  1.00  0.00     0.280 HD
HETATM   34  C   UNL     1     -40.426  52.361 -51.342  1.00  0.00     0.235 C 
HETATM   35  C   UNL     1     -39.215  51.853 -52.110  1.00  0.00     0.028 C 
HETATM   36  C   UNL     1     -39.574  51.496 -53.547  1.00  0.00     0.003 C 
HETATM   37  C   UNL     1     -40.240  52.671 -54.255  1.00  0.00     0.028 C 
HETATM   38  C   UNL     1     -41.447  53.185 -53.484  1.00  0.00     0.235 C 
ENDBRANCH  31  32
ENDBRANCH   3  31
TORSDOF 8
ENDMDL
MODEL 4
REMARK VINA RESULT:      -7.8      2.384      3.061
REMARK  8 active torsions:
REMARK  status: ('A' for Active; 'I' for Inactive)
REMARK    1  A    between atoms: C_2  and  N_3 
REMARK       I    between atoms: N_3  and  C_4 
REMARK       I    between atoms: C_4  and  N_5 
REMARK       I    between atoms: N_5  and  C_6 
REMARK    2  A    between atoms: C_6  and  C_7 
REMARK    3  A    between atoms: C_7  and  S_8 
REMARK    4  A    between atoms: C_7  and  C_29 
REMARK    5  A    between atoms: S_8  and  C_9 
REMARK    6  A    between atoms: N_10  and  C_11 
REMARK    7  A    between atoms: C_18  and  C_19 
REMARK    8  A    between atoms: C_19  and  N_20 
ROOT
HETATM    1  C   UNL     1     -41.404  58.860 -53.781  1.00  0.00     0.197 A 
HETATM    2  N   UNL     1     -41.728  57.938 -54.761  1.00  0.00    -0.274 N 
HETATM    3  C   UNL     1     -42.084  58.728 -55.848  1.00  0.00     0.161 A 
HETATM    4  N   UNL     1     -41.945  60.003 -55.539  1.00  0.00    -0.132 NA
HETATM    5  N   UNL     1     -41.506  60.080 -54.255  1.00  0.00    -0.122 NA
ENDROOT
BRANCH   1   6
HETATM    6  S   UNL     1     -40.694  58.504 -52.244  1.00  0.00    -0.070 SA
BRANCH   6   7
HETATM    7  C   UNL     1     -42.146  58.110 -51.195  1.00  0.00     0.180 C 
BRANCH   7   8
HETATM    8  C   UNL     1     -43.399  58.947 -51.502  1.00  0.00     0.244 C 
HETATM    9  N   UNL     1     -44.157  58.575 -52.595  1.00  0.00    -0.278 N 
HETATM   10  C   UNL     1     -45.011  59.357 -53.325  1.00  0.00     0.322 C 
HETATM   11  H   UNL     1     -43.852  57.777 -53.137  1.00  0.00     0.173 HD
HETATM   12  N   UNL     1     -45.462  60.485 -52.716  1.00  0.00    -0.343 N 
HETATM   13  O   UNL     1     -45.293  59.031 -54.475  1.00  0.00    -0.247 OA
HETATM   14  H   UNL     1     -45.181  60.641 -51.750  1.00  0.00     0.164 HD
HETATM   15  O   UNL     1     -43.760  59.841 -50.731  1.00  0.00    -0.271 OA
BRANCH  12  16
HETATM   16  C   UNL     1     -46.328  61.445 -53.364  1.00  0.00     0.120 C 
HETATM   17  C   UNL     1     -47.549  61.779 -52.525  1.00  0.00     0.026 C 
ENDBRANCH  12  16
ENDBRANCH   7   8
BRANCH   7  18
HETATM   18  C   UNL     1     -42.376  56.613 -51.040  1.00  0.00    -0.035 A 
HETATM   19  C   UNL     1     -41.278  55.737 -51.140  1.00  0.00     0.009 A 
HETATM   20  C   UNL     1     -41.450  54.357 -51.039  1.00  0.00     0.001 A 
HETATM   21  C   UNL     1     -42.721  53.828 -50.834  1.00  0.00     0.000 A 
HETATM   22  C   UNL     1     -43.819  54.679 -50.730  1.00  0.00     0.001 A 
HETATM   23  C   UNL     1     -43.649  56.062 -50.833  1.00  0.00     0.009 A 
ENDBRANCH   7  18
ENDBRANCH   6   7
ENDBRANCH   1   6
BRANCH   2  24
HETATM   24  C   UNL     1     -41.727  56.523 -54.694  1.00  0.00     0.043 A 
HETATM   25  C   UNL     1     -40.518  55.817 -54.767  1.00  0.00     0.033 A 
HETATM   26  C   UNL     1     -40.523  54.423 -54.692  1.00  0.00     0.044 A 
HETATM   27  C   UNL     1     -41.729  53.744 -54.556  1.00  0.00     0.116 A 
HETATM   28  F   UNL     1     -41.731  52.408 -54.487  1.00  0.00    -0.206 F 
HETATM   29  C   UNL     1     -42.934  54.433 -54.494  1.00  0.00     0.044 A 
HETATM   30  C   UNL     1     -42.940  55.828 -54.564  1.00  0.00     0.033 A 
ENDBRANCH   2  24
BRANCH   3  31
HETATM   31  C   UNL     1     -42.706  58.274 -57.120  1.00  0.00     0.315 C 
BRANCH  31  32
HETATM   32  N   UNL     1     -44.154  58.748 -57.218  1.00  0.00    -0.064 N 
HETATM   33  H   UNL     1     -44.411  58.980 -56.242  1.00  0.00     0.280 HD
HETATM   34  C   UNL     1     -44.281  60.033 -58.004  1.00  0.00     0.235 C 
HETATM   35  C   UNL     1     -45.715  60.535 -57.936  1.00  0.00     0.028 C 
HETATM   36  C   UNL     1     -46.702  59.476 -58.412  1.00  0.00     0.003 C 
HETATM   37  C   UNL     1     -46.522  58.173 -57.641  1.00  0.00     0.028 C 
HETATM   38  C   UNL     1     -45.087  57.673 -57.702  1.00  0.00     0.235 C 
ENDBRANCH  31  32
ENDBRANCH   3  31
TORSDOF 8
ENDMDL
MODEL 5
REMARK VINA RESULT:      -7.7      3.345      6.387
REMARK  8 active torsions:
REMARK  status: ('A' for Active; 'I' for Inactive)
REMARK    1  A    between atoms: C_2  and  N_3 
REMARK       I    between atoms: N_3  and  C_4 
REMARK       I    between atoms: C_4  and  N_5 
REMARK       I    between atoms: N_5  and  C_6 
REMARK    2  A    between atoms: C_6  and  C_7 
REMARK    3  A    between atoms: C_7  and  S_8 
REMARK    4  A    between atoms: C_7  and  C_29 
REMARK    5  A    between atoms: S_8  and  C_9 
REMARK    6  A    between atoms: N_10  and  C_11 
REMARK    7  A    between atoms: C_18  and  C_19 
REMARK    8  A    between atoms: C_19  and  N_20 
ROOT
HETATM    1  C   UNL     1     -43.999  57.222 -53.806  1.00  0.00     0.197 A 
HETATM    2  N   UNL     1     -43.416  58.448 -53.538  1.00  0.00    -0.274 N 
HETATM    3  C   UNL     1     -44.170  59.340 -54.292  1.00  0.00     0.161 A 
HETATM    4  N   UNL     1     -45.135  58.693 -54.918  1.00  0.00    -0.132 NA
HETATM    5  N   UNL     1     -45.034  57.376 -54.600  1.00  0.00    -0.122 NA
ENDROOT
BRANCH   1   6
HETATM    6  S   UNL     1     -43.634  55.728 -53.013  1.00  0.00    -0.070 SA
BRANCH   6   7
HETATM    7  C   UNL     1     -42.920  54.706 -54.359  1.00  0.00     0.180 C 
BRANCH   7   8
HETATM    8  C   UNL     1     -42.632  55.476 -55.658  1.00  0.00     0.244 C 
HETATM    9  N   UNL     1     -43.556  55.364 -56.679  1.00  0.00    -0.278 N 
HETATM   10  C   UNL     1     -43.350  55.558 -58.018  1.00  0.00     0.322 C 
HETATM   11  H   UNL     1     -44.371  54.784 -56.523  1.00  0.00     0.173 HD
HETATM   12  N   UNL     1     -42.259  56.293 -58.358  1.00  0.00    -0.343 N 
HETATM   13  O   UNL     1     -44.117  55.043 -58.827  1.00  0.00    -0.247 OA
HETATM   14  H   UNL     1     -41.707  56.692 -57.601  1.00  0.00     0.164 HD
HETATM   15  O   UNL     1     -41.669  56.246 -55.732  1.00  0.00    -0.271 OA
BRANCH  12  16
HETATM   16  C   UNL     1     -41.868  56.548 -59.727  1.00  0.00     0.120 C 
HETATM   17  C   UNL     1     -42.491  57.818 -60.278  1.00  0.00     0.026 C 
ENDBRANCH  12  16
ENDBRANCH   7   8
BRANCH   7  18
HETATM   18  C   UNL     1     -41.807  53.787 -53.877  1.00  0.00    -0.035 A 
HETATM   19  C   UNL     1     -41.353  52.758 -54.723  1.00  0.00     0.009 A 
HETATM   20  C   UNL     1     -40.359  51.872 -54.307  1.00  0.00     0.001 A 
HETATM   21  C   UNL     1     -39.799  52.002 -53.039  1.00  0.00     0.000 A 
HETATM   22  C   UNL     1     -40.233  53.016 -52.189  1.00  0.00     0.001 A 
HETATM   23  C   UNL     1     -41.230  53.903 -52.603  1.00  0.00     0.009 A 
ENDBRANCH   7  18
ENDBRANCH   6   7
ENDBRANCH   1   6
BRANCH   2  24
HETATM   24  C   UNL     1     -42.304  58.749 -52.715  1.00  0.00     0.043 A 
HETATM   25  C   UNL     1     -42.502  59.224 -51.412  1.00  0.00     0.033 A 
HETATM   26  C   UNL     1     -41.401  59.512 -50.603  1.00  0.00     0.044 A 
HETATM   27  C   UNL     1     -40.115  59.335 -51.100  1.00  0.00     0.116 A 
HETATM   28  F   UNL     1     -39.062  59.613 -50.323  1.00  0.00    -0.206 F 
HETATM   29  C   UNL     1     -39.906  58.875 -52.395  1.00  0.00     0.044 A 
HETATM   30  C   UNL     1     -41.001  58.582 -53.211  1.00  0.00     0.033 A 
ENDBRANCH   2  24
BRANCH   3  31
HETATM   31  C   UNL     1     -43.875  60.776 -54.540  1.00  0.00     0.315 C 
BRANCH  31  32
HETATM   32  N   UNL     1     -43.352  60.987 -55.959  1.00  0.00    -0.064 N 
HETATM   33  H   UNL     1     -44.101  60.608 -56.565  1.00  0.00     0.280 HD
HETATM   34  C   UNL     1     -43.226  62.452 -56.309  1.00  0.00     0.235 C 
HETATM   35  C   UNL     1     -42.851  62.598 -57.776  1.00  0.00     0.028 C 
HETATM   36  C   UNL     1     -41.582  61.823 -58.109  1.00  0.00     0.003 C 
HETATM   37  C   UNL     1     -41.711  60.359 -57.701  1.00  0.00     0.028 C 
HETATM   38  C   UNL     1     -42.093  60.212 -56.236  1.00  0.00     0.235 C 
ENDBRANCH  31  32
ENDBRANCH   3  31
TORSDOF 8
ENDMDL
MODEL 6
REMARK VINA RESULT:      -7.6      3.811      8.531
REMARK  8 active torsions:
REMARK  status: ('A' for Active; 'I' for Inactive)
REMARK    1  A    between atoms: C_2  and  N_3 
REMARK       I    between atoms: N_3  and  C_4 
REMARK       I    between atoms: C_4  and  N_5 
REMARK       I    between atoms: N_5  and  C_6 
REMARK    2  A    between atoms: C_6  and  C_7 
REMARK    3  A    between atoms: C_7  and  S_8 
REMARK    4  A    between atoms: C_7  and  C_29 
REMARK    5  A    between atoms: S_8  and  C_9 
REMARK    6  A    between atoms: N_10  and  C_11 
REMARK    7  A    between atoms: C_18  and  C_19 
REMARK    8  A    between atoms: C_19  and  N_20 
ROOT
HETATM    1  C   UNL     1     -42.650  57.045 -55.965  1.00  0.00     0.197 A 
HETATM    2  N   UNL     1     -42.514  56.639 -54.649  1.00  0.00    -0.274 N 
HETATM    3  C   UNL     1     -42.647  55.257 -54.718  1.00  0.00     0.161 A 
HETATM    4  N   UNL     1     -42.810  54.885 -55.973  1.00  0.00    -0.132 NA
HETATM    5  N   UNL     1     -42.795  56.000 -56.749  1.00  0.00    -0.122 NA
ENDROOT
BRANCH   1   6
HETATM    6  S   UNL     1     -42.388  58.645 -56.569  1.00  0.00    -0.070 SA
BRANCH   6   7
HETATM    7  C   UNL     1     -42.582  58.442 -58.382  1.00  0.00     0.180 C 
BRANCH   7   8
HETATM    8  C   UNL     1     -43.935  57.852 -58.815  1.00  0.00     0.244 C 
HETATM    9  N   UNL     1     -43.909  56.678 -59.543  1.00  0.00    -0.278 N 
HETATM   10  C   UNL     1     -44.870  56.202 -60.394  1.00  0.00     0.322 C 
HETATM   11  H   UNL     1     -43.009  56.268 -59.755  1.00  0.00     0.173 HD
HETATM   12  N   UNL     1     -46.121  56.709 -60.233  1.00  0.00    -0.343 N 
HETATM   13  O   UNL     1     -44.559  55.389 -61.261  1.00  0.00    -0.247 OA
HETATM   14  H   UNL     1     -46.268  57.360 -59.464  1.00  0.00     0.164 HD
HETATM   15  O   UNL     1     -44.993  58.357 -58.428  1.00  0.00    -0.271 OA
BRANCH  12  16
HETATM   16  C   UNL     1     -47.237  56.352 -61.080  1.00  0.00     0.120 C 
HETATM   17  C   UNL     1     -47.958  57.570 -61.629  1.00  0.00     0.026 C 
ENDBRANCH  12  16
ENDBRANCH   7   8
BRANCH   7  18
HETATM   18  C   UNL     1     -42.112  59.658 -59.167  1.00  0.00    -0.035 A 
HETATM   19  C   UNL     1     -42.232  59.657 -60.570  1.00  0.00     0.009 A 
HETATM   20  C   UNL     1     -41.781  60.737 -61.330  1.00  0.00     0.001 A 
HETATM   21  C   UNL     1     -41.206  61.837 -60.701  1.00  0.00     0.000 A 
HETATM   22  C   UNL     1     -41.082  61.858 -59.314  1.00  0.00     0.001 A 
HETATM   23  C   UNL     1     -41.530  60.777 -58.551  1.00  0.00     0.009 A 
ENDBRANCH   7  18
ENDBRANCH   6   7
ENDBRANCH   1   6
BRANCH   2  24
HETATM   24  C   UNL     1     -42.311  57.424 -53.488  1.00  0.00     0.043 A 
HETATM   25  C   UNL     1     -41.010  57.704 -53.048  1.00  0.00     0.033 A 
HETATM   26  C   UNL     1     -40.816  58.485 -51.907  1.00  0.00     0.044 A 
HETATM   27  C   UNL     1     -41.916  58.971 -51.209  1.00  0.00     0.116 A 
HETATM   28  F   UNL     1     -41.727  59.717 -50.115  1.00  0.00    -0.206 F 
HETATM   29  C   UNL     1     -43.210  58.689 -51.629  1.00  0.00     0.044 A 
HETATM   30  C   UNL     1     -43.415  57.912 -52.772  1.00  0.00     0.033 A 
ENDBRANCH   2  24
BRANCH   3  31
HETATM   31  C   UNL     1     -42.778  54.312 -53.577  1.00  0.00     0.315 C 
BRANCH  31  32
HETATM   32  N   UNL     1     -41.433  53.667 -53.248  1.00  0.00    -0.064 N 
HETATM   33  H   UNL     1     -40.735  54.378 -53.528  1.00  0.00     0.280 HD
HETATM   34  C   UNL     1     -41.249  53.459 -51.762  1.00  0.00     0.235 C 
HETATM   35  C   UNL     1     -39.839  52.960 -51.485  1.00  0.00     0.028 C 
HETATM   36  C   UNL     1     -39.526  51.698 -52.280  1.00  0.00     0.003 C 
HETATM   37  C   UNL     1     -39.766  51.915 -53.770  1.00  0.00     0.028 C 
HETATM   38  C   UNL     1     -41.174  52.421 -54.048  1.00  0.00     0.235 C 
ENDBRANCH  31  32
ENDBRANCH   3  31
TORSDOF 8
ENDMDL
MODEL 7
REMARK VINA RESULT:      -7.4      3.029      7.180
REMARK  8 active torsions:
REMARK  status: ('A' for Active; 'I' for Inactive)
REMARK    1  A    between atoms: C_2  and  N_3 
REMARK       I    between atoms: N_3  and  C_4 
REMARK       I    between atoms: C_4  and  N_5 
REMARK       I    between atoms: N_5  and  C_6 
REMARK    2  A    between atoms: C_6  and  C_7 
REMARK    3  A    between atoms: C_7  and  S_8 
REMARK    4  A    between atoms: C_7  and  C_29 
REMARK    5  A    between atoms: S_8  and  C_9 
REMARK    6  A    between atoms: N_10  and  C_11 
REMARK    7  A    between atoms: C_18  and  C_19 
REMARK    8  A    between atoms: C_19  and  N_20 
ROOT
HETATM    1  C   UNL     1     -43.780  57.487 -52.875  1.00  0.00     0.197 A 
HETATM    2  N   UNL     1     -43.160  58.696 -52.609  1.00  0.00    -0.274 N 
HETATM    3  C   UNL     1     -44.042  59.636 -53.129  1.00  0.00     0.161 A 
HETATM    4  N   UNL     1     -45.103  59.029 -53.625  1.00  0.00    -0.132 NA
HETATM    5  N   UNL     1     -44.943  57.691 -53.450  1.00  0.00    -0.122 NA
ENDROOT
BRANCH   1   6
HETATM    6  S   UNL     1     -43.273  55.936 -52.300  1.00  0.00    -0.070 SA
BRANCH   6   7
HETATM    7  C   UNL     1     -42.723  55.084 -53.829  1.00  0.00     0.180 C 
BRANCH   7   8
HETATM    8  C   UNL     1     -42.409  56.026 -55.004  1.00  0.00     0.244 C 
HETATM    9  N   UNL     1     -43.432  56.293 -55.892  1.00  0.00    -0.278 N 
HETATM   10  C   UNL     1     -43.323  56.703 -57.194  1.00  0.00     0.322 C 
HETATM   11  H   UNL     1     -44.331  55.858 -55.729  1.00  0.00     0.173 HD
HETATM   12  N   UNL     1     -42.141  57.270 -57.549  1.00  0.00    -0.343 N 
HETATM   13  O   UNL     1     -44.259  56.510 -57.967  1.00  0.00    -0.247 OA
HETATM   14  H   UNL     1     -41.445  57.401 -56.817  1.00  0.00     0.164 HD
HETATM   15  O   UNL     1     -41.317  56.598 -55.075  1.00  0.00    -0.271 OA
BRANCH  12  16
HETATM   16  C   UNL     1     -41.843  57.710 -58.894  1.00  0.00     0.120 C 
HETATM   17  C   UNL     1     -42.178  59.175 -59.110  1.00  0.00     0.026 C 
ENDBRANCH  12  16
ENDBRANCH   7   8
BRANCH   7  18
HETATM   18  C   UNL     1     -41.692  53.997 -53.563  1.00  0.00    -0.035 A 
HETATM   19  C   UNL     1     -41.379  53.084 -54.587  1.00  0.00     0.009 A 
HETATM   20  C   UNL     1     -40.466  52.051 -54.373  1.00  0.00     0.001 A 
HETATM   21  C   UNL     1     -39.849  51.915 -53.133  1.00  0.00     0.000 A 
HETATM   22  C   UNL     1     -40.144  52.810 -52.109  1.00  0.00     0.001 A 
HETATM   23  C   UNL     1     -41.059  53.844 -52.320  1.00  0.00     0.009 A 
ENDBRANCH   7  18
ENDBRANCH   6   7
ENDBRANCH   1   6
BRANCH   2  24
HETATM   24  C   UNL     1     -41.916  58.943 -51.979  1.00  0.00     0.043 A 
HETATM   25  C   UNL     1     -41.873  59.302 -50.625  1.00  0.00     0.033 A 
HETATM   26  C   UNL     1     -40.643  59.538 -50.008  1.00  0.00     0.044 A 
HETATM   27  C   UNL     1     -39.470  59.424 -50.745  1.00  0.00     0.116 A 
HETATM   28  F   UNL     1     -38.292  59.653 -50.152  1.00  0.00    -0.206 F 
HETATM   29  C   UNL     1     -39.501  59.081 -52.091  1.00  0.00     0.044 A 
HETATM   30  C   UNL     1     -40.726  58.840 -52.717  1.00  0.00     0.033 A 
ENDBRANCH   2  24
BRANCH   3  31
HETATM   31  C   UNL     1     -43.800  61.094 -53.297  1.00  0.00     0.315 C 
BRANCH  31  32
HETATM   32  N   UNL     1     -44.252  61.866 -52.060  1.00  0.00    -0.064 N 
HETATM   33  H   UNL     1     -44.533  61.129 -51.389  1.00  0.00     0.280 HD
HETATM   34  C   UNL     1     -43.113  62.617 -51.408  1.00  0.00     0.235 C 
HETATM   35  C   UNL     1     -43.588  63.236 -50.103  1.00  0.00     0.028 C 
HETATM   36  C   UNL     1     -44.807  64.126 -50.316  1.00  0.00     0.003 C 
HETATM   37  C   UNL     1     -45.925  63.364 -51.020  1.00  0.00     0.028 C 
HETATM   38  C   UNL     1     -45.449  62.737 -52.322  1.00  0.00     0.235 C 
ENDBRANCH  31  32
ENDBRANCH   3  31
TORSDOF 8
ENDMDL
MODEL 8
REMARK VINA RESULT:      -7.3      2.604      3.178
REMARK  8 active torsions:
REMARK  status: ('A' for Active; 'I' for Inactive)
REMARK    1  A    between atoms: C_2  and  N_3 
REMARK       I    between atoms: N_3  and  C_4 
REMARK       I    between atoms: C_4  and  N_5 
REMARK       I    between atoms: N_5  and  C_6 
REMARK    2  A    between atoms: C_6  and  C_7 
REMARK    3  A    between atoms: C_7  and  S_8 
REMARK    4  A    between atoms: C_7  and  C_29 
REMARK    5  A    between atoms: S_8  and  C_9 
REMARK    6  A    between atoms: N_10  and  C_11 
REMARK    7  A    between atoms: C_18  and  C_19 
REMARK    8  A    between atoms: C_19  and  N_20 
ROOT
HETATM    1  C   UNL     1     -43.555  56.543 -53.472  1.00  0.00     0.197 A 
HETATM    2  N   UNL     1     -42.812  56.069 -54.539  1.00  0.00    -0.274 N 
HETATM    3  C   UNL     1     -43.079  56.980 -55.555  1.00  0.00     0.161 A 
HETATM    4  N   UNL     1     -43.881  57.927 -55.107  1.00  0.00    -0.132 NA
HETATM    5  N   UNL     1     -44.163  57.659 -53.804  1.00  0.00    -0.122 NA
ENDROOT
BRANCH   1   6
HETATM    6  S   UNL     1     -43.495  55.952 -51.847  1.00  0.00    -0.070 SA
BRANCH   6   7
HETATM    7  C   UNL     1     -41.699  55.940 -51.475  1.00  0.00     0.180 C 
BRANCH   7   8
HETATM    8  C   UNL     1     -41.137  57.292 -51.007  1.00  0.00     0.244 C 
HETATM    9  N   UNL     1     -40.484  58.066 -51.948  1.00  0.00    -0.278 N 
HETATM   10  C   UNL     1     -39.550  59.041 -51.725  1.00  0.00     0.322 C 
HETATM   11  H   UNL     1     -40.406  57.706 -52.890  1.00  0.00     0.173 HD
HETATM   12  N   UNL     1     -39.527  59.578 -50.477  1.00  0.00    -0.343 N 
HETATM   13  O   UNL     1     -38.773  59.350 -52.625  1.00  0.00    -0.247 OA
HETATM   14  H   UNL     1     -40.235  59.262 -49.817  1.00  0.00     0.164 HD
HETATM   15  O   UNL     1     -41.363  57.706 -49.866  1.00  0.00    -0.271 OA
BRANCH  12  16
HETATM   16  C   UNL     1     -38.571  60.580 -50.060  1.00  0.00     0.120 C 
HETATM   17  C   UNL     1     -37.455  59.996 -49.214  1.00  0.00     0.026 C 
ENDBRANCH  12  16
ENDBRANCH   7   8
BRANCH   7  18
HETATM   18  C   UNL     1     -41.273  54.731 -50.655  1.00  0.00    -0.035 A 
HETATM   19  C   UNL     1     -40.875  53.556 -51.321  1.00  0.00     0.009 A 
HETATM   20  C   UNL     1     -40.511  52.414 -50.607  1.00  0.00     0.001 A 
HETATM   21  C   UNL     1     -40.535  52.428 -49.216  1.00  0.00     0.000 A 
HETATM   22  C   UNL     1     -40.923  53.581 -48.539  1.00  0.00     0.001 A 
HETATM   23  C   UNL     1     -41.291  54.725 -49.252  1.00  0.00     0.009 A 
ENDBRANCH   7  18
ENDBRANCH   6   7
ENDBRANCH   1   6
BRANCH   2  24
HETATM   24  C   UNL     1     -41.986  54.920 -54.613  1.00  0.00     0.043 A 
HETATM   25  C   UNL     1     -40.603  55.060 -54.788  1.00  0.00     0.033 A 
HETATM   26  C   UNL     1     -39.794  53.924 -54.853  1.00  0.00     0.044 A 
HETATM   27  C   UNL     1     -40.367  52.662 -54.753  1.00  0.00     0.116 A 
HETATM   28  F   UNL     1     -39.590  51.575 -54.818  1.00  0.00    -0.206 F 
HETATM   29  C   UNL     1     -41.740  52.511 -54.592  1.00  0.00     0.044 A 
HETATM   30  C   UNL     1     -42.558  53.641 -54.523  1.00  0.00     0.033 A 
ENDBRANCH   2  24
BRANCH   3  31
HETATM   31  C   UNL     1     -42.700  56.861 -56.988  1.00  0.00     0.315 C 
BRANCH  31  32
HETATM   32  N   UNL     1     -43.908  56.482 -57.841  1.00  0.00    -0.064 N 
HETATM   33  H   UNL     1     -44.545  56.003 -57.180  1.00  0.00     0.280 HD
HETATM   34  C   UNL     1     -44.655  57.696 -58.343  1.00  0.00     0.235 C 
HETATM   35  C   UNL     1     -45.928  57.257 -59.052  1.00  0.00     0.028 C 
HETATM   36  C   UNL     1     -45.632  56.268 -60.172  1.00  0.00     0.003 C 
HETATM   37  C   UNL     1     -44.834  55.076 -59.654  1.00  0.00     0.028 C 
HETATM   38  C   UNL     1     -43.564  55.513 -58.938  1.00  0.00     0.235 C 
ENDBRANCH  31  32
ENDBRANCH   3  31
TORSDOF 8
ENDMDL
MODEL 9
REMARK VINA RESULT:      -7.3      3.175      5.360
REMARK  8 active torsions:
REMARK  status: ('A' for Active; 'I' for Inactive)
REMARK    1  A    between atoms: C_2  and  N_3 
REMARK       I    between atoms: N_3  and  C_4 
REMARK       I    between atoms: C_4  and  N_5 
REMARK       I    between atoms: N_5  and  C_6 
REMARK    2  A    between atoms: C_6  and  C_7 
REMARK    3  A    between atoms: C_7  and  S_8 
REMARK    4  A    between atoms: C_7  and  C_29 
REMARK    5  A    between atoms: S_8  and  C_9 
REMARK    6  A    between atoms: N_10  and  C_11 
REMARK    7  A    between atoms: C_18  and  C_19 
REMARK    8  A    between atoms: C_19  and  N_20 
ROOT
HETATM    1  C   UNL     1     -44.204  57.772 -52.480  1.00  0.00     0.197 A 
HETATM    2  N   UNL     1     -43.662  56.501 -52.403  1.00  0.00    -0.274 N 
HETATM    3  C   UNL     1     -44.121  56.023 -51.181  1.00  0.00     0.161 A 
HETATM    4  N   UNL     1     -44.895  56.926 -50.609  1.00  0.00    -0.132 NA
HETATM    5  N   UNL     1     -44.957  58.008 -51.430  1.00  0.00    -0.122 NA
ENDROOT
BRANCH   1   6
HETATM    6  S   UNL     1     -44.160  58.816 -53.859  1.00  0.00    -0.070 SA
BRANCH   6   7
HETATM    7  C   UNL     1     -43.244  60.282 -53.243  1.00  0.00     0.180 C 
BRANCH   7   8
HETATM    8  C   UNL     1     -44.129  61.359 -52.595  1.00  0.00     0.244 C 
HETATM    9  N   UNL     1     -44.663  61.078 -51.352  1.00  0.00    -0.278 N 
HETATM   10  C   UNL     1     -45.779  61.625 -50.779  1.00  0.00     0.322 C 
HETATM   11  H   UNL     1     -44.448  60.182 -50.933  1.00  0.00     0.173 HD
HETATM   12  N   UNL     1     -46.193  62.816 -51.285  1.00  0.00    -0.343 N 
HETATM   13  O   UNL     1     -46.358  61.013 -49.885  1.00  0.00    -0.247 OA
HETATM   14  H   UNL     1     -45.620  63.242 -52.011  1.00  0.00     0.164 HD
HETATM   15  O   UNL     1     -44.259  62.467 -53.125  1.00  0.00    -0.271 OA
BRANCH  12  16
HETATM   16  C   UNL     1     -47.381  63.503 -50.829  1.00  0.00     0.120 C 
HETATM   17  C   UNL     1     -48.547  63.339 -51.788  1.00  0.00     0.026 C 
ENDBRANCH  12  16
ENDBRANCH   7   8
BRANCH   7  18
HETATM   18  C   UNL     1     -41.986  59.911 -52.471  1.00  0.00    -0.035 A 
HETATM   19  C   UNL     1     -40.892  59.362 -53.166  1.00  0.00     0.009 A 
HETATM   20  C   UNL     1     -39.734  58.977 -52.492  1.00  0.00     0.001 A 
HETATM   21  C   UNL     1     -39.647  59.137 -51.111  1.00  0.00     0.000 A 
HETATM   22  C   UNL     1     -40.718  59.681 -50.407  1.00  0.00     0.001 A 
HETATM   23  C   UNL     1     -41.880  60.066 -51.080  1.00  0.00     0.009 A 
ENDBRANCH   7  18
ENDBRANCH   6   7
ENDBRANCH   1   6
BRANCH   2  24
HETATM   24  C   UNL     1     -42.821  55.831 -53.324  1.00  0.00     0.043 A 
HETATM   25  C   UNL     1     -41.463  56.167 -53.409  1.00  0.00     0.033 A 
HETATM   26  C   UNL     1     -40.637  55.497 -54.314  1.00  0.00     0.044 A 
HETATM   27  C   UNL     1     -41.170  54.507 -55.131  1.00  0.00     0.116 A 
HETATM   28  F   UNL     1     -40.377  53.868 -55.999  1.00  0.00    -0.206 F 
HETATM   29  C   UNL     1     -42.518  54.174 -55.064  1.00  0.00     0.044 A 
HETATM   30  C   UNL     1     -43.352  54.836 -54.160  1.00  0.00     0.033 A 
ENDBRANCH   2  24
BRANCH   3  31
HETATM   31  C   UNL     1     -43.695  54.778 -50.489  1.00  0.00     0.315 C 
BRANCH  31  32
HETATM   32  N   UNL     1     -42.187  54.572 -50.618  1.00  0.00    -0.064 N 
HETATM   33  H   UNL     1     -41.884  55.316 -51.271  1.00  0.00     0.280 HD
HETATM   34  C   UNL     1     -41.462  54.833 -49.317  1.00  0.00     0.235 C 
HETATM   35  C   UNL     1     -39.960  54.764 -49.544  1.00  0.00     0.028 C 
HETATM   36  C   UNL     1     -39.549  53.436 -50.168  1.00  0.00     0.003 C 
HETATM   37  C   UNL     1     -40.328  53.168 -51.451  1.00  0.00     0.028 C 
HETATM   38  C   UNL     1     -41.832  53.244 -51.227  1.00  0.00     0.235 C 
ENDBRANCH  31  32
ENDBRANCH   3  31
TORSDOF 8
ENDMDL
MODEL 10
REMARK VINA RESULT:      -7.2      3.595      5.428
REMARK  8 active torsions:
REMARK  status: ('A' for Active; 'I' for Inactive)
REMARK    1  A    between atoms: C_2  and  N_3 
REMARK       I    between atoms: N_3  and  C_4 
REMARK       I    between atoms: C_4  and  N_5 
REMARK       I    between atoms: N_5  and  C_6 
REMARK    2  A    between atoms: C_6  and  C_7 
REMARK    3  A    between atoms: C_7  and  S_8 
REMARK    4  A    between atoms: C_7  and  C_29 
REMARK    5  A    between atoms: S_8  and  C_9 
REMARK    6  A    between atoms: N_10  and  C_11 
REMARK    7  A    between atoms: C_18  and  C_19 
REMARK    8  A    between atoms: C_19  and  N_20 
ROOT
HETATM    1  C   UNL     1     -42.537  58.013 -56.807  1.00  0.00     0.197 A 
HETATM    2  N   UNL     1     -43.333  58.502 -57.828  1.00  0.00    -0.274 N 
HETATM    3  C   UNL     1     -42.808  59.765 -58.076  1.00  0.00     0.161 A 
HETATM    4  N   UNL     1     -41.770  59.980 -57.291  1.00  0.00    -0.132 NA
HETATM    5  N   UNL     1     -41.595  58.880 -56.513  1.00  0.00    -0.122 NA
ENDROOT
BRANCH   1   6
HETATM    6  S   UNL     1     -42.561  56.400 -56.182  1.00  0.00    -0.070 SA
BRANCH   6   7
HETATM    7  C   UNL     1     -41.351  56.470 -54.804  1.00  0.00     0.180 C 
BRANCH   7   8
HETATM    8  C   UNL     1     -41.643  57.555 -53.755  1.00  0.00     0.244 C 
HETATM    9  N   UNL     1     -40.599  58.383 -53.392  1.00  0.00    -0.278 N 
HETATM   10  C   UNL     1     -40.460  59.092 -52.229  1.00  0.00     0.322 C 
HETATM   11  H   UNL     1     -39.699  58.235 -53.830  1.00  0.00     0.173 HD
HETATM   12  N   UNL     1     -41.599  59.322 -51.525  1.00  0.00    -0.343 N 
HETATM   13  O   UNL     1     -39.340  59.444 -51.868  1.00  0.00    -0.247 OA
HETATM   14  H   UNL     1     -42.476  59.004 -51.934  1.00  0.00     0.164 HD
HETATM   15  O   UNL     1     -42.794  57.737 -53.345  1.00  0.00    -0.271 OA
BRANCH  12  16
HETATM   16  C   UNL     1     -41.621  60.009 -50.252  1.00  0.00     0.120 C 
HETATM   17  C   UNL     1     -42.779  60.985 -50.144  1.00  0.00     0.026 C 
ENDBRANCH  12  16
ENDBRANCH   7   8
BRANCH   7  18
HETATM   18  C   UNL     1     -41.003  55.096 -54.252  1.00  0.00    -0.035 A 
HETATM   19  C   UNL     1     -40.467  54.124 -55.119  1.00  0.00     0.009 A 
HETATM   20  C   UNL     1     -40.167  52.841 -54.661  1.00  0.00     0.001 A 
HETATM   21  C   UNL     1     -40.395  52.508 -53.329  1.00  0.00     0.000 A 
HETATM   22  C   UNL     1     -40.922  53.456 -52.456  1.00  0.00     0.001 A 
HETATM   23  C   UNL     1     -41.225  54.741 -52.913  1.00  0.00     0.009 A 
ENDBRANCH   7  18
ENDBRANCH   6   7
ENDBRANCH   1   6
BRANCH   2  24
HETATM   24  C   UNL     1     -44.439  57.893 -58.470  1.00  0.00     0.043 A 
HETATM   25  C   UNL     1     -44.236  57.054 -59.574  1.00  0.00     0.033 A 
HETATM   26  C   UNL     1     -45.329  56.450 -60.198  1.00  0.00     0.044 A 
HETATM   27  C   UNL     1     -46.613  56.693 -59.725  1.00  0.00     0.116 A 
HETATM   28  F   UNL     1     -47.660  56.115 -60.325  1.00  0.00    -0.206 F 
HETATM   29  C   UNL     1     -46.828  57.533 -58.638  1.00  0.00     0.044 A 
HETATM   30  C   UNL     1     -45.740  58.139 -58.005  1.00  0.00     0.033 A 
ENDBRANCH   2  24
BRANCH   3  31
HETATM   31  C   UNL     1     -43.390  60.823 -58.945  1.00  0.00     0.315 C 
BRANCH  31  32
HETATM   32  N   UNL     1     -42.516  61.060 -60.173  1.00  0.00    -0.064 N 
HETATM   33  H   UNL     1     -41.858  60.260 -60.176  1.00  0.00     0.280 HD
HETATM   34  C   UNL     1     -43.303  60.963 -61.461  1.00  0.00     0.235 C 
HETATM   35  C   UNL     1     -42.356  61.054 -62.648  1.00  0.00     0.028 C 
HETATM   36  C   UNL     1     -41.509  62.320 -62.593  1.00  0.00     0.003 C 
HETATM   37  C   UNL     1     -40.764  62.423 -61.267  1.00  0.00     0.028 C 
HETATM   38  C   UNL     1     -41.708  62.325 -60.078  1.00  0.00     0.235 C 
ENDBRANCH  31  32
ENDBRANCH   3  31
TORSDOF 8
ENDMDL
