MODEL 1
REMARK VINA RESULT:      -7.7      0.000      0.000
REMARK  7 active torsions:
REMARK  status: ('A' for Active; 'I' for Inactive)
REMARK    1  A    between atoms: O_2  and  C_3 
REMARK    2  A    between atoms: C_4  and  O_5 
REMARK    3  A    between atoms: O_5  and  C_6 
REMARK       I    between atoms: C_6  and  N_7 
REMARK    4  A    between atoms: C_14  and  O_15 
REMARK    5  A    between atoms: C_18  and  C_19 
REMARK    6  A    between atoms: C_23  and  N_24 
REMARK    7  A    between atoms: C_31  and  C_32 
ROOT
HETATM    1  C   UNL     1     -44.433  59.946 -54.772  1.00  0.00     0.105 C 
HETATM    2  C   UNL     1     -44.746  61.073 -53.788  1.00  0.00     0.067 C 
HETATM    3  C   UNL     1     -45.918  60.855 -52.846  1.00  0.00     0.020 C 
HETATM    4  N   UNL     1     -46.889  60.675 -52.063  1.00  0.00    -0.096 N 
HETATM    5  C   UNL     1     -44.162  62.300 -53.846  1.00  0.00     0.139 C 
HETATM    6  O   UNL     1     -43.234  62.628 -54.854  1.00  0.00    -0.279 OA
HETATM    7  C   UNL     1     -43.112  61.747 -55.840  1.00  0.00     0.175 A 
HETATM    8  C   UNL     1     -43.645  60.484 -55.918  1.00  0.00     0.040 A 
HETATM    9  N   UNL     1     -42.405  61.949 -56.978  1.00  0.00    -0.256 N 
HETATM   10  H   UNL     1     -41.873  62.768 -57.251  1.00  0.00     0.191 HD
HETATM   11  N   UNL     1     -42.463  60.898 -57.817  1.00  0.00    -0.172 NA
HETATM   12  C   UNL     1     -43.253  60.001 -57.195  1.00  0.00     0.099 A 
ENDROOT
BRANCH   1  13
HETATM   13  C   UNL     1     -43.609  58.837 -54.120  1.00  0.00    -0.039 A 
HETATM   14  C   UNL     1     -42.311  59.139 -53.673  1.00  0.00     0.048 A 
HETATM   15  C   UNL     1     -41.485  58.136 -53.164  1.00  0.00     0.105 A 
HETATM   16  C   UNL     1     -41.932  56.814 -53.128  1.00  0.00     0.147 A 
HETATM   17  C   UNL     1     -43.243  56.488 -53.491  1.00  0.00     0.105 A 
HETATM   18  C   UNL     1     -44.055  57.496 -54.021  1.00  0.00     0.048 A 
BRANCH  15  19
HETATM   19  O   UNL     1     -40.208  58.431 -52.765  1.00  0.00    -0.353 OA
HETATM   20  C   UNL     1     -40.226  59.077 -51.492  1.00  0.00     0.210 C 
ENDBRANCH  15  19
BRANCH  16  21
HETATM   21  O   UNL     1     -41.044  55.829 -52.673  1.00  0.00    -0.256 OA
BRANCH  21  22
HETATM   22  C   UNL     1     -40.575  54.998 -53.688  1.00  0.00     0.368 C 
HETATM   23  N   UNL     1     -40.363  53.698 -53.251  1.00  0.00    -0.324 N 
HETATM   24  C   UNL     1     -40.273  52.634 -54.246  1.00  0.00     0.154 C 
HETATM   25  C   UNL     1     -40.666  53.256 -51.891  1.00  0.00     0.154 C 
HETATM   26  C   UNL     1     -39.431  51.459 -53.744  1.00  0.00     0.187 C 
HETATM   27  O   UNL     1     -39.884  51.006 -52.458  1.00  0.00    -0.388 OA
HETATM   28  C   UNL     1     -39.787  52.066 -51.495  1.00  0.00     0.187 C 
HETATM   29  O   UNL     1     -40.364  55.347 -54.847  1.00  0.00    -0.238 OA
ENDBRANCH  21  22
ENDBRANCH  16  21
BRANCH  17  30
HETATM   30  O   UNL     1     -43.625  55.187 -53.296  1.00  0.00    -0.353 OA
HETATM   31  C   UNL     1     -43.885  54.400 -54.451  1.00  0.00     0.210 C 
ENDBRANCH  17  30
ENDBRANCH   1  13
BRANCH   5  32
HETATM   32  N   UNL     1     -44.423  63.355 -53.005  1.00  0.00    -0.282 NA
HETATM   33  H   UNL     1     -44.777  63.125 -52.081  1.00  0.00     0.126 HD
HETATM   34  H   UNL     1     -44.930  64.108 -53.460  1.00  0.00     0.126 HD
ENDBRANCH   5  32
BRANCH  12  35
HETATM   35  C   UNL     1     -43.576  58.728 -57.832  1.00  0.00    -0.005 A 
HETATM   36  C   UNL     1     -42.802  57.591 -57.560  1.00  0.00     0.015 A 
HETATM   37  C   UNL     1     -43.088  56.372 -58.179  1.00  0.00     0.020 A 
HETATM   38  C   UNL     1     -44.147  56.288 -59.078  1.00  0.00     0.011 A 
HETATM   39 BR   UNL     1     -44.531  54.643 -59.927  1.00  0.00    -0.051 Br
HETATM   40  C   UNL     1     -44.922  57.411 -59.366  1.00  0.00     0.020 A 
HETATM   41  C   UNL     1     -44.635  58.630 -58.745  1.00  0.00     0.015 A 
ENDBRANCH  12  35
TORSDOF 7
ENDMDL
MODEL 2
REMARK VINA RESULT:      -7.6      0.625      2.262
REMARK  7 active torsions:
REMARK  status: ('A' for Active; 'I' for Inactive)
REMARK    1  A    between atoms: O_2  and  C_3 
REMARK    2  A    between atoms: C_4  and  O_5 
REMARK    3  A    between atoms: O_5  and  C_6 
REMARK       I    between atoms: C_6  and  N_7 
REMARK    4  A    between atoms: C_14  and  O_15 
REMARK    5  A    between atoms: C_18  and  C_19 
REMARK    6  A    between atoms: C_23  and  N_24 
REMARK    7  A    between atoms: C_31  and  C_32 
ROOT
HETATM    1  C   UNL     1     -44.402  59.897 -54.675  1.00  0.00     0.105 C 
HETATM    2  C   UNL     1     -44.749  61.004 -53.681  1.00  0.00     0.067 C 
HETATM    3  C   UNL     1     -45.928  60.751 -52.755  1.00  0.00     0.020 C 
HETATM    4  N   UNL     1     -46.904  60.541 -51.986  1.00  0.00    -0.096 N 
HETATM    5  C   UNL     1     -44.190  62.244 -53.717  1.00  0.00     0.139 C 
HETATM    6  O   UNL     1     -43.258  62.604 -54.710  1.00  0.00    -0.279 OA
HETATM    7  C   UNL     1     -43.106  61.738 -55.705  1.00  0.00     0.175 A 
HETATM    8  C   UNL     1     -43.612  60.466 -55.805  1.00  0.00     0.040 A 
HETATM    9  N   UNL     1     -42.391  61.969 -56.831  1.00  0.00    -0.256 N 
HETATM   10  H   UNL     1     -41.872  62.802 -57.088  1.00  0.00     0.191 HD
HETATM   11  N   UNL     1     -42.417  60.927 -57.684  1.00  0.00    -0.172 NA
HETATM   12  C   UNL     1     -43.195  60.007 -57.083  1.00  0.00     0.099 A 
ENDROOT
BRANCH   1  13
HETATM   13  C   UNL     1     -43.563  58.797 -54.027  1.00  0.00    -0.039 A 
HETATM   14  C   UNL     1     -44.009  57.467 -54.125  1.00  0.00     0.048 A 
HETATM   15  C   UNL     1     -43.331  56.442 -53.464  1.00  0.00     0.105 A 
HETATM   16  C   UNL     1     -42.222  56.736 -52.669  1.00  0.00     0.147 A 
HETATM   17  C   UNL     1     -41.704  58.034 -52.610  1.00  0.00     0.105 A 
HETATM   18  C   UNL     1     -42.403  59.058 -53.257  1.00  0.00     0.048 A 
BRANCH  15  19
HETATM   19  O   UNL     1     -43.792  55.154 -53.535  1.00  0.00    -0.353 OA
HETATM   20  C   UNL     1     -43.724  54.677 -54.878  1.00  0.00     0.210 C 
ENDBRANCH  15  19
BRANCH  16  21
HETATM   21  O   UNL     1     -41.613  55.685 -51.969  1.00  0.00    -0.256 OA
BRANCH  21  22
HETATM   22  C   UNL     1     -40.843  54.855 -52.779  1.00  0.00     0.368 C 
HETATM   23  N   UNL     1     -40.607  53.617 -52.196  1.00  0.00    -0.324 N 
HETATM   24  C   UNL     1     -40.184  52.512 -53.051  1.00  0.00     0.154 C 
HETATM   25  C   UNL     1     -41.167  53.228 -50.904  1.00  0.00     0.154 C 
HETATM   26  C   UNL     1     -39.366  51.478 -52.276  1.00  0.00     0.187 C 
HETATM   27  O   UNL     1     -40.053  51.055 -51.088  1.00  0.00    -0.388 OA
HETATM   28  C   UNL     1     -40.287  52.176 -50.222  1.00  0.00     0.187 C 
HETATM   29  O   UNL     1     -40.409  55.154 -53.889  1.00  0.00    -0.238 OA
ENDBRANCH  21  22
ENDBRANCH  16  21
BRANCH  17  30
HETATM   30  O   UNL     1     -40.538  58.195 -51.908  1.00  0.00    -0.353 OA
HETATM   31  C   UNL     1     -40.538  59.138 -50.845  1.00  0.00     0.210 C 
ENDBRANCH  17  30
ENDBRANCH   1  13
BRANCH   5  32
HETATM   32  N   UNL     1     -44.483  63.283 -52.865  1.00  0.00    -0.282 NA
HETATM   33  H   UNL     1     -45.235  63.129 -52.199  1.00  0.00     0.126 HD
HETATM   34  H   UNL     1     -44.535  64.180 -53.339  1.00  0.00     0.126 HD
ENDBRANCH   5  32
BRANCH  12  35
HETATM   35  C   UNL     1     -43.485  58.735 -57.739  1.00  0.00    -0.005 A 
HETATM   36  C   UNL     1     -44.617  58.612 -58.557  1.00  0.00     0.015 A 
HETATM   37  C   UNL     1     -44.918  57.395 -59.175  1.00  0.00     0.020 A 
HETATM   38  C   UNL     1     -44.088  56.295 -58.970  1.00  0.00     0.011 A 
HETATM   39 BR   UNL     1     -44.498  54.644 -59.795  1.00  0.00    -0.051 Br
HETATM   40  C   UNL     1     -42.963  56.400 -58.154  1.00  0.00     0.020 A 
HETATM   41  C   UNL     1     -42.663  57.618 -57.537  1.00  0.00     0.015 A 
ENDBRANCH  12  35
TORSDOF 7
ENDMDL
MODEL 3
REMARK VINA RESULT:      -6.9      3.524      8.035
REMARK  7 active torsions:
REMARK  status: ('A' for Active; 'I' for Inactive)
REMARK    1  A    between atoms: O_2  and  C_3 
REMARK    2  A    between atoms: C_4  and  O_5 
REMARK    3  A    between atoms: O_5  and  C_6 
REMARK       I    between atoms: C_6  and  N_7 
REMARK    4  A    between atoms: C_14  and  O_15 
REMARK    5  A    between atoms: C_18  and  C_19 
REMARK    6  A    between atoms: C_23  and  N_24 
REMARK    7  A    between atoms: C_31  and  C_32 
ROOT
HETATM    1  C   UNL     1     -42.189  58.343 -52.522  1.00  0.00     0.105 C 
HETATM    2  C   UNL     1     -41.498  57.921 -51.226  1.00  0.00     0.067 C 
HETATM    3  C   UNL     1     -40.325  58.771 -50.766  1.00  0.00     0.020 C 
HETATM    4  N   UNL     1     -39.352  59.475 -50.383  1.00  0.00    -0.096 N 
HETATM    5  C   UNL     1     -41.755  56.746 -50.590  1.00  0.00     0.139 C 
HETATM    6  O   UNL     1     -42.671  55.811 -51.109  1.00  0.00    -0.279 OA
HETATM    7  C   UNL     1     -43.118  56.056 -52.336  1.00  0.00     0.175 A 
HETATM    8  C   UNL     1     -42.933  57.185 -53.095  1.00  0.00     0.040 A 
HETATM    9  N   UNL     1     -43.868  55.203 -53.073  1.00  0.00    -0.256 N 
HETATM   10  H   UNL     1     -44.202  54.278 -52.820  1.00  0.00     0.191 HD
HETATM   11  N   UNL     1     -44.169  55.695 -54.290  1.00  0.00    -0.172 NA
HETATM   12  C   UNL     1     -43.570  56.901 -54.333  1.00  0.00     0.099 A 
ENDROOT
BRANCH   1  13
HETATM   13  C   UNL     1     -43.192  59.472 -52.287  1.00  0.00    -0.039 A 
HETATM   14  C   UNL     1     -43.129  60.608 -53.113  1.00  0.00     0.048 A 
HETATM   15  C   UNL     1     -43.957  61.705 -52.872  1.00  0.00     0.105 A 
HETATM   16  C   UNL     1     -44.831  61.696 -51.784  1.00  0.00     0.147 A 
HETATM   17  C   UNL     1     -44.977  60.555 -50.988  1.00  0.00     0.105 A 
HETATM   18  C   UNL     1     -44.127  59.469 -51.223  1.00  0.00     0.048 A 
BRANCH  15  19
HETATM   19  O   UNL     1     -43.865  62.824 -53.658  1.00  0.00    -0.353 OA
HETATM   20  C   UNL     1     -44.203  62.508 -55.008  1.00  0.00     0.210 C 
ENDBRANCH  15  19
BRANCH  16  21
HETATM   21  O   UNL     1     -45.594  62.847 -51.539  1.00  0.00    -0.256 OA
BRANCH  21  22
HETATM   22  C   UNL     1     -46.912  62.739 -51.977  1.00  0.00     0.368 C 
HETATM   23  N   UNL     1     -47.817  63.264 -51.064  1.00  0.00    -0.324 N 
HETATM   24  C   UNL     1     -49.159  63.600 -51.528  1.00  0.00     0.154 C 
HETATM   25  C   UNL     1     -47.406  63.910 -49.819  1.00  0.00     0.154 C 
HETATM   26  C   UNL     1     -50.183  63.530 -50.394  1.00  0.00     0.187 C 
HETATM   27  O   UNL     1     -49.758  64.301 -49.259  1.00  0.00    -0.388 OA
HETATM   28  C   UNL     1     -48.508  63.803 -48.760  1.00  0.00     0.187 C 
HETATM   29  O   UNL     1     -47.265  62.242 -53.044  1.00  0.00    -0.238 OA
ENDBRANCH  21  22
ENDBRANCH  16  21
BRANCH  17  30
HETATM   30  O   UNL     1     -45.952  60.601 -50.028  1.00  0.00    -0.353 OA
HETATM   31  C   UNL     1     -45.548  60.884 -48.695  1.00  0.00     0.210 C 
ENDBRANCH  17  30
ENDBRANCH   1  13
BRANCH   5  32
HETATM   32  N   UNL     1     -41.146  56.306 -49.439  1.00  0.00    -0.282 NA
HETATM   33  H   UNL     1     -40.154  56.501 -49.343  1.00  0.00     0.126 HD
HETATM   34  H   UNL     1     -41.400  55.352 -49.197  1.00  0.00     0.126 HD
ENDBRANCH   5  32
BRANCH  12  35
HETATM   35  C   UNL     1     -43.649  57.727 -55.534  1.00  0.00    -0.005 A 
HETATM   36  C   UNL     1     -42.587  57.735 -56.450  1.00  0.00     0.015 A 
HETATM   37  C   UNL     1     -42.641  58.538 -57.592  1.00  0.00     0.020 A 
HETATM   38  C   UNL     1     -43.756  59.340 -57.819  1.00  0.00     0.011 A 
HETATM   39 BR   UNL     1     -43.828  60.436 -59.358  1.00  0.00    -0.051 Br
HETATM   40  C   UNL     1     -44.816  59.350 -56.914  1.00  0.00     0.020 A 
HETATM   41  C   UNL     1     -44.762  58.546 -55.771  1.00  0.00     0.015 A 
ENDBRANCH  12  35
TORSDOF 7
ENDMDL
MODEL 4
REMARK VINA RESULT:      -6.9      3.068      5.043
REMARK  7 active torsions:
REMARK  status: ('A' for Active; 'I' for Inactive)
REMARK    1  A    between atoms: O_2  and  C_3 
REMARK    2  A    between atoms: C_4  and  O_5 
REMARK    3  A    between atoms: O_5  and  C_6 
REMARK       I    between atoms: C_6  and  N_7 
REMARK    4  A    between atoms: C_14  and  O_15 
REMARK    5  A    between atoms: C_18  and  C_19 
REMARK    6  A    between atoms: C_23  and  N_24 
REMARK    7  A    between atoms: C_31  and  C_32 
ROOT
HETATM    1  C   UNL     1     -43.804  58.867 -57.875  1.00  0.00     0.105 C 
HETATM    2  C   UNL     1     -43.871  57.879 -59.039  1.00  0.00     0.067 C 
HETATM    3  C   UNL     1     -42.566  57.574 -59.755  1.00  0.00     0.020 C 
HETATM    4  N   UNL     1     -41.483  57.320 -60.350  1.00  0.00    -0.096 N 
HETATM    5  C   UNL     1     -45.038  57.422 -59.567  1.00  0.00     0.139 C 
HETATM    6  O   UNL     1     -46.287  57.862 -59.085  1.00  0.00    -0.279 OA
HETATM    7  C   UNL     1     -46.255  58.876 -58.228  1.00  0.00     0.175 A 
HETATM    8  C   UNL     1     -45.158  59.440 -57.624  1.00  0.00     0.040 A 
HETATM    9  N   UNL     1     -47.342  59.548 -57.781  1.00  0.00    -0.256 N 
HETATM   10  H   UNL     1     -48.317  59.393 -58.012  1.00  0.00     0.191 HD
HETATM   11  N   UNL     1     -47.022  60.544 -56.932  1.00  0.00    -0.172 NA
HETATM   12  C   UNL     1     -45.678  60.514 -56.854  1.00  0.00     0.099 A 
ENDROOT
BRANCH   1  13
HETATM   13  C   UNL     1     -43.337  58.192 -56.586  1.00  0.00    -0.039 A 
HETATM   14  C   UNL     1     -42.392  58.857 -55.785  1.00  0.00     0.048 A 
HETATM   15  C   UNL     1     -41.861  58.237 -54.653  1.00  0.00     0.105 A 
HETATM   16  C   UNL     1     -42.241  56.934 -54.326  1.00  0.00     0.147 A 
HETATM   17  C   UNL     1     -43.236  56.272 -55.053  1.00  0.00     0.105 A 
HETATM   18  C   UNL     1     -43.745  56.892 -56.199  1.00  0.00     0.048 A 
BRANCH  15  19
HETATM   19  O   UNL     1     -40.913  58.876 -53.898  1.00  0.00    -0.353 OA
HETATM   20  C   UNL     1     -41.531  59.815 -53.019  1.00  0.00     0.210 C 
ENDBRANCH  15  19
BRANCH  16  21
HETATM   21  O   UNL     1     -41.632  56.326 -53.220  1.00  0.00    -0.256 OA
BRANCH  21  22
HETATM   22  C   UNL     1     -40.770  55.287 -53.567  1.00  0.00     0.368 C 
HETATM   23  N   UNL     1     -40.750  54.276 -52.616  1.00  0.00    -0.324 N 
HETATM   24  C   UNL     1     -40.239  52.965 -53.002  1.00  0.00     0.154 C 
HETATM   25  C   UNL     1     -41.594  54.291 -51.423  1.00  0.00     0.154 C 
HETATM   26  C   UNL     1     -39.677  52.201 -51.802  1.00  0.00     0.187 C 
HETATM   27  O   UNL     1     -40.625  52.153 -50.724  1.00  0.00    -0.388 OA
HETATM   28  C   UNL     1     -40.954  53.482 -50.291  1.00  0.00     0.187 C 
HETATM   29  O   UNL     1     -40.093  55.242 -54.592  1.00  0.00    -0.238 OA
ENDBRANCH  21  22
ENDBRANCH  16  21
BRANCH  17  30
HETATM   30  O   UNL     1     -43.630  55.050 -54.575  1.00  0.00    -0.353 OA
HETATM   31  C   UNL     1     -43.412  53.919 -55.408  1.00  0.00     0.210 C 
ENDBRANCH  17  30
ENDBRANCH   1  13
BRANCH   5  32
HETATM   32  N   UNL     1     -45.157  56.555 -60.627  1.00  0.00    -0.282 NA
HETATM   33  H   UNL     1     -44.294  56.263 -61.076  1.00  0.00     0.126 HD
HETATM   34  H   UNL     1     -45.885  56.826 -61.280  1.00  0.00     0.126 HD
ENDBRANCH   5  32
BRANCH  12  35
HETATM   35  C   UNL     1     -44.959  61.488 -56.038  1.00  0.00    -0.005 A 
HETATM   36  C   UNL     1     -44.914  61.338 -54.645  1.00  0.00     0.015 A 
HETATM   37  C   UNL     1     -44.248  62.275 -53.851  1.00  0.00     0.020 A 
HETATM   38  C   UNL     1     -43.629  63.370 -54.449  1.00  0.00     0.011 A 
HETATM   39 BR   UNL     1     -42.737  64.646 -53.377  1.00  0.00    -0.051 Br
HETATM   40  C   UNL     1     -43.672  63.537 -55.832  1.00  0.00     0.020 A 
HETATM   41  C   UNL     1     -44.338  62.599 -56.626  1.00  0.00     0.015 A 
ENDBRANCH  12  35
TORSDOF 7
ENDMDL
MODEL 5
REMARK VINA RESULT:      -6.7      3.574      8.096
REMARK  7 active torsions:
REMARK  status: ('A' for Active; 'I' for Inactive)
REMARK    1  A    between atoms: O_2  and  C_3 
REMARK    2  A    between atoms: C_4  and  O_5 
REMARK    3  A    between atoms: O_5  and  C_6 
REMARK       I    between atoms: C_6  and  N_7 
REMARK    4  A    between atoms: C_14  and  O_15 
REMARK    5  A    between atoms: C_18  and  C_19 
REMARK    6  A    between atoms: C_23  and  N_24 
REMARK    7  A    between atoms: C_31  and  C_32 
ROOT
HETATM    1  C   UNL     1     -41.813  58.807 -52.594  1.00  0.00     0.105 C 
HETATM    2  C   UNL     1     -41.172  58.267 -51.317  1.00  0.00     0.067 C 
HETATM    3  C   UNL     1     -39.841  58.876 -50.907  1.00  0.00     0.020 C 
HETATM    4  N   UNL     1     -38.738  59.382 -50.566  1.00  0.00    -0.096 N 
HETATM    5  C   UNL     1     -41.629  57.168 -50.657  1.00  0.00     0.139 C 
HETATM    6  O   UNL     1     -42.726  56.426 -51.133  1.00  0.00    -0.279 OA
HETATM    7  C   UNL     1     -43.160  56.744 -52.347  1.00  0.00     0.175 A 
HETATM    8  C   UNL     1     -42.787  57.811 -53.127  1.00  0.00     0.040 A 
HETATM    9  N   UNL     1     -44.087  56.048 -53.047  1.00  0.00    -0.256 N 
HETATM   10  H   UNL     1     -44.584  55.207 -52.771  1.00  0.00     0.191 HD
HETATM   11  N   UNL     1     -44.330  56.581 -54.260  1.00  0.00    -0.172 NA
HETATM   12  C   UNL     1     -43.510  57.647 -54.339  1.00  0.00     0.099 A 
ENDROOT
BRANCH   1  13
HETATM   13  C   UNL     1     -42.570  60.110 -52.341  1.00  0.00    -0.039 A 
HETATM   14  C   UNL     1     -43.219  60.280 -51.105  1.00  0.00     0.048 A 
HETATM   15  C   UNL     1     -44.005  61.408 -50.867  1.00  0.00     0.105 A 
HETATM   16  C   UNL     1     -44.183  62.361 -51.871  1.00  0.00     0.147 A 
HETATM   17  C   UNL     1     -43.492  62.265 -53.084  1.00  0.00     0.105 A 
HETATM   18  C   UNL     1     -42.725  61.120 -53.322  1.00  0.00     0.048 A 
BRANCH  15  19
HETATM   19  O   UNL     1     -44.664  61.549 -49.674  1.00  0.00    -0.353 OA
HETATM   20  C   UNL     1     -45.493  60.414 -49.429  1.00  0.00     0.210 C 
ENDBRANCH  15  19
BRANCH  16  21
HETATM   21  O   UNL     1     -45.036  63.442 -51.612  1.00  0.00    -0.256 OA
BRANCH  21  22
HETATM   22  C   UNL     1     -46.378  63.157 -51.854  1.00  0.00     0.368 C 
HETATM   23  N   UNL     1     -47.217  63.708 -50.896  1.00  0.00    -0.324 N 
HETATM   24  C   UNL     1     -48.635  63.854 -51.211  1.00  0.00     0.154 C 
HETATM   25  C   UNL     1     -46.732  64.543 -49.799  1.00  0.00     0.154 C 
HETATM   26  C   UNL     1     -49.500  63.835 -49.950  1.00  0.00     0.187 C 
HETATM   27  O   UNL     1     -49.027  64.782 -48.979  1.00  0.00    -0.388 OA
HETATM   28  C   UNL     1     -47.678  64.471 -48.597  1.00  0.00     0.187 C 
HETATM   29  O   UNL     1     -46.801  62.497 -52.800  1.00  0.00    -0.238 OA
ENDBRANCH  21  22
ENDBRANCH  16  21
BRANCH  17  30
HETATM   30  O   UNL     1     -43.632  63.316 -53.951  1.00  0.00    -0.353 OA
HETATM   31  C   UNL     1     -43.680  63.018 -55.340  1.00  0.00     0.210 C 
ENDBRANCH  17  30
ENDBRANCH   1  13
BRANCH   5  32
HETATM   32  N   UNL     1     -41.077  56.626 -49.520  1.00  0.00    -0.282 NA
HETATM   33  H   UNL     1     -40.288  55.999 -49.651  1.00  0.00     0.126 HD
HETATM   34  H   UNL     1     -41.774  56.275 -48.871  1.00  0.00     0.126 HD
ENDBRANCH   5  32
BRANCH  12  35
HETATM   35  C   UNL     1     -43.470  58.466 -55.547  1.00  0.00    -0.005 A 
HETATM   36  C   UNL     1     -42.264  58.630 -56.242  1.00  0.00     0.015 A 
HETATM   37  C   UNL     1     -42.208  59.427 -57.388  1.00  0.00     0.020 A 
HETATM   38  C   UNL     1     -43.358  60.068 -57.839  1.00  0.00     0.011 A 
HETATM   39 BR   UNL     1     -43.284  61.157 -59.382  1.00  0.00    -0.051 Br
HETATM   40  C   UNL     1     -44.564  59.922 -57.154  1.00  0.00     0.020 A 
HETATM   41  C   UNL     1     -44.619  59.123 -56.008  1.00  0.00     0.015 A 
ENDBRANCH  12  35
TORSDOF 7
ENDMDL
MODEL 6
REMARK VINA RESULT:      -6.7      3.544      5.704
REMARK  7 active torsions:
REMARK  status: ('A' for Active; 'I' for Inactive)
REMARK    1  A    between atoms: O_2  and  C_3 
REMARK    2  A    between atoms: C_4  and  O_5 
REMARK    3  A    between atoms: O_5  and  C_6 
REMARK       I    between atoms: C_6  and  N_7 
REMARK    4  A    between atoms: C_14  and  O_15 
REMARK    5  A    between atoms: C_18  and  C_19 
REMARK    6  A    between atoms: C_23  and  N_24 
REMARK    7  A    between atoms: C_31  and  C_32 
ROOT
HETATM    1  C   UNL     1     -44.262  58.134 -59.298  1.00  0.00     0.105 C 
HETATM    2  C   UNL     1     -45.191  56.944 -59.531  1.00  0.00     0.067 C 
HETATM    3  C   UNL     1     -44.531  55.596 -59.770  1.00  0.00     0.020 C 
HETATM    4  N   UNL     1     -43.984  54.477 -59.968  1.00  0.00    -0.096 N 
HETATM    5  C   UNL     1     -46.532  57.067 -59.719  1.00  0.00     0.139 C 
HETATM    6  O   UNL     1     -47.161  58.327 -59.739  1.00  0.00    -0.279 OA
HETATM    7  C   UNL     1     -46.352  59.380 -59.757  1.00  0.00     0.175 A 
HETATM    8  C   UNL     1     -44.990  59.403 -59.589  1.00  0.00     0.040 A 
HETATM    9  N   UNL     1     -46.749  60.661 -59.944  1.00  0.00    -0.256 N 
HETATM   10  H   UNL     1     -47.690  61.014 -60.091  1.00  0.00     0.191 HD
HETATM   11  N   UNL     1     -45.721  61.530 -59.934  1.00  0.00    -0.172 NA
HETATM   12  C   UNL     1     -44.625  60.767 -59.752  1.00  0.00     0.099 A 
ENDROOT
BRANCH   1  13
HETATM   13  C   UNL     1     -43.774  58.197 -57.851  1.00  0.00    -0.039 A 
HETATM   14  C   UNL     1     -42.921  57.181 -57.386  1.00  0.00     0.048 A 
HETATM   15  C   UNL     1     -42.532  57.142 -56.046  1.00  0.00     0.105 A 
HETATM   16  C   UNL     1     -43.016  58.094 -55.149  1.00  0.00     0.147 A 
HETATM   17  C   UNL     1     -43.803  59.163 -55.590  1.00  0.00     0.105 A 
HETATM   18  C   UNL     1     -44.206  59.182 -56.929  1.00  0.00     0.048 A 
BRANCH  15  19
HETATM   19  O   UNL     1     -41.730  56.127 -55.592  1.00  0.00    -0.353 OA
HETATM   20  C   UNL     1     -42.397  54.873 -55.725  1.00  0.00     0.210 C 
ENDBRANCH  15  19
BRANCH  16  21
HETATM   21  O   UNL     1     -42.654  57.975 -53.800  1.00  0.00    -0.256 OA
BRANCH  21  22
HETATM   22  C   UNL     1     -43.539  57.197 -53.058  1.00  0.00     0.368 C 
HETATM   23  N   UNL     1     -42.886  56.265 -52.263  1.00  0.00    -0.324 N 
HETATM   24  C   UNL     1     -43.612  55.668 -51.146  1.00  0.00     0.154 C 
HETATM   25  C   UNL     1     -41.430  56.171 -52.181  1.00  0.00     0.154 C 
HETATM   26  C   UNL     1     -43.071  54.282 -50.795  1.00  0.00     0.187 C 
HETATM   27  O   UNL     1     -41.647  54.310 -50.605  1.00  0.00    -0.388 OA
HETATM   28  C   UNL     1     -40.994  54.753 -51.804  1.00  0.00     0.187 C 
HETATM   29  O   UNL     1     -44.763  57.300 -53.081  1.00  0.00    -0.238 OA
ENDBRANCH  21  22
ENDBRANCH  16  21
BRANCH  17  30
HETATM   30  O   UNL     1     -44.119  60.115 -54.657  1.00  0.00    -0.353 OA
HETATM   31  C   UNL     1     -45.484  60.492 -54.542  1.00  0.00     0.210 C 
ENDBRANCH  17  30
ENDBRANCH   1  13
BRANCH   5  32
HETATM   32  N   UNL     1     -47.409  56.035 -59.956  1.00  0.00    -0.282 NA
HETATM   33  H   UNL     1     -47.626  55.835 -60.929  1.00  0.00     0.126 HD
HETATM   34  H   UNL     1     -48.227  56.064 -59.354  1.00  0.00     0.126 HD
ENDBRANCH   5  32
BRANCH  12  35
HETATM   35  C   UNL     1     -43.296  61.370 -59.722  1.00  0.00    -0.005 A 
HETATM   36  C   UNL     1     -42.917  62.177 -58.640  1.00  0.00     0.015 A 
HETATM   37  C   UNL     1     -41.656  62.777 -58.609  1.00  0.00     0.020 A 
HETATM   38  C   UNL     1     -40.772  62.577 -59.665  1.00  0.00     0.011 A 
HETATM   39 BR   UNL     1     -39.069  63.397 -59.633  1.00  0.00    -0.051 Br
HETATM   40  C   UNL     1     -41.136  61.785 -60.753  1.00  0.00     0.020 A 
HETATM   41  C   UNL     1     -42.398  61.184 -60.782  1.00  0.00     0.015 A 
ENDBRANCH  12  35
TORSDOF 7
ENDMDL
MODEL 7
REMARK VINA RESULT:      -6.7      3.190      7.888
REMARK  7 active torsions:
REMARK  status: ('A' for Active; 'I' for Inactive)
REMARK    1  A    between atoms: O_2  and  C_3 
REMARK    2  A    between atoms: C_4  and  O_5 
REMARK    3  A    between atoms: O_5  and  C_6 
REMARK       I    between atoms: C_6  and  N_7 
REMARK    4  A    between atoms: C_14  and  O_15 
REMARK    5  A    between atoms: C_18  and  C_19 
REMARK    6  A    between atoms: C_23  and  N_24 
REMARK    7  A    between atoms: C_31  and  C_32 
ROOT
HETATM    1  C   UNL     1     -41.904  58.297 -52.854  1.00  0.00     0.105 C 
HETATM    2  C   UNL     1     -41.322  57.967 -51.480  1.00  0.00     0.067 C 
HETATM    3  C   UNL     1     -40.079  58.733 -51.059  1.00  0.00     0.020 C 
HETATM    4  N   UNL     1     -39.049  59.369 -50.709  1.00  0.00    -0.096 N 
HETATM    5  C   UNL     1     -41.740  56.916 -50.724  1.00  0.00     0.139 C 
HETATM    6  O   UNL     1     -42.736  56.030 -51.179  1.00  0.00    -0.279 OA
HETATM    7  C   UNL     1     -43.099  56.167 -52.449  1.00  0.00     0.175 A 
HETATM    8  C   UNL     1     -42.753  57.165 -53.326  1.00  0.00     0.040 A 
HETATM    9  N   UNL     1     -43.912  55.316 -53.120  1.00  0.00    -0.256 N 
HETATM   10  H   UNL     1     -44.361  54.473 -52.778  1.00  0.00     0.191 HD
HETATM   11  N   UNL     1     -44.102  55.683 -54.402  1.00  0.00    -0.172 NA
HETATM   12  C   UNL     1     -43.365  56.801 -54.554  1.00  0.00     0.099 A 
ENDROOT
BRANCH   1  13
HETATM   13  C   UNL     1     -42.779  59.550 -52.812  1.00  0.00    -0.039 A 
HETATM   14  C   UNL     1     -43.899  59.558 -51.963  1.00  0.00     0.048 A 
HETATM   15  C   UNL     1     -44.782  60.638 -51.966  1.00  0.00     0.105 A 
HETATM   16  C   UNL     1     -44.578  61.706 -52.840  1.00  0.00     0.147 A 
HETATM   17  C   UNL     1     -43.435  61.769 -53.643  1.00  0.00     0.105 A 
HETATM   18  C   UNL     1     -42.567  60.672 -53.650  1.00  0.00     0.048 A 
BRANCH  15  19
HETATM   19  O   UNL     1     -45.892  60.622 -51.162  1.00  0.00    -0.353 OA
HETATM   20  C   UNL     1     -45.523  60.868 -49.805  1.00  0.00     0.210 C 
ENDBRANCH  15  19
BRANCH  16  21
HETATM   21  O   UNL     1     -45.529  62.737 -52.858  1.00  0.00    -0.256 OA
BRANCH  21  22
HETATM   22  C   UNL     1     -46.640  62.449 -53.646  1.00  0.00     0.368 C 
HETATM   23  N   UNL     1     -47.810  62.985 -53.127  1.00  0.00    -0.324 N 
HETATM   24  C   UNL     1     -48.963  63.130 -54.010  1.00  0.00     0.154 C 
HETATM   25  C   UNL     1     -47.840  63.810 -51.921  1.00  0.00     0.154 C 
HETATM   26  C   UNL     1     -50.280  63.093 -53.232  1.00  0.00     0.187 C 
HETATM   27  O   UNL     1     -50.269  64.030 -52.144  1.00  0.00    -0.388 OA
HETATM   28  C   UNL     1     -49.205  63.720 -51.232  1.00  0.00     0.187 C 
HETATM   29  O   UNL     1     -46.619  61.798 -54.689  1.00  0.00    -0.238 OA
ENDBRANCH  21  22
ENDBRANCH  16  21
BRANCH  17  30
HETATM   30  O   UNL     1     -43.261  62.918 -54.369  1.00  0.00    -0.353 OA
HETATM   31  C   UNL     1     -43.374  62.823 -55.783  1.00  0.00     0.210 C 
ENDBRANCH  17  30
ENDBRANCH   1  13
BRANCH   5  32
HETATM   32  N   UNL     1     -41.236  56.559 -49.496  1.00  0.00    -0.282 NA
HETATM   33  H   UNL     1     -41.135  57.301 -48.810  1.00  0.00     0.126 HD
HETATM   34  H   UNL     1     -40.424  55.952 -49.563  1.00  0.00     0.126 HD
ENDBRANCH   5  32
BRANCH  12  35
HETATM   35  C   UNL     1     -43.297  57.475 -55.848  1.00  0.00    -0.005 A 
HETATM   36  C   UNL     1     -44.169  58.536 -56.131  1.00  0.00     0.015 A 
HETATM   37  C   UNL     1     -44.128  59.176 -57.373  1.00  0.00     0.020 A 
HETATM   38  C   UNL     1     -43.219  58.750 -58.338  1.00  0.00     0.011 A 
HETATM   39 BR   UNL     1     -43.169  59.605 -60.023  1.00  0.00    -0.051 Br
HETATM   40  C   UNL     1     -42.352  57.691 -58.074  1.00  0.00     0.020 A 
HETATM   41  C   UNL     1     -42.393  57.052 -56.831  1.00  0.00     0.015 A 
ENDBRANCH  12  35
TORSDOF 7
ENDMDL
MODEL 8
REMARK VINA RESULT:      -6.4      3.825      7.546
REMARK  7 active torsions:
REMARK  status: ('A' for Active; 'I' for Inactive)
REMARK    1  A    between atoms: O_2  and  C_3 
REMARK    2  A    between atoms: C_4  and  O_5 
REMARK    3  A    between atoms: O_5  and  C_6 
REMARK       I    between atoms: C_6  and  N_7 
REMARK    4  A    between atoms: C_14  and  O_15 
REMARK    5  A    between atoms: C_18  and  C_19 
REMARK    6  A    between atoms: C_23  and  N_24 
REMARK    7  A    between atoms: C_31  and  C_32 
ROOT
HETATM    1  C   UNL     1     -43.997  59.763 -54.524  1.00  0.00     0.105 C 
HETATM    2  C   UNL     1     -44.447  61.218 -54.400  1.00  0.00     0.067 C 
HETATM    3  C   UNL     1     -43.699  62.242 -55.238  1.00  0.00     0.020 C 
HETATM    4  N   UNL     1     -43.080  63.091 -55.934  1.00  0.00    -0.096 N 
HETATM    5  C   UNL     1     -45.330  61.650 -53.459  1.00  0.00     0.139 C 
HETATM    6  O   UNL     1     -45.875  60.773 -52.501  1.00  0.00    -0.279 OA
HETATM    7  C   UNL     1     -45.337  59.560 -52.453  1.00  0.00     0.175 A 
HETATM    8  C   UNL     1     -44.437  58.997 -53.323  1.00  0.00     0.040 A 
HETATM    9  N   UNL     1     -45.602  58.632 -51.502  1.00  0.00    -0.256 N 
HETATM   10  H   UNL     1     -46.229  58.705 -50.708  1.00  0.00     0.191 HD
HETATM   11  N   UNL     1     -44.906  57.493 -51.681  1.00  0.00    -0.172 NA
HETATM   12  C   UNL     1     -44.156  57.715 -52.779  1.00  0.00     0.099 A 
ENDROOT
BRANCH   1  13
HETATM   13  C   UNL     1     -44.599  59.088 -55.755  1.00  0.00    -0.039 A 
HETATM   14  C   UNL     1     -43.765  58.291 -56.559  1.00  0.00     0.048 A 
HETATM   15  C   UNL     1     -44.244  57.737 -57.746  1.00  0.00     0.105 A 
HETATM   16  C   UNL     1     -45.550  57.999 -58.164  1.00  0.00     0.147 A 
HETATM   17  C   UNL     1     -46.431  58.722 -57.353  1.00  0.00     0.105 A 
HETATM   18  C   UNL     1     -45.935  59.293 -56.177  1.00  0.00     0.048 A 
BRANCH  15  19
HETATM   19  O   UNL     1     -43.415  56.992 -58.543  1.00  0.00    -0.353 OA
HETATM   20  C   UNL     1     -43.063  55.773 -57.888  1.00  0.00     0.210 C 
ENDBRANCH  15  19
BRANCH  16  21
HETATM   21  O   UNL     1     -45.967  57.479 -59.397  1.00  0.00    -0.256 OA
BRANCH  21  22
HETATM   22  C   UNL     1     -46.200  58.459 -60.359  1.00  0.00     0.368 C 
HETATM   23  N   UNL     1     -47.262  58.140 -61.193  1.00  0.00    -0.324 N 
HETATM   24  C   UNL     1     -47.888  59.208 -61.966  1.00  0.00     0.154 C 
HETATM   25  C   UNL     1     -48.071  56.935 -61.024  1.00  0.00     0.154 C 
HETATM   26  C   UNL     1     -48.534  58.676 -63.246  1.00  0.00     0.187 C 
HETATM   27  O   UNL     1     -49.415  57.576 -62.968  1.00  0.00    -0.388 OA
HETATM   28  C   UNL     1     -48.689  56.500 -62.356  1.00  0.00     0.187 C 
HETATM   29  O   UNL     1     -45.557  59.500 -60.479  1.00  0.00    -0.238 OA
ENDBRANCH  21  22
ENDBRANCH  16  21
BRANCH  17  30
HETATM   30  O   UNL     1     -47.726  58.815 -57.791  1.00  0.00    -0.353 OA
HETATM   31  C   UNL     1     -48.258  60.117 -57.994  1.00  0.00     0.210 C 
ENDBRANCH  17  30
ENDBRANCH   1  13
BRANCH   5  32
HETATM   32  N   UNL     1     -45.749  62.948 -53.286  1.00  0.00    -0.282 NA
HETATM   33  H   UNL     1     -45.260  63.661 -53.820  1.00  0.00     0.126 HD
HETATM   34  H   UNL     1     -45.888  63.193 -52.310  1.00  0.00     0.126 HD
ENDBRANCH   5  32
BRANCH  12  35
HETATM   35  C   UNL     1     -43.231  56.696 -53.265  1.00  0.00    -0.005 A 
HETATM   36  C   UNL     1     -41.850  56.938 -53.245  1.00  0.00     0.015 A 
HETATM   37  C   UNL     1     -40.954  55.979 -53.727  1.00  0.00     0.020 A 
HETATM   38  C   UNL     1     -41.439  54.777 -54.236  1.00  0.00     0.011 A 
HETATM   39 BR   UNL     1     -40.232  53.482 -54.899  1.00  0.00    -0.051 Br
HETATM   40  C   UNL     1     -42.810  54.525 -54.270  1.00  0.00     0.020 A 
HETATM   41  C   UNL     1     -43.705  55.485 -53.787  1.00  0.00     0.015 A 
ENDBRANCH  12  35
TORSDOF 7
ENDMDL
MODEL 9
REMARK VINA RESULT:      -6.4      2.992      7.610
REMARK  7 active torsions:
REMARK  status: ('A' for Active; 'I' for Inactive)
REMARK    1  A    between atoms: O_2  and  C_3 
REMARK    2  A    between atoms: C_4  and  O_5 
REMARK    3  A    between atoms: O_5  and  C_6 
REMARK       I    between atoms: C_6  and  N_7 
REMARK    4  A    between atoms: C_14  and  O_15 
REMARK    5  A    between atoms: C_18  and  C_19 
REMARK    6  A    between atoms: C_23  and  N_24 
REMARK    7  A    between atoms: C_31  and  C_32 
ROOT
HETATM    1  C   UNL     1     -42.152  57.825 -54.519  1.00  0.00     0.105 C 
HETATM    2  C   UNL     1     -41.542  57.386 -53.188  1.00  0.00     0.067 C 
HETATM    3  C   UNL     1     -40.578  58.354 -52.523  1.00  0.00     0.020 C 
HETATM    4  N   UNL     1     -39.779  59.157 -51.970  1.00  0.00    -0.096 N 
HETATM    5  C   UNL     1     -41.671  56.128 -52.686  1.00  0.00     0.139 C 
HETATM    6  O   UNL     1     -42.363  55.121 -53.386  1.00  0.00    -0.279 OA
HETATM    7  C   UNL     1     -42.712  55.416 -54.633  1.00  0.00     0.175 A 
HETATM    8  C   UNL     1     -42.634  56.630 -55.270  1.00  0.00     0.040 A 
HETATM    9  N   UNL     1     -43.231  54.536 -55.522  1.00  0.00    -0.256 N 
HETATM   10  H   UNL     1     -43.435  53.551 -55.387  1.00  0.00     0.191 HD
HETATM   11  N   UNL     1     -43.478  55.095 -56.721  1.00  0.00    -0.172 NA
HETATM   12  C   UNL     1     -43.082  56.377 -56.594  1.00  0.00     0.099 A 
ENDROOT
BRANCH   1  13
HETATM   13  C   UNL     1     -43.344  58.759 -54.315  1.00  0.00    -0.039 A 
HETATM   14  C   UNL     1     -43.534  59.814 -55.224  1.00  0.00     0.048 A 
HETATM   15  C   UNL     1     -44.548  60.751 -55.020  1.00  0.00     0.105 A 
HETATM   16  C   UNL     1     -45.362  60.667 -53.890  1.00  0.00     0.147 A 
HETATM   17  C   UNL     1     -45.253  59.588 -53.005  1.00  0.00     0.105 A 
HETATM   18  C   UNL     1     -44.220  58.667 -53.205  1.00  0.00     0.048 A 
BRANCH  15  19
HETATM   19  O   UNL     1     -44.703  61.798 -55.891  1.00  0.00    -0.353 OA
HETATM   20  C   UNL     1     -45.092  61.318 -57.177  1.00  0.00     0.210 C 
ENDBRANCH  15  19
BRANCH  16  21
HETATM   21  O   UNL     1     -46.322  61.668 -53.690  1.00  0.00    -0.256 OA
BRANCH  21  22
HETATM   22  C   UNL     1     -45.968  62.582 -52.701  1.00  0.00     0.368 C 
HETATM   23  N   UNL     1     -47.065  63.033 -51.980  1.00  0.00    -0.324 N 
HETATM   24  C   UNL     1     -46.838  63.656 -50.680  1.00  0.00     0.154 C 
HETATM   25  C   UNL     1     -48.422  62.543 -52.209  1.00  0.00     0.154 C 
HETATM   26  C   UNL     1     -47.952  64.641 -50.321  1.00  0.00     0.187 C 
HETATM   27  O   UNL     1     -49.247  64.032 -50.449  1.00  0.00    -0.388 OA
HETATM   28  C   UNL     1     -49.459  63.593 -51.798  1.00  0.00     0.187 C 
HETATM   29  O   UNL     1     -44.824  62.965 -52.467  1.00  0.00    -0.238 OA
ENDBRANCH  21  22
ENDBRANCH  16  21
BRANCH  17  30
HETATM   30  O   UNL     1     -46.182  59.527 -52.000  1.00  0.00    -0.353 OA
HETATM   31  C   UNL     1     -45.700  59.488 -50.664  1.00  0.00     0.210 C 
ENDBRANCH  17  30
ENDBRANCH   1  13
BRANCH   5  32
HETATM   32  N   UNL     1     -41.124  55.673 -51.509  1.00  0.00    -0.282 NA
HETATM   33  H   UNL     1     -41.297  54.701 -51.271  1.00  0.00     0.126 HD
HETATM   34  H   UNL     1     -41.264  56.314 -50.734  1.00  0.00     0.126 HD
ENDBRANCH   5  32
BRANCH  12  35
HETATM   35  C   UNL     1     -43.167  57.297 -57.724  1.00  0.00    -0.005 A 
HETATM   36  C   UNL     1     -42.039  58.031 -58.116  1.00  0.00     0.015 A 
HETATM   37  C   UNL     1     -42.112  58.931 -59.183  1.00  0.00     0.020 A 
HETATM   38  C   UNL     1     -43.318  59.103 -59.857  1.00  0.00     0.011 A 
HETATM   39 BR   UNL     1     -43.425  60.327 -61.293  1.00  0.00    -0.051 Br
HETATM   40  C   UNL     1     -44.451  58.386 -59.474  1.00  0.00     0.020 A 
HETATM   41  C   UNL     1     -44.376  57.486 -58.407  1.00  0.00     0.015 A 
ENDBRANCH  12  35
TORSDOF 7
ENDMDL
MODEL 10
REMARK VINA RESULT:      -6.4      3.777      6.586
REMARK  7 active torsions:
REMARK  status: ('A' for Active; 'I' for Inactive)
REMARK    1  A    between atoms: O_2  and  C_3 
REMARK    2  A    between atoms: C_4  and  O_5 
REMARK    3  A    between atoms: O_5  and  C_6 
REMARK       I    between atoms: C_6  and  N_7 
REMARK    4  A    between atoms: C_14  and  O_15 
REMARK    5  A    between atoms: C_18  and  C_19 
REMARK    6  A    between atoms: C_23  and  N_24 
REMARK    7  A    between atoms: C_31  and  C_32 
ROOT
HETATM    1  C   UNL     1     -44.600  57.961 -59.493  1.00  0.00     0.105 C 
HETATM    2  C   UNL     1     -45.529  56.779 -59.762  1.00  0.00     0.067 C 
HETATM    3  C   UNL     1     -44.878  55.414 -59.908  1.00  0.00     0.020 C 
HETATM    4  N   UNL     1     -44.338  54.280 -60.029  1.00  0.00    -0.096 N 
HETATM    5  C   UNL     1     -46.850  56.918 -60.059  1.00  0.00     0.139 C 
HETATM    6  O   UNL     1     -47.452  58.186 -60.168  1.00  0.00    -0.279 OA
HETATM    7  C   UNL     1     -46.624  59.225 -60.153  1.00  0.00     0.175 A 
HETATM    8  C   UNL     1     -45.279  59.232 -59.878  1.00  0.00     0.040 A 
HETATM    9  N   UNL     1     -46.982  60.506 -60.409  1.00  0.00    -0.256 N 
HETATM   10  H   UNL     1     -47.901  60.869 -60.640  1.00  0.00     0.191 HD
HETATM   11  N   UNL     1     -45.941  61.358 -60.344  1.00  0.00    -0.172 NA
HETATM   12  C   UNL     1     -44.878  60.583 -60.053  1.00  0.00     0.099 A 
ENDROOT
BRANCH   1  13
HETATM   13  C   UNL     1     -44.226  58.062 -58.014  1.00  0.00    -0.039 A 
HETATM   14  C   UNL     1     -43.135  57.310 -57.545  1.00  0.00     0.048 A 
HETATM   15  C   UNL     1     -42.819  57.291 -56.186  1.00  0.00     0.105 A 
HETATM   16  C   UNL     1     -43.609  57.994 -55.275  1.00  0.00     0.147 A 
HETATM   17  C   UNL     1     -44.654  58.814 -55.713  1.00  0.00     0.105 A 
HETATM   18  C   UNL     1     -44.977  58.808 -57.074  1.00  0.00     0.048 A 
BRANCH  15  19
HETATM   19  O   UNL     1     -41.777  56.527 -55.731  1.00  0.00    -0.353 OA
HETATM   20  C   UNL     1     -42.104  55.141 -55.820  1.00  0.00     0.210 C 
ENDBRANCH  15  19
BRANCH  16  21
HETATM   21  O   UNL     1     -43.297  57.891 -53.912  1.00  0.00    -0.256 OA
BRANCH  21  22
HETATM   22  C   UNL     1     -42.510  58.941 -53.446  1.00  0.00     0.368 C 
HETATM   23  N   UNL     1     -42.993  59.478 -52.260  1.00  0.00    -0.324 N 
HETATM   24  C   UNL     1     -42.092  60.282 -51.440  1.00  0.00     0.154 C 
HETATM   25  C   UNL     1     -44.161  58.943 -51.563  1.00  0.00     0.154 C 
HETATM   26  C   UNL     1     -42.857  61.295 -50.587  1.00  0.00     0.187 C 
HETATM   27  O   UNL     1     -43.903  60.660 -49.836  1.00  0.00    -0.388 OA
HETATM   28  C   UNL     1     -44.840  60.029 -50.722  1.00  0.00     0.187 C 
HETATM   29  O   UNL     1     -41.498  59.367 -53.998  1.00  0.00    -0.238 OA
ENDBRANCH  21  22
ENDBRANCH  16  21
BRANCH  17  30
HETATM   30  O   UNL     1     -45.286  59.562 -54.755  1.00  0.00    -0.353 OA
HETATM   31  C   UNL     1     -45.259  60.975 -54.903  1.00  0.00     0.210 C 
ENDBRANCH  17  30
ENDBRANCH   1  13
BRANCH   5  32
HETATM   32  N   UNL     1     -47.724  55.893 -60.335  1.00  0.00    -0.282 NA
HETATM   33  H   UNL     1     -47.318  54.973 -60.481  1.00  0.00     0.126 HD
HETATM   34  H   UNL     1     -48.423  56.145 -61.028  1.00  0.00     0.126 HD
ENDBRANCH   5  32
BRANCH  12  35
HETATM   35  C   UNL     1     -43.544  61.166 -59.936  1.00  0.00    -0.005 A 
HETATM   36  C   UNL     1     -43.182  61.858 -58.771  1.00  0.00     0.015 A 
HETATM   37  C   UNL     1     -41.916  62.438 -58.655  1.00  0.00     0.020 A 
HETATM   38  C   UNL     1     -41.011  62.334 -59.707  1.00  0.00     0.011 A 
HETATM   39 BR   UNL     1     -39.302  63.128 -59.559  1.00  0.00    -0.051 Br
HETATM   40  C   UNL     1     -41.359  61.656 -60.875  1.00  0.00     0.020 A 
HETATM   41  C   UNL     1     -42.625  61.075 -60.990  1.00  0.00     0.015 A 
ENDBRANCH  12  35
TORSDOF 7
ENDMDL
