MODEL 1
REMARK VINA RESULT:      -8.8      0.000      0.000
REMARK  5 active torsions:
REMARK  status: ('A' for Active; 'I' for Inactive)
REMARK    1  A    between atoms: C_5  and  N_6 
REMARK       I    between atoms: N_6  and  C_7 
REMARK       I    between atoms: C_7  and  N_8 
REMARK    2  A    between atoms: N_8  and  C_9 
REMARK    3  A    between atoms: C_11  and  C_12 
REMARK       I    between atoms: C_12  and  N_13 
REMARK    4  A    between atoms: N_13  and  C_14 
REMARK    5  A    between atoms: C_14  and  C_15 
ROOT
HETATM    1  C   UNL     1     -43.675  57.612 -51.203  1.00  0.00     0.175 A 
HETATM    2  S   UNL     1     -43.611  55.952 -50.865  1.00  0.00    -0.044 SA
HETATM    3  C   UNL     1     -41.894  56.059 -50.713  1.00  0.00     0.100 A 
HETATM    4  C   UNL     1     -41.495  57.364 -50.988  1.00  0.00     0.056 A 
HETATM    5  C   UNL     1     -40.123  57.941 -50.949  1.00  0.00     0.072 C 
HETATM    6  N   UNL     1     -42.533  58.245 -51.277  1.00  0.00    -0.228 NA
ENDROOT
BRANCH   1   7
HETATM    7  N   UNL     1     -44.928  58.130 -51.338  1.00  0.00    -0.287 N 
HETATM    8  C   UNL     1     -45.412  59.250 -50.722  1.00  0.00     0.326 C 
HETATM    9  N   UNL     1     -44.535  59.946 -49.933  1.00  0.00    -0.309 N 
HETATM   10  O   UNL     1     -46.596  59.531 -50.909  1.00  0.00    -0.247 OA
HETATM   11  H   UNL     1     -43.575  59.615 -49.970  1.00  0.00     0.170 HD
HETATM   12  H   UNL     1     -45.606  57.600 -51.865  1.00  0.00     0.172 HD
BRANCH   9  13
HETATM   13  C   UNL     1     -44.795  61.038 -49.084  1.00  0.00     0.036 A 
HETATM   14  C   UNL     1     -45.451  60.936 -47.858  1.00  0.00     0.030 A 
HETATM   15  C   UNL     1     -45.636  62.068 -47.055  1.00  0.00     0.009 A 
HETATM   16  C   UNL     1     -45.164  63.320 -47.464  1.00  0.00    -0.062 A 
HETATM   17  C   UNL     1     -45.382  64.526 -46.600  1.00  0.00     0.048 C 
HETATM   18  C   UNL     1     -44.521  63.426 -48.701  1.00  0.00     0.009 A 
HETATM   19  C   UNL     1     -44.333  62.293 -49.499  1.00  0.00     0.030 A 
ENDBRANCH   9  13
ENDBRANCH   1   7
BRANCH   3  20
HETATM   20  C   UNL     1     -41.161  54.877 -50.288  1.00  0.00     0.260 C 
HETATM   21  N   UNL     1     -40.801  54.002 -51.290  1.00  0.00    -0.352 N 
HETATM   22  H   UNL     1     -41.230  54.070 -52.200  1.00  0.00     0.163 HD
HETATM   23  O   UNL     1     -40.856  54.654 -49.117  1.00  0.00    -0.267 OA
BRANCH  21  24
HETATM   24  C   UNL     1     -39.957  52.854 -51.047  1.00  0.00     0.163 C 
BRANCH  24  25
HETATM   25  C   UNL     1     -39.906  51.921 -52.227  1.00  0.00    -0.019 A 
HETATM   26  C   UNL     1     -39.670  50.543 -52.094  1.00  0.00     0.042 A 
HETATM   27 CL   UNL     1     -39.365  49.821 -50.552  1.00  0.00    -0.084 Cl
HETATM   28  C   UNL     1     -39.673  49.706 -53.214  1.00  0.00     0.024 A 
HETATM   29  C   UNL     1     -39.904  50.237 -54.484  1.00  0.00     0.002 A 
HETATM   30  C   UNL     1     -40.120  51.604 -54.634  1.00  0.00     0.001 A 
HETATM   31  C   UNL     1     -40.115  52.440 -53.517  1.00  0.00     0.010 A 
ENDBRANCH  24  25
ENDBRANCH  21  24
ENDBRANCH   3  20
TORSDOF 5
ENDMDL
MODEL 2
REMARK VINA RESULT:      -8.7      4.423      7.062
REMARK  5 active torsions:
REMARK  status: ('A' for Active; 'I' for Inactive)
REMARK    1  A    between atoms: C_5  and  N_6 
REMARK       I    between atoms: N_6  and  C_7 
REMARK       I    between atoms: C_7  and  N_8 
REMARK    2  A    between atoms: N_8  and  C_9 
REMARK    3  A    between atoms: C_11  and  C_12 
REMARK       I    between atoms: C_12  and  N_13 
REMARK    4  A    between atoms: N_13  and  C_14 
REMARK    5  A    between atoms: C_14  and  C_15 
ROOT
HETATM    1  C   UNL     1     -42.113  58.238 -53.757  1.00  0.00     0.175 A 
HETATM    2  S   UNL     1     -40.799  57.268 -53.301  1.00  0.00    -0.044 SA
HETATM    3  C   UNL     1     -41.759  56.573 -52.045  1.00  0.00     0.100 A 
HETATM    4  C   UNL     1     -43.010  57.183 -52.041  1.00  0.00     0.056 A 
HETATM    5  C   UNL     1     -44.180  56.893 -51.166  1.00  0.00     0.072 C 
HETATM    6  N   UNL     1     -43.196  58.146 -53.028  1.00  0.00    -0.228 NA
ENDROOT
BRANCH   1   7
HETATM    7  N   UNL     1     -41.914  59.002 -54.867  1.00  0.00    -0.287 N 
HETATM    8  C   UNL     1     -42.402  58.753 -56.120  1.00  0.00     0.326 C 
HETATM    9  N   UNL     1     -43.209  57.656 -56.258  1.00  0.00    -0.309 N 
HETATM   10  O   UNL     1     -42.062  59.519 -57.021  1.00  0.00    -0.247 OA
HETATM   11  H   UNL     1     -43.453  57.194 -55.387  1.00  0.00     0.170 HD
HETATM   12  H   UNL     1     -41.274  59.779 -54.799  1.00  0.00     0.172 HD
BRANCH   9  13
HETATM   13  C   UNL     1     -43.728  57.092 -57.439  1.00  0.00     0.036 A 
HETATM   14  C   UNL     1     -44.793  57.630 -58.161  1.00  0.00     0.030 A 
HETATM   15  C   UNL     1     -45.223  57.026 -59.348  1.00  0.00     0.009 A 
HETATM   16  C   UNL     1     -44.594  55.876 -59.835  1.00  0.00    -0.062 A 
HETATM   17  C   UNL     1     -45.075  55.233 -61.101  1.00  0.00     0.048 C 
HETATM   18  C   UNL     1     -43.536  55.326 -59.104  1.00  0.00     0.009 A 
HETATM   19  C   UNL     1     -43.105  55.934 -57.920  1.00  0.00     0.030 A 
ENDBRANCH   9  13
ENDBRANCH   1   7
BRANCH   3  20
HETATM   20  C   UNL     1     -41.195  55.483 -51.265  1.00  0.00     0.260 C 
HETATM   21  N   UNL     1     -40.954  54.314 -51.954  1.00  0.00    -0.352 N 
HETATM   22  H   UNL     1     -41.367  54.168 -52.862  1.00  0.00     0.163 HD
HETATM   23  O   UNL     1     -40.928  55.575 -50.068  1.00  0.00    -0.267 OA
BRANCH  21  24
HETATM   24  C   UNL     1     -40.276  53.188 -51.353  1.00  0.00     0.163 C 
BRANCH  24  25
HETATM   25  C   UNL     1     -40.051  52.066 -52.332  1.00  0.00    -0.019 A 
HETATM   26  C   UNL     1     -39.868  50.734 -51.927  1.00  0.00     0.042 A 
HETATM   27 CL   UNL     1     -39.834  50.291 -50.256  1.00  0.00    -0.084 Cl
HETATM   28  C   UNL     1     -39.703  49.717 -52.873  1.00  0.00     0.024 A 
HETATM   29  C   UNL     1     -39.712  50.020 -54.235  1.00  0.00     0.002 A 
HETATM   30  C   UNL     1     -39.874  51.338 -54.651  1.00  0.00     0.001 A 
HETATM   31  C   UNL     1     -40.036  52.354 -53.707  1.00  0.00     0.010 A 
ENDBRANCH  24  25
ENDBRANCH  21  24
ENDBRANCH   3  20
TORSDOF 5
ENDMDL
MODEL 3
REMARK VINA RESULT:      -8.6      5.459      9.360
REMARK  5 active torsions:
REMARK  status: ('A' for Active; 'I' for Inactive)
REMARK    1  A    between atoms: C_5  and  N_6 
REMARK       I    between atoms: N_6  and  C_7 
REMARK       I    between atoms: C_7  and  N_8 
REMARK    2  A    between atoms: N_8  and  C_9 
REMARK    3  A    between atoms: C_11  and  C_12 
REMARK       I    between atoms: C_12  and  N_13 
REMARK    4  A    between atoms: N_13  and  C_14 
REMARK    5  A    between atoms: C_14  and  C_15 
ROOT
HETATM    1  C   UNL     1     -43.676  57.065 -52.856  1.00  0.00     0.175 A 
HETATM    2  S   UNL     1     -44.699  57.202 -54.200  1.00  0.00    -0.044 SA
HETATM    3  C   UNL     1     -43.743  58.519 -54.781  1.00  0.00     0.100 A 
HETATM    4  C   UNL     1     -42.733  58.786 -53.862  1.00  0.00     0.056 A 
HETATM    5  C   UNL     1     -41.649  59.803 -53.945  1.00  0.00     0.072 C 
HETATM    6  N   UNL     1     -42.713  57.944 -52.753  1.00  0.00    -0.228 NA
ENDROOT
BRANCH   1   7
HETATM    7  N   UNL     1     -43.947  56.021 -52.023  1.00  0.00    -0.287 N 
HETATM    8  C   UNL     1     -43.267  54.836 -51.961  1.00  0.00     0.326 C 
HETATM    9  N   UNL     1     -42.178  54.709 -52.781  1.00  0.00    -0.309 N 
HETATM   10  O   UNL     1     -43.698  53.977 -51.193  1.00  0.00    -0.247 OA
HETATM   11  H   UNL     1     -41.919  55.556 -53.280  1.00  0.00     0.170 HD
HETATM   12  H   UNL     1     -44.780  56.071 -51.456  1.00  0.00     0.172 HD
BRANCH   9  13
HETATM   13  C   UNL     1     -41.389  53.568 -53.022  1.00  0.00     0.036 A 
HETATM   14  C   UNL     1     -40.472  53.044 -52.111  1.00  0.00     0.030 A 
HETATM   15  C   UNL     1     -39.755  51.881 -52.415  1.00  0.00     0.009 A 
HETATM   16  C   UNL     1     -39.944  51.222 -53.633  1.00  0.00    -0.062 A 
HETATM   17  C   UNL     1     -39.158  49.985 -53.950  1.00  0.00     0.048 C 
HETATM   18  C   UNL     1     -40.850  51.755 -54.555  1.00  0.00     0.009 A 
HETATM   19  C   UNL     1     -41.570  52.915 -54.247  1.00  0.00     0.030 A 
ENDBRANCH   9  13
ENDBRANCH   1   7
BRANCH   3  20
HETATM   20  C   UNL     1     -44.060  59.083 -56.083  1.00  0.00     0.260 C 
HETATM   21  N   UNL     1     -43.513  58.433 -57.168  1.00  0.00    -0.352 N 
HETATM   22  H   UNL     1     -42.762  57.772 -57.036  1.00  0.00     0.163 HD
HETATM   23  O   UNL     1     -44.779  60.069 -56.237  1.00  0.00    -0.267 OA
BRANCH  21  24
HETATM   24  C   UNL     1     -43.840  58.790 -58.530  1.00  0.00     0.163 C 
BRANCH  24  25
HETATM   25  C   UNL     1     -44.575  57.691 -59.249  1.00  0.00    -0.019 A 
HETATM   26  C   UNL     1     -43.913  56.668 -59.948  1.00  0.00     0.042 A 
HETATM   27 CL   UNL     1     -42.189  56.629 -60.079  1.00  0.00    -0.084 Cl
HETATM   28  C   UNL     1     -44.636  55.644 -60.567  1.00  0.00     0.024 A 
HETATM   29  C   UNL     1     -46.029  55.632 -60.503  1.00  0.00     0.002 A 
HETATM   30  C   UNL     1     -46.700  56.648 -59.829  1.00  0.00     0.001 A 
HETATM   31  C   UNL     1     -45.980  57.673 -59.213  1.00  0.00     0.010 A 
ENDBRANCH  24  25
ENDBRANCH  21  24
ENDBRANCH   3  20
TORSDOF 5
ENDMDL
MODEL 4
REMARK VINA RESULT:      -8.3      4.696      9.076
REMARK  5 active torsions:
REMARK  status: ('A' for Active; 'I' for Inactive)
REMARK    1  A    between atoms: C_5  and  N_6 
REMARK       I    between atoms: N_6  and  C_7 
REMARK       I    between atoms: C_7  and  N_8 
REMARK    2  A    between atoms: N_8  and  C_9 
REMARK    3  A    between atoms: C_11  and  C_12 
REMARK       I    between atoms: C_12  and  N_13 
REMARK    4  A    between atoms: N_13  and  C_14 
REMARK    5  A    between atoms: C_14  and  C_15 
ROOT
HETATM    1  C   UNL     1     -41.835  57.035 -50.668  1.00  0.00     0.175 A 
HETATM    2  S   UNL     1     -42.858  57.728 -51.828  1.00  0.00    -0.044 SA
HETATM    3  C   UNL     1     -41.672  58.947 -52.132  1.00  0.00     0.100 A 
HETATM    4  C   UNL     1     -40.594  58.754 -51.273  1.00  0.00     0.056 A 
HETATM    5  C   UNL     1     -39.325  59.529 -51.189  1.00  0.00     0.072 C 
HETATM    6  N   UNL     1     -40.706  57.652 -50.430  1.00  0.00    -0.228 NA
ENDROOT
BRANCH   1   7
HETATM    7  N   UNL     1     -42.285  55.873 -50.116  1.00  0.00    -0.287 N 
HETATM    8  C   UNL     1     -41.941  54.607 -50.499  1.00  0.00     0.326 C 
HETATM    9  N   UNL     1     -41.016  54.499 -51.503  1.00  0.00    -0.309 N 
HETATM   10  O   UNL     1     -42.502  53.672 -49.929  1.00  0.00    -0.247 OA
HETATM   11  H   UNL     1     -40.595  55.377 -51.791  1.00  0.00     0.170 HD
HETATM   12  H   UNL     1     -43.011  55.931 -49.419  1.00  0.00     0.172 HD
BRANCH   9  13
HETATM   13  C   UNL     1     -40.587  53.341 -52.180  1.00  0.00     0.036 A 
HETATM   14  C   UNL     1     -39.841  52.321 -51.591  1.00  0.00     0.030 A 
HETATM   15  C   UNL     1     -39.488  51.184 -52.328  1.00  0.00     0.009 A 
HETATM   16  C   UNL     1     -39.878  51.046 -53.663  1.00  0.00    -0.062 A 
HETATM   17  C   UNL     1     -39.481  49.829 -54.443  1.00  0.00     0.048 C 
HETATM   18  C   UNL     1     -40.612  52.076 -54.260  1.00  0.00     0.009 A 
HETATM   19  C   UNL     1     -40.968  53.210 -53.522  1.00  0.00     0.030 A 
ENDBRANCH   9  13
ENDBRANCH   1   7
BRANCH   3  20
HETATM   20  C   UNL     1     -41.914  59.897 -53.205  1.00  0.00     0.260 C 
HETATM   21  N   UNL     1     -41.710  59.423 -54.484  1.00  0.00    -0.352 N 
HETATM   22  H   UNL     1     -41.201  58.565 -54.629  1.00  0.00     0.163 HD
HETATM   23  O   UNL     1     -42.291  61.052 -53.015  1.00  0.00    -0.267 OA
BRANCH  21  24
HETATM   24  C   UNL     1     -42.034  60.201 -55.658  1.00  0.00     0.163 C 
BRANCH  24  25
HETATM   25  C   UNL     1     -42.188  59.346 -56.887  1.00  0.00    -0.019 A 
HETATM   26  C   UNL     1     -41.826  59.789 -58.169  1.00  0.00     0.042 A 
HETATM   27 CL   UNL     1     -41.221  61.388 -58.437  1.00  0.00    -0.084 Cl
HETATM   28  C   UNL     1     -41.947  58.946 -59.277  1.00  0.00     0.024 A 
HETATM   29  C   UNL     1     -42.439  57.650 -59.120  1.00  0.00     0.002 A 
HETATM   30  C   UNL     1     -42.820  57.201 -57.858  1.00  0.00     0.001 A 
HETATM   31  C   UNL     1     -42.701  58.044 -56.752  1.00  0.00     0.010 A 
ENDBRANCH  24  25
ENDBRANCH  21  24
ENDBRANCH   3  20
TORSDOF 5
ENDMDL
MODEL 5
REMARK VINA RESULT:      -8.3      5.043      8.954
REMARK  5 active torsions:
REMARK  status: ('A' for Active; 'I' for Inactive)
REMARK    1  A    between atoms: C_5  and  N_6 
REMARK       I    between atoms: N_6  and  C_7 
REMARK       I    between atoms: C_7  and  N_8 
REMARK    2  A    between atoms: N_8  and  C_9 
REMARK    3  A    between atoms: C_11  and  C_12 
REMARK       I    between atoms: C_12  and  N_13 
REMARK    4  A    between atoms: N_13  and  C_14 
REMARK    5  A    between atoms: C_14  and  C_15 
ROOT
HETATM    1  C   UNL     1     -43.689  57.095 -51.785  1.00  0.00     0.175 A 
HETATM    2  S   UNL     1     -44.088  57.374 -53.408  1.00  0.00    -0.044 SA
HETATM    3  C   UNL     1     -43.238  58.876 -53.350  1.00  0.00     0.100 A 
HETATM    4  C   UNL     1     -42.752  59.072 -52.060  1.00  0.00     0.056 A 
HETATM    5  C   UNL     1     -41.931  60.200 -51.540  1.00  0.00     0.072 C 
HETATM    6  N   UNL     1     -43.027  58.040 -51.168  1.00  0.00    -0.228 NA
ENDROOT
BRANCH   1   7
HETATM    7  N   UNL     1     -44.077  55.886 -51.291  1.00  0.00    -0.287 N 
HETATM    8  C   UNL     1     -43.434  54.693 -51.469  1.00  0.00     0.326 C 
HETATM    9  N   UNL     1     -42.258  54.727 -52.171  1.00  0.00    -0.309 N 
HETATM   10  O   UNL     1     -43.969  53.687 -51.005  1.00  0.00    -0.247 OA
HETATM   11  H   UNL     1     -41.925  55.660 -52.399  1.00  0.00     0.170 HD
HETATM   12  H   UNL     1     -44.970  55.830 -50.824  1.00  0.00     0.172 HD
BRANCH   9  13
HETATM   13  C   UNL     1     -41.471  53.649 -52.617  1.00  0.00     0.036 A 
HETATM   14  C   UNL     1     -40.512  53.005 -51.835  1.00  0.00     0.030 A 
HETATM   15  C   UNL     1     -39.798  51.914 -52.344  1.00  0.00     0.009 A 
HETATM   16  C   UNL     1     -40.032  51.447 -53.641  1.00  0.00    -0.062 A 
HETATM   17  C   UNL     1     -39.249  50.286 -54.177  1.00  0.00     0.048 C 
HETATM   18  C   UNL     1     -40.981  52.103 -54.432  1.00  0.00     0.009 A 
HETATM   19  C   UNL     1     -41.697  53.190 -53.920  1.00  0.00     0.030 A 
ENDBRANCH   9  13
ENDBRANCH   1   7
BRANCH   3  20
HETATM   20  C   UNL     1     -43.099  59.643 -54.577  1.00  0.00     0.260 C 
HETATM   21  N   UNL     1     -42.355  59.049 -55.575  1.00  0.00    -0.352 N 
HETATM   22  H   UNL     1     -41.763  58.261 -55.363  1.00  0.00     0.163 HD
HETATM   23  O   UNL     1     -43.614  60.747 -54.748  1.00  0.00    -0.267 OA
BRANCH  21  24
HETATM   24  C   UNL     1     -42.237  59.622 -56.896  1.00  0.00     0.163 C 
BRANCH  24  25
HETATM   25  C   UNL     1     -42.358  58.587 -57.982  1.00  0.00    -0.019 A 
HETATM   26  C   UNL     1     -42.120  58.878 -59.336  1.00  0.00     0.042 A 
HETATM   27 CL   UNL     1     -41.721  60.477 -59.862  1.00  0.00    -0.084 Cl
HETATM   28  C   UNL     1     -42.204  57.876 -60.307  1.00  0.00     0.024 A 
HETATM   29  C   UNL     1     -42.533  56.571 -59.939  1.00  0.00     0.002 A 
HETATM   30  C   UNL     1     -42.789  56.270 -58.604  1.00  0.00     0.001 A 
HETATM   31  C   UNL     1     -42.708  57.271 -57.635  1.00  0.00     0.010 A 
ENDBRANCH  24  25
ENDBRANCH  21  24
ENDBRANCH   3  20
TORSDOF 5
ENDMDL
MODEL 6
REMARK VINA RESULT:      -8.2      1.775      2.141
REMARK  5 active torsions:
REMARK  status: ('A' for Active; 'I' for Inactive)
REMARK    1  A    between atoms: C_5  and  N_6 
REMARK       I    between atoms: N_6  and  C_7 
REMARK       I    between atoms: C_7  and  N_8 
REMARK    2  A    between atoms: N_8  and  C_9 
REMARK    3  A    between atoms: C_11  and  C_12 
REMARK       I    between atoms: C_12  and  N_13 
REMARK    4  A    between atoms: N_13  and  C_14 
REMARK    5  A    between atoms: C_14  and  C_15 
ROOT
HETATM    1  C   UNL     1     -44.635  57.805 -51.787  1.00  0.00     0.175 A 
HETATM    2  S   UNL     1     -43.421  57.931 -52.964  1.00  0.00    -0.044 SA
HETATM    3  C   UNL     1     -42.665  56.517 -52.321  1.00  0.00     0.100 A 
HETATM    4  C   UNL     1     -43.383  56.084 -51.210  1.00  0.00     0.056 A 
HETATM    5  C   UNL     1     -43.136  54.892 -50.353  1.00  0.00     0.072 C 
HETATM    6  N   UNL     1     -44.511  56.843 -50.910  1.00  0.00    -0.228 NA
ENDROOT
BRANCH   1   7
HETATM    7  N   UNL     1     -45.644  58.715 -51.894  1.00  0.00    -0.287 N 
HETATM    8  C   UNL     1     -45.896  59.750 -51.037  1.00  0.00     0.326 C 
HETATM    9  N   UNL     1     -45.018  59.916 -49.999  1.00  0.00    -0.309 N 
HETATM   10  O   UNL     1     -46.896  60.433 -51.253  1.00  0.00    -0.247 OA
HETATM   11  H   UNL     1     -44.200  59.313 -50.031  1.00  0.00     0.170 HD
HETATM   12  H   UNL     1     -46.334  58.574 -52.615  1.00  0.00     0.172 HD
BRANCH   9  13
HETATM   13  C   UNL     1     -45.110  60.797 -48.904  1.00  0.00     0.036 A 
HETATM   14  C   UNL     1     -45.590  60.434 -47.646  1.00  0.00     0.030 A 
HETATM   15  C   UNL     1     -45.612  61.363 -46.600  1.00  0.00     0.009 A 
HETATM   16  C   UNL     1     -45.151  62.669 -46.792  1.00  0.00    -0.062 A 
HETATM   17  C   UNL     1     -45.194  63.657 -45.665  1.00  0.00     0.048 C 
HETATM   18  C   UNL     1     -44.685  63.039 -48.057  1.00  0.00     0.009 A 
HETATM   19  C   UNL     1     -44.659  62.108 -49.101  1.00  0.00     0.030 A 
ENDBRANCH   9  13
ENDBRANCH   1   7
BRANCH   3  20
HETATM   20  C   UNL     1     -41.508  55.974 -53.014  1.00  0.00     0.260 C 
HETATM   21  N   UNL     1     -41.474  54.602 -53.141  1.00  0.00    -0.352 N 
HETATM   22  H   UNL     1     -42.085  54.026 -52.581  1.00  0.00     0.163 HD
HETATM   23  O   UNL     1     -40.608  56.671 -53.479  1.00  0.00    -0.267 OA
BRANCH  21  24
HETATM   24  C   UNL     1     -40.462  53.922 -53.917  1.00  0.00     0.163 C 
BRANCH  24  25
HETATM   25  C   UNL     1     -40.173  52.539 -53.396  1.00  0.00    -0.019 A 
HETATM   26  C   UNL     1     -39.838  52.289 -52.055  1.00  0.00     0.042 A 
HETATM   27 CL   UNL     1     -39.677  53.573 -50.907  1.00  0.00    -0.084 Cl
HETATM   28  C   UNL     1     -39.619  50.984 -51.605  1.00  0.00     0.024 A 
HETATM   29  C   UNL     1     -39.726  49.911 -52.491  1.00  0.00     0.002 A 
HETATM   30  C   UNL     1     -40.039  50.144 -53.827  1.00  0.00     0.001 A 
HETATM   31  C   UNL     1     -40.255  51.447 -54.277  1.00  0.00     0.010 A 
ENDBRANCH  24  25
ENDBRANCH  21  24
ENDBRANCH   3  20
TORSDOF 5
ENDMDL
MODEL 7
REMARK VINA RESULT:      -8.2     17.754     20.265
REMARK  5 active torsions:
REMARK  status: ('A' for Active; 'I' for Inactive)
REMARK    1  A    between atoms: C_5  and  N_6 
REMARK       I    between atoms: N_6  and  C_7 
REMARK       I    between atoms: C_7  and  N_8 
REMARK    2  A    between atoms: N_8  and  C_9 
REMARK    3  A    between atoms: C_11  and  C_12 
REMARK       I    between atoms: C_12  and  N_13 
REMARK    4  A    between atoms: N_13  and  C_14 
REMARK    5  A    between atoms: C_14  and  C_15 
ROOT
HETATM    1  C   UNL     1     -35.847  41.915 -57.344  1.00  0.00     0.175 A 
HETATM    2  S   UNL     1     -36.757  41.961 -55.915  1.00  0.00    -0.044 SA
HETATM    3  C   UNL     1     -35.435  41.249 -55.061  1.00  0.00     0.100 A 
HETATM    4  C   UNL     1     -34.407  40.982 -55.960  1.00  0.00     0.056 A 
HETATM    5  C   UNL     1     -33.062  40.405 -55.685  1.00  0.00     0.072 C 
HETATM    6  N   UNL     1     -34.663  41.364 -57.274  1.00  0.00    -0.228 NA
ENDROOT
BRANCH   1   7
HETATM    7  N   UNL     1     -36.439  42.491 -58.428  1.00  0.00    -0.287 N 
HETATM    8  C   UNL     1     -37.140  41.844 -59.408  1.00  0.00     0.326 C 
HETATM    9  N   UNL     1     -37.304  40.493 -59.255  1.00  0.00    -0.309 N 
HETATM   10  O   UNL     1     -37.547  42.519 -60.352  1.00  0.00    -0.247 OA
HETATM   11  H   UNL     1     -36.977  40.121 -58.368  1.00  0.00     0.170 HD
HETATM   12  H   UNL     1     -36.278  43.473 -58.590  1.00  0.00     0.172 HD
BRANCH   9  13
HETATM   13  C   UNL     1     -37.852  39.567 -60.164  1.00  0.00     0.036 A 
HETATM   14  C   UNL     1     -39.026  38.850 -59.938  1.00  0.00     0.030 A 
HETATM   15  C   UNL     1     -39.523  37.977 -60.912  1.00  0.00     0.009 A 
HETATM   16  C   UNL     1     -38.857  37.807 -62.129  1.00  0.00    -0.062 A 
HETATM   17  C   UNL     1     -39.394  36.857 -63.157  1.00  0.00     0.048 C 
HETATM   18  C   UNL     1     -37.670  38.512 -62.351  1.00  0.00     0.009 A 
HETATM   19  C   UNL     1     -37.177  39.389 -61.378  1.00  0.00     0.030 A 
ENDBRANCH   9  13
ENDBRANCH   1   7
BRANCH   3  20
HETATM   20  C   UNL     1     -35.542  41.097 -53.619  1.00  0.00     0.260 C 
HETATM   21  N   UNL     1     -34.651  41.835 -52.870  1.00  0.00    -0.352 N 
HETATM   22  H   UNL     1     -33.843  42.249 -53.309  1.00  0.00     0.163 HD
HETATM   23  O   UNL     1     -36.374  40.374 -53.074  1.00  0.00    -0.267 OA
BRANCH  21  24
HETATM   24  C   UNL     1     -34.717  41.895 -51.428  1.00  0.00     0.163 C 
BRANCH  24  25
HETATM   25  C   UNL     1     -33.946  40.781 -50.772  1.00  0.00    -0.019 A 
HETATM   26  C   UNL     1     -34.563  39.786 -49.997  1.00  0.00     0.042 A 
HETATM   27 CL   UNL     1     -36.266  39.802 -49.692  1.00  0.00    -0.084 Cl
HETATM   28  C   UNL     1     -33.813  38.745 -49.441  1.00  0.00     0.024 A 
HETATM   29  C   UNL     1     -32.434  38.689 -49.647  1.00  0.00     0.002 A 
HETATM   30  C   UNL     1     -31.805  39.678 -50.397  1.00  0.00     0.001 A 
HETATM   31  C   UNL     1     -32.553  40.719 -50.950  1.00  0.00     0.010 A 
ENDBRANCH  24  25
ENDBRANCH  21  24
ENDBRANCH   3  20
TORSDOF 5
ENDMDL
MODEL 8
REMARK VINA RESULT:      -8.1      4.154      6.175
REMARK  5 active torsions:
REMARK  status: ('A' for Active; 'I' for Inactive)
REMARK    1  A    between atoms: C_5  and  N_6 
REMARK       I    between atoms: N_6  and  C_7 
REMARK       I    between atoms: C_7  and  N_8 
REMARK    2  A    between atoms: N_8  and  C_9 
REMARK    3  A    between atoms: C_11  and  C_12 
REMARK       I    between atoms: C_12  and  N_13 
REMARK    4  A    between atoms: N_13  and  C_14 
REMARK    5  A    between atoms: C_14  and  C_15 
ROOT
HETATM    1  C   UNL     1     -43.265  57.501 -52.744  1.00  0.00     0.175 A 
HETATM    2  S   UNL     1     -43.060  55.829 -52.549  1.00  0.00    -0.044 SA
HETATM    3  C   UNL     1     -41.713  56.125 -51.508  1.00  0.00     0.100 A 
HETATM    4  C   UNL     1     -41.492  57.497 -51.432  1.00  0.00     0.056 A 
HETATM    5  C   UNL     1     -40.470  58.228 -50.633  1.00  0.00     0.072 C 
HETATM    6  N   UNL     1     -42.389  58.276 -52.157  1.00  0.00    -0.228 NA
ENDROOT
BRANCH   1   7
HETATM    7  N   UNL     1     -44.351  57.871 -53.478  1.00  0.00    -0.287 N 
HETATM    8  C   UNL     1     -44.364  58.164 -54.814  1.00  0.00     0.326 C 
HETATM    9  N   UNL     1     -43.179  58.022 -55.486  1.00  0.00    -0.309 N 
HETATM   10  O   UNL     1     -45.428  58.550 -55.297  1.00  0.00    -0.247 OA
HETATM   11  H   UNL     1     -42.428  57.607 -54.942  1.00  0.00     0.170 HD
HETATM   12  H   UNL     1     -45.217  58.040 -52.991  1.00  0.00     0.172 HD
BRANCH   9  13
HETATM   13  C   UNL     1     -42.874  58.382 -56.813  1.00  0.00     0.036 A 
HETATM   14  C   UNL     1     -42.560  59.679 -57.219  1.00  0.00     0.030 A 
HETATM   15  C   UNL     1     -42.231  59.944 -58.553  1.00  0.00     0.009 A 
HETATM   16  C   UNL     1     -42.208  58.918 -59.502  1.00  0.00    -0.062 A 
HETATM   17  C   UNL     1     -41.868  59.220 -60.931  1.00  0.00     0.048 C 
HETATM   18  C   UNL     1     -42.540  57.620 -59.100  1.00  0.00     0.009 A 
HETATM   19  C   UNL     1     -42.864  57.356 -57.765  1.00  0.00     0.030 A 
ENDBRANCH   9  13
ENDBRANCH   1   7
BRANCH   3  20
HETATM   20  C   UNL     1     -41.083  54.991 -50.852  1.00  0.00     0.260 C 
HETATM   21  N   UNL     1     -40.844  53.893 -51.649  1.00  0.00    -0.352 N 
HETATM   22  H   UNL     1     -41.296  53.811 -52.547  1.00  0.00     0.163 HD
HETATM   23  O   UNL     1     -40.760  54.989 -49.665  1.00  0.00    -0.267 OA
BRANCH  21  24
HETATM   24  C   UNL     1     -40.106  52.742 -51.180  1.00  0.00     0.163 C 
BRANCH  24  25
HETATM   25  C   UNL     1     -39.921  51.703 -52.253  1.00  0.00    -0.019 A 
HETATM   26  C   UNL     1     -39.657  50.354 -51.965  1.00  0.00     0.042 A 
HETATM   27 CL   UNL     1     -39.469  49.795 -50.339  1.00  0.00    -0.084 Cl
HETATM   28  C   UNL     1     -39.533  49.415 -52.993  1.00  0.00     0.024 A 
HETATM   29  C   UNL     1     -39.665  49.813 -54.324  1.00  0.00     0.002 A 
HETATM   30  C   UNL     1     -39.909  51.149 -54.627  1.00  0.00     0.001 A 
HETATM   31  C   UNL     1     -40.030  52.088 -53.601  1.00  0.00     0.010 A 
ENDBRANCH  24  25
ENDBRANCH  21  24
ENDBRANCH   3  20
TORSDOF 5
ENDMDL
MODEL 9
REMARK VINA RESULT:      -8.1      3.510      5.699
REMARK  5 active torsions:
REMARK  status: ('A' for Active; 'I' for Inactive)
REMARK    1  A    between atoms: C_5  and  N_6 
REMARK       I    between atoms: N_6  and  C_7 
REMARK       I    between atoms: C_7  and  N_8 
REMARK    2  A    between atoms: N_8  and  C_9 
REMARK    3  A    between atoms: C_11  and  C_12 
REMARK       I    between atoms: C_12  and  N_13 
REMARK    4  A    between atoms: N_13  and  C_14 
REMARK    5  A    between atoms: C_14  and  C_15 
ROOT
HETATM    1  C   UNL     1     -43.558  57.672 -51.484  1.00  0.00     0.175 A 
HETATM    2  S   UNL     1     -41.895  57.430 -51.263  1.00  0.00    -0.044 SA
HETATM    3  C   UNL     1     -42.211  55.820 -50.723  1.00  0.00     0.100 A 
HETATM    4  C   UNL     1     -43.587  55.609 -50.705  1.00  0.00     0.056 A 
HETATM    5  C   UNL     1     -44.331  54.370 -50.346  1.00  0.00     0.072 C 
HETATM    6  N   UNL     1     -44.350  56.690 -51.139  1.00  0.00    -0.228 NA
ENDROOT
BRANCH   1   7
HETATM    7  N   UNL     1     -43.903  58.871 -52.033  1.00  0.00    -0.287 N 
HETATM    8  C   UNL     1     -44.257  59.094 -53.334  1.00  0.00     0.326 C 
HETATM    9  N   UNL     1     -44.319  57.997 -54.151  1.00  0.00    -0.309 N 
HETATM   10  O   UNL     1     -44.471  60.258 -53.670  1.00  0.00    -0.247 OA
HETATM   11  H   UNL     1     -44.198  57.106 -53.678  1.00  0.00     0.170 HD
HETATM   12  H   UNL     1     -43.805  59.698 -51.464  1.00  0.00     0.172 HD
BRANCH   9  13
HETATM   13  C   UNL     1     -44.517  57.951 -55.544  1.00  0.00     0.036 A 
HETATM   14  C   UNL     1     -43.531  57.588 -56.463  1.00  0.00     0.030 A 
HETATM   15  C   UNL     1     -43.823  57.531 -57.831  1.00  0.00     0.009 A 
HETATM   16  C   UNL     1     -45.104  57.831 -58.303  1.00  0.00    -0.062 A 
HETATM   17  C   UNL     1     -45.398  57.779 -59.772  1.00  0.00     0.048 C 
HETATM   18  C   UNL     1     -46.089  58.211 -57.385  1.00  0.00     0.009 A 
HETATM   19  C   UNL     1     -45.797  58.263 -56.018  1.00  0.00     0.030 A 
ENDBRANCH   9  13
ENDBRANCH   1   7
BRANCH   3  20
HETATM   20  C   UNL     1     -41.081  54.948 -50.443  1.00  0.00     0.260 C 
HETATM   21  N   UNL     1     -41.185  53.659 -50.921  1.00  0.00    -0.352 N 
HETATM   22  H   UNL     1     -42.079  53.302 -51.222  1.00  0.00     0.163 HD
HETATM   23  O   UNL     1     -40.078  55.314 -49.834  1.00  0.00    -0.267 OA
BRANCH  21  24
HETATM   24  C   UNL     1     -40.095  52.714 -50.841  1.00  0.00     0.163 C 
BRANCH  24  25
HETATM   25  C   UNL     1     -39.982  51.864 -52.078  1.00  0.00    -0.019 A 
HETATM   26  C   UNL     1     -39.673  50.495 -52.030  1.00  0.00     0.042 A 
HETATM   27 CL   UNL     1     -39.341  49.693 -50.534  1.00  0.00    -0.084 Cl
HETATM   28  C   UNL     1     -39.619  49.733 -53.201  1.00  0.00     0.024 A 
HETATM   29  C   UNL     1     -39.868  50.331 -54.437  1.00  0.00     0.002 A 
HETATM   30  C   UNL     1     -40.158  51.691 -54.503  1.00  0.00     0.001 A 
HETATM   31  C   UNL     1     -40.208  52.453 -53.334  1.00  0.00     0.010 A 
ENDBRANCH  24  25
ENDBRANCH  21  24
ENDBRANCH   3  20
TORSDOF 5
ENDMDL
MODEL 10
REMARK VINA RESULT:      -7.9      6.270      7.640
REMARK  5 active torsions:
REMARK  status: ('A' for Active; 'I' for Inactive)
REMARK    1  A    between atoms: C_5  and  N_6 
REMARK       I    between atoms: N_6  and  C_7 
REMARK       I    between atoms: C_7  and  N_8 
REMARK    2  A    between atoms: N_8  and  C_9 
REMARK    3  A    between atoms: C_11  and  C_12 
REMARK       I    between atoms: C_12  and  N_13 
REMARK    4  A    between atoms: N_13  and  C_14 
REMARK    5  A    between atoms: C_14  and  C_15 
ROOT
HETATM    1  C   UNL     1     -44.067  58.511 -56.339  1.00  0.00     0.175 A 
HETATM    2  S   UNL     1     -43.636  58.620 -54.703  1.00  0.00    -0.044 SA
HETATM    3  C   UNL     1     -42.911  57.055 -54.800  1.00  0.00     0.100 A 
HETATM    4  C   UNL     1     -43.104  56.545 -56.080  1.00  0.00     0.056 A 
HETATM    5  C   UNL     1     -42.629  55.251 -56.643  1.00  0.00     0.072 C 
HETATM    6  N   UNL     1     -43.779  57.393 -56.954  1.00  0.00    -0.228 NA
ENDROOT
BRANCH   1   7
HETATM    7  N   UNL     1     -44.651  59.626 -56.862  1.00  0.00    -0.287 N 
HETATM    8  C   UNL     1     -44.067  60.525 -57.710  1.00  0.00     0.326 C 
HETATM    9  N   UNL     1     -42.787  60.249 -58.112  1.00  0.00    -0.309 N 
HETATM   10  O   UNL     1     -44.726  61.514 -58.027  1.00  0.00    -0.247 OA
HETATM   11  H   UNL     1     -42.435  59.341 -57.821  1.00  0.00     0.170 HD
HETATM   12  H   UNL     1     -45.570  59.879 -56.531  1.00  0.00     0.172 HD
BRANCH   9  13
HETATM   13  C   UNL     1     -41.908  61.057 -58.858  1.00  0.00     0.036 A 
HETATM   14  C   UNL     1     -40.874  61.808 -58.301  1.00  0.00     0.030 A 
HETATM   15  C   UNL     1     -40.019  62.556 -59.121  1.00  0.00     0.009 A 
HETATM   16  C   UNL     1     -40.183  62.562 -60.509  1.00  0.00    -0.062 A 
HETATM   17  C   UNL     1     -39.269  63.379 -61.372  1.00  0.00     0.048 C 
HETATM   18  C   UNL     1     -41.230  61.822 -61.067  1.00  0.00     0.009 A 
HETATM   19  C   UNL     1     -42.080  61.072 -60.248  1.00  0.00     0.030 A 
ENDBRANCH   9  13
ENDBRANCH   1   7
BRANCH   3  20
HETATM   20  C   UNL     1     -42.196  56.550 -53.639  1.00  0.00     0.260 C 
HETATM   21  N   UNL     1     -42.713  55.407 -53.067  1.00  0.00    -0.352 N 
HETATM   22  H   UNL     1     -43.646  55.103 -53.298  1.00  0.00     0.163 HD
HETATM   23  O   UNL     1     -41.184  57.080 -53.184  1.00  0.00    -0.267 OA
BRANCH  21  24
HETATM   24  C   UNL     1     -42.043  54.710 -51.993  1.00  0.00     0.163 C 
BRANCH  24  25
HETATM   25  C   UNL     1     -41.185  53.578 -52.492  1.00  0.00    -0.019 A 
HETATM   26  C   UNL     1     -40.216  52.952 -51.692  1.00  0.00     0.042 A 
HETATM   27 CL   UNL     1     -39.897  53.480 -50.075  1.00  0.00    -0.084 Cl
HETATM   28  C   UNL     1     -39.470  51.876 -52.183  1.00  0.00     0.024 A 
HETATM   29  C   UNL     1     -39.679  51.416 -53.483  1.00  0.00     0.002 A 
HETATM   30  C   UNL     1     -40.624  52.038 -54.295  1.00  0.00     0.001 A 
HETATM   31  C   UNL     1     -41.366  53.113 -53.806  1.00  0.00     0.010 A 
ENDBRANCH  24  25
ENDBRANCH  21  24
ENDBRANCH   3  20
TORSDOF 5
ENDMDL
