MODEL 1
REMARK VINA RESULT:      -7.8      0.000      0.000
REMARK  11 active torsions:
REMARK  status: ('A' for Active; 'I' for Inactive)
REMARK    1  A    between atoms: C_2  and  N_3 
REMARK    2  A    between atoms: N_3  and  C_5 
REMARK    3  A    between atoms: N_3  and  C_34 
REMARK    4  A    between atoms: C_5  and  C_6 
REMARK    5  A    between atoms: C_6  and  C_7 
REMARK    6  A    between atoms: C_7  and  N_8 
REMARK       I    between atoms: N_8  and  C_9 
REMARK    7  A    between atoms: C_9  and  C_10 
REMARK    8  A    between atoms: C_10  and  O_11 
REMARK    9  A    between atoms: N_12  and  C_13 
REMARK   10  A    between atoms: C_14  and  O_15 
REMARK   11  A    between atoms: C_18  and  O_19 
ROOT
HETATM    1  C   UNL     1     -42.449  56.313 -53.204  1.00  0.00     0.256 C 
HETATM    2  N   UNL     1     -42.534  55.124 -52.350  1.00  0.00    -0.251 N 
HETATM    3  C   UNL     1     -43.624  54.925 -51.519  1.00  0.00     0.330 C 
HETATM    4  O   UNL     1     -43.949  53.854 -51.010  1.00  0.00    -0.246 OA
HETATM    5  N   UNL     1     -44.374  56.028 -51.212  1.00  0.00    -0.308 N 
HETATM    6  C   UNL     1     -44.070  57.329 -51.601  1.00  0.00     0.048 A 
HETATM    7  C   UNL     1     -43.082  57.530 -52.558  1.00  0.00     0.035 A 
HETATM    8  C   UNL     1     -44.749  58.404 -51.027  1.00  0.00     0.031 A 
HETATM    9  C   UNL     1     -44.429  59.707 -51.412  1.00  0.00     0.021 A 
HETATM   10  C   UNL     1     -43.443  59.922 -52.372  1.00  0.00     0.011 A 
HETATM   11 BR   UNL     1     -43.021  61.684 -52.907  1.00  0.00    -0.051 Br
HETATM   12  C   UNL     1     -42.775  58.844 -52.951  1.00  0.00     0.034 A 
HETATM   13  H   UNL     1     -45.076  55.866 -50.502  1.00  0.00     0.170 HD
ENDROOT
BRANCH   1  14
HETATM   14  C   UNL     1     -43.177  56.074 -54.603  1.00  0.00     0.279 C 
HETATM   15  N   UNL     1     -42.384  56.102 -55.744  1.00  0.00    -0.356 N 
HETATM   16  H   UNL     1     -41.611  56.763 -55.692  1.00  0.00     0.162 HD
HETATM   17  O   UNL     1     -44.372  55.766 -54.664  1.00  0.00    -0.268 OA
BRANCH  15  18
HETATM   18  C   UNL     1     -42.972  55.862 -57.044  1.00  0.00     0.124 C 
BRANCH  18  19
HETATM   19  C   UNL     1     -42.869  57.096 -57.939  1.00  0.00     0.047 C 
BRANCH  19  20
HETATM   20  C   UNL     1     -44.253  57.707 -58.144  1.00  0.00     0.236 C 
BRANCH  20  21
HETATM   21  N   UNL     1     -45.226  56.781 -58.861  1.00  0.00    -0.072 N 
HETATM   22  H   UNL     1     -45.313  55.957 -58.248  1.00  0.00     0.279 HD
BRANCH  21  23
HETATM   23  C   UNL     1     -44.730  56.230 -60.191  1.00  0.00     0.230 C 
HETATM   24  C   UNL     1     -44.776  54.713 -60.217  1.00  0.00     0.034 C 
ENDBRANCH  21  23
BRANCH  21  25
HETATM   25  C   UNL     1     -46.642  57.314 -59.006  1.00  0.00     0.230 C 
HETATM   26  C   UNL     1     -47.086  58.064 -57.762  1.00  0.00     0.034 C 
ENDBRANCH  21  25
ENDBRANCH  20  21
ENDBRANCH  19  20
ENDBRANCH  18  19
ENDBRANCH  15  18
ENDBRANCH   1  14
BRANCH   1  27
HETATM   27  O   UNL     1     -41.080  56.655 -53.426  1.00  0.00    -0.359 OA
HETATM   28  H   UNL     1     -41.053  57.625 -53.498  1.00  0.00     0.213 HD
ENDBRANCH   1  27
BRANCH   2  29
HETATM   29  C   UNL     1     -41.632  54.047 -52.592  1.00  0.00     0.076 A 
HETATM   30  C   UNL     1     -40.568  53.738 -51.729  1.00  0.00     0.098 A 
HETATM   31  C   UNL     1     -39.694  52.682 -52.040  1.00  0.00     0.075 A 
HETATM   32  C   UNL     1     -39.851  51.965 -53.230  1.00  0.00     0.070 A 
HETATM   33  C   UNL     1     -40.900  52.284 -54.091  1.00  0.00     0.039 A 
HETATM   34  C   UNL     1     -41.785  53.316 -53.776  1.00  0.00     0.035 A 
BRANCH  30  35
HETATM   35  O   UNL     1     -40.481  54.424 -50.538  1.00  0.00    -0.354 OA
HETATM   36  C   UNL     1     -40.568  53.565 -49.398  1.00  0.00     0.210 C 
ENDBRANCH  30  35
BRANCH  32  37
HETATM   37  O   UNL     1     -39.067  50.930 -53.658  1.00  0.00    -0.356 OA
HETATM   38  C   UNL     1     -39.688  49.929 -54.453  1.00  0.00     0.210 C 
ENDBRANCH  32  37
ENDBRANCH   2  29
TORSDOF 11
ENDMDL
MODEL 2
REMARK VINA RESULT:      -7.1      2.617      7.221
REMARK  11 active torsions:
REMARK  status: ('A' for Active; 'I' for Inactive)
REMARK    1  A    between atoms: C_2  and  N_3 
REMARK    2  A    between atoms: N_3  and  C_5 
REMARK    3  A    between atoms: N_3  and  C_34 
REMARK    4  A    between atoms: C_5  and  C_6 
REMARK    5  A    between atoms: C_6  and  C_7 
REMARK    6  A    between atoms: C_7  and  N_8 
REMARK       I    between atoms: N_8  and  C_9 
REMARK    7  A    between atoms: C_9  and  C_10 
REMARK    8  A    between atoms: C_10  and  O_11 
REMARK    9  A    between atoms: N_12  and  C_13 
REMARK   10  A    between atoms: C_14  and  O_15 
REMARK   11  A    between atoms: C_18  and  O_19 
ROOT
HETATM    1  C   UNL     1     -43.652  58.018 -55.123  1.00  0.00     0.256 C 
HETATM    2  N   UNL     1     -43.134  58.621 -56.357  1.00  0.00    -0.251 N 
HETATM    3  C   UNL     1     -42.179  59.621 -56.309  1.00  0.00     0.330 C 
HETATM    4  O   UNL     1     -41.464  59.972 -57.247  1.00  0.00    -0.246 OA
HETATM    5  N   UNL     1     -42.055  60.299 -55.128  1.00  0.00    -0.308 N 
HETATM    6  C   UNL     1     -42.869  60.113 -54.016  1.00  0.00     0.048 A 
HETATM    7  C   UNL     1     -43.721  59.015 -53.984  1.00  0.00     0.035 A 
HETATM    8  C   UNL     1     -42.826  61.025 -52.960  1.00  0.00     0.031 A 
HETATM    9  C   UNL     1     -43.656  60.840 -51.853  1.00  0.00     0.021 A 
HETATM   10  C   UNL     1     -44.513  59.741 -51.808  1.00  0.00     0.011 A 
HETATM   11 BR   UNL     1     -45.625  59.480 -50.304  1.00  0.00    -0.051 Br
HETATM   12  C   UNL     1     -44.545  58.828 -52.860  1.00  0.00     0.034 A 
HETATM   13  H   UNL     1     -41.444  61.105 -55.175  1.00  0.00     0.170 HD
ENDROOT
BRANCH   1  14
HETATM   14  C   UNL     1     -42.736  56.801 -54.647  1.00  0.00     0.279 C 
HETATM   15  N   UNL     1     -43.349  55.560 -54.520  1.00  0.00    -0.356 N 
HETATM   16  H   UNL     1     -44.317  55.607 -54.206  1.00  0.00     0.162 HD
HETATM   17  O   UNL     1     -41.517  56.929 -54.503  1.00  0.00    -0.268 OA
BRANCH  15  18
HETATM   18  C   UNL     1     -42.573  54.405 -54.122  1.00  0.00     0.124 C 
BRANCH  18  19
HETATM   19  C   UNL     1     -42.652  54.173 -52.613  1.00  0.00     0.047 C 
BRANCH  19  20
HETATM   20  C   UNL     1     -41.286  54.416 -51.977  1.00  0.00     0.236 C 
BRANCH  20  21
HETATM   21  N   UNL     1     -41.332  55.351 -50.777  1.00  0.00    -0.072 N 
HETATM   22  H   UNL     1     -40.373  55.715 -50.684  1.00  0.00     0.279 HD
BRANCH  21  23
HETATM   23  C   UNL     1     -41.627  54.676 -49.445  1.00  0.00     0.230 C 
HETATM   24  C   UNL     1     -40.351  54.266 -48.734  1.00  0.00     0.034 C 
ENDBRANCH  21  23
BRANCH  21  25
HETATM   25  C   UNL     1     -42.205  56.584 -50.948  1.00  0.00     0.230 C 
HETATM   26  C   UNL     1     -41.381  57.858 -50.931  1.00  0.00     0.034 C 
ENDBRANCH  21  25
ENDBRANCH  20  21
ENDBRANCH  19  20
ENDBRANCH  18  19
ENDBRANCH  15  18
ENDBRANCH   1  14
BRANCH   1  27
HETATM   27  O   UNL     1     -44.990  57.563 -55.328  1.00  0.00    -0.359 OA
HETATM   28  H   UNL     1     -45.128  57.561 -56.292  1.00  0.00     0.213 HD
ENDBRANCH   1  27
BRANCH   2  29
HETATM   29  C   UNL     1     -43.413  57.975 -57.597  1.00  0.00     0.076 A 
HETATM   30  C   UNL     1     -44.561  58.253 -58.358  1.00  0.00     0.098 A 
HETATM   31  C   UNL     1     -44.793  57.559 -59.558  1.00  0.00     0.075 A 
HETATM   32  C   UNL     1     -43.910  56.559 -59.976  1.00  0.00     0.070 A 
HETATM   33  C   UNL     1     -42.780  56.277 -59.211  1.00  0.00     0.039 A 
HETATM   34  C   UNL     1     -42.531  56.978 -58.031  1.00  0.00     0.035 A 
BRANCH  30  35
HETATM   35  O   UNL     1     -45.374  59.285 -57.948  1.00  0.00    -0.354 OA
HETATM   36  C   UNL     1     -46.764  58.983 -58.090  1.00  0.00     0.210 C 
ENDBRANCH  30  35
BRANCH  32  37
HETATM   37  O   UNL     1     -44.026  55.803 -61.109  1.00  0.00    -0.356 OA
HETATM   38  C   UNL     1     -45.220  55.050 -61.270  1.00  0.00     0.210 C 
ENDBRANCH  32  37
ENDBRANCH   2  29
TORSDOF 11
ENDMDL
MODEL 3
REMARK VINA RESULT:      -6.9      1.448      2.032
REMARK  11 active torsions:
REMARK  status: ('A' for Active; 'I' for Inactive)
REMARK    1  A    between atoms: C_2  and  N_3 
REMARK    2  A    between atoms: N_3  and  C_5 
REMARK    3  A    between atoms: N_3  and  C_34 
REMARK    4  A    between atoms: C_5  and  C_6 
REMARK    5  A    between atoms: C_6  and  C_7 
REMARK    6  A    between atoms: C_7  and  N_8 
REMARK       I    between atoms: N_8  and  C_9 
REMARK    7  A    between atoms: C_9  and  C_10 
REMARK    8  A    between atoms: C_10  and  O_11 
REMARK    9  A    between atoms: N_12  and  C_13 
REMARK   10  A    between atoms: C_14  and  O_15 
REMARK   11  A    between atoms: C_18  and  O_19 
ROOT
HETATM    1  C   UNL     1     -42.584  56.512 -52.979  1.00  0.00     0.256 C 
HETATM    2  N   UNL     1     -42.694  55.286 -52.181  1.00  0.00    -0.251 N 
HETATM    3  C   UNL     1     -43.810  55.049 -51.397  1.00  0.00     0.330 C 
HETATM    4  O   UNL     1     -44.149  53.956 -50.946  1.00  0.00    -0.246 OA
HETATM    5  N   UNL     1     -44.574  56.136 -51.068  1.00  0.00    -0.308 N 
HETATM    6  C   UNL     1     -44.262  57.453 -51.389  1.00  0.00     0.048 A 
HETATM    7  C   UNL     1     -43.243  57.698 -52.302  1.00  0.00     0.035 A 
HETATM    8  C   UNL     1     -44.964  58.501 -50.792  1.00  0.00     0.031 A 
HETATM    9  C   UNL     1     -44.636  59.820 -51.109  1.00  0.00     0.021 A 
HETATM   10  C   UNL     1     -43.619  60.079 -52.025  1.00  0.00     0.011 A 
HETATM   11 BR   UNL     1     -43.185  61.863 -52.467  1.00  0.00    -0.051 Br
HETATM   12  C   UNL     1     -42.927  59.029 -52.626  1.00  0.00     0.034 A 
HETATM   13  H   UNL     1     -45.299  55.942 -50.390  1.00  0.00     0.170 HD
ENDROOT
BRANCH   1  14
HETATM   14  C   UNL     1     -43.263  56.332 -54.411  1.00  0.00     0.279 C 
HETATM   15  N   UNL     1     -42.489  56.642 -55.523  1.00  0.00    -0.356 N 
HETATM   16  H   UNL     1     -41.842  57.414 -55.373  1.00  0.00     0.162 HD
HETATM   17  O   UNL     1     -44.387  55.835 -54.534  1.00  0.00    -0.268 OA
BRANCH  15  18
HETATM   18  C   UNL     1     -43.030  56.473 -56.854  1.00  0.00     0.124 C 
BRANCH  18  19
HETATM   19  C   UNL     1     -42.421  57.474 -57.836  1.00  0.00     0.047 C 
BRANCH  19  20
HETATM   20  C   UNL     1     -43.529  58.265 -58.526  1.00  0.00     0.236 C 
BRANCH  20  21
HETATM   21  N   UNL     1     -43.420  59.769 -58.320  1.00  0.00    -0.072 N 
HETATM   22  H   UNL     1     -44.259  60.027 -57.780  1.00  0.00     0.279 HD
BRANCH  21  23
HETATM   23  C   UNL     1     -43.502  60.601 -59.593  1.00  0.00     0.230 C 
HETATM   24  C   UNL     1     -43.731  59.730 -60.814  1.00  0.00     0.034 C 
ENDBRANCH  21  23
BRANCH  21  25
HETATM   25  C   UNL     1     -42.248  60.225 -57.466  1.00  0.00     0.230 C 
HETATM   26  C   UNL     1     -41.297  61.111 -58.250  1.00  0.00     0.034 C 
ENDBRANCH  21  25
ENDBRANCH  20  21
ENDBRANCH  19  20
ENDBRANCH  18  19
ENDBRANCH  15  18
ENDBRANCH   1  14
BRANCH   1  27
HETATM   27  O   UNL     1     -41.209  56.866 -53.139  1.00  0.00    -0.359 OA
HETATM   28  H   UNL     1     -40.767  56.075 -53.492  1.00  0.00     0.213 HD
ENDBRANCH   1  27
BRANCH   2  29
HETATM   29  C   UNL     1     -41.780  54.223 -52.439  1.00  0.00     0.076 A 
HETATM   30  C   UNL     1     -40.778  53.843 -51.529  1.00  0.00     0.098 A 
HETATM   31  C   UNL     1     -39.889  52.806 -51.857  1.00  0.00     0.075 A 
HETATM   32  C   UNL     1     -39.964  52.180 -53.104  1.00  0.00     0.070 A 
HETATM   33  C   UNL     1     -40.951  52.569 -54.009  1.00  0.00     0.039 A 
HETATM   34  C   UNL     1     -41.852  53.582 -53.681  1.00  0.00     0.035 A 
BRANCH  30  35
HETATM   35  O   UNL     1     -40.773  54.440 -50.288  1.00  0.00    -0.354 OA
HETATM   36  C   UNL     1     -39.526  54.283 -49.606  1.00  0.00     0.210 C 
ENDBRANCH  30  35
BRANCH  32  37
HETATM   37  O   UNL     1     -39.156  51.173 -53.551  1.00  0.00    -0.356 OA
HETATM   38  C   UNL     1     -39.666  49.848 -53.483  1.00  0.00     0.210 C 
ENDBRANCH  32  37
ENDBRANCH   2  29
TORSDOF 11
ENDMDL
MODEL 4
REMARK VINA RESULT:      -6.8      2.902      5.474
REMARK  11 active torsions:
REMARK  status: ('A' for Active; 'I' for Inactive)
REMARK    1  A    between atoms: C_2  and  N_3 
REMARK    2  A    between atoms: N_3  and  C_5 
REMARK    3  A    between atoms: N_3  and  C_34 
REMARK    4  A    between atoms: C_5  and  C_6 
REMARK    5  A    between atoms: C_6  and  C_7 
REMARK    6  A    between atoms: C_7  and  N_8 
REMARK       I    between atoms: N_8  and  C_9 
REMARK    7  A    between atoms: C_9  and  C_10 
REMARK    8  A    between atoms: C_10  and  O_11 
REMARK    9  A    between atoms: N_12  and  C_13 
REMARK   10  A    between atoms: C_14  and  O_15 
REMARK   11  A    between atoms: C_18  and  O_19 
ROOT
HETATM    1  C   UNL     1     -42.721  57.866 -53.592  1.00  0.00     0.256 C 
HETATM    2  N   UNL     1     -43.190  57.579 -52.231  1.00  0.00    -0.251 N 
HETATM    3  C   UNL     1     -44.515  57.781 -51.882  1.00  0.00     0.330 C 
HETATM    4  O   UNL     1     -45.076  57.298 -50.899  1.00  0.00    -0.246 OA
HETATM    5  N   UNL     1     -45.241  58.622 -52.680  1.00  0.00    -0.308 N 
HETATM    6  C   UNL     1     -44.726  59.344 -53.751  1.00  0.00     0.048 A 
HETATM    7  C   UNL     1     -43.451  59.039 -54.215  1.00  0.00     0.035 A 
HETATM    8  C   UNL     1     -45.483  60.360 -54.335  1.00  0.00     0.031 A 
HETATM    9  C   UNL     1     -44.954  61.090 -55.401  1.00  0.00     0.021 A 
HETATM   10  C   UNL     1     -43.678  60.792 -55.877  1.00  0.00     0.011 A 
HETATM   11 BR   UNL     1     -42.967  61.768 -57.330  1.00  0.00    -0.051 Br
HETATM   12  C   UNL     1     -42.930  59.770 -55.297  1.00  0.00     0.034 A 
HETATM   13  H   UNL     1     -46.159  58.845 -52.318  1.00  0.00     0.170 HD
ENDROOT
BRANCH   1  14
HETATM   14  C   UNL     1     -42.924  56.605 -54.549  1.00  0.00     0.279 C 
HETATM   15  N   UNL     1     -41.844  55.742 -54.697  1.00  0.00    -0.356 N 
HETATM   16  H   UNL     1     -40.938  56.206 -54.669  1.00  0.00     0.162 HD
HETATM   17  O   UNL     1     -44.022  56.346 -55.050  1.00  0.00    -0.268 OA
BRANCH  15  18
HETATM   18  C   UNL     1     -41.966  54.562 -55.526  1.00  0.00     0.124 C 
BRANCH  18  19
HETATM   19  C   UNL     1     -41.821  53.284 -54.701  1.00  0.00     0.047 C 
BRANCH  19  20
HETATM   20  C   UNL     1     -40.612  53.396 -53.777  1.00  0.00     0.236 C 
BRANCH  20  21
HETATM   21  N   UNL     1     -40.214  52.075 -53.134  1.00  0.00    -0.072 N 
HETATM   22  H   UNL     1     -41.103  51.591 -52.941  1.00  0.00     0.279 HD
BRANCH  21  23
HETATM   23  C   UNL     1     -39.532  52.198 -51.778  1.00  0.00     0.230 C 
HETATM   24  C   UNL     1     -39.861  51.018 -50.880  1.00  0.00     0.034 C 
ENDBRANCH  21  23
BRANCH  21  25
HETATM   25  C   UNL     1     -39.437  51.125 -54.031  1.00  0.00     0.230 C 
HETATM   26  C   UNL     1     -40.233  49.869 -54.337  1.00  0.00     0.034 C 
ENDBRANCH  21  25
ENDBRANCH  20  21
ENDBRANCH  19  20
ENDBRANCH  18  19
ENDBRANCH  15  18
ENDBRANCH   1  14
BRANCH   1  27
HETATM   27  O   UNL     1     -41.341  58.232 -53.563  1.00  0.00    -0.359 OA
HETATM   28  H   UNL     1     -41.292  59.054 -53.044  1.00  0.00     0.213 HD
ENDBRANCH   1  27
BRANCH   2  29
HETATM   29  C   UNL     1     -42.342  56.831 -51.364  1.00  0.00     0.076 A 
HETATM   30  C   UNL     1     -41.277  57.412 -50.654  1.00  0.00     0.098 A 
HETATM   31  C   UNL     1     -40.458  56.613 -49.838  1.00  0.00     0.075 A 
HETATM   32  C   UNL     1     -40.668  55.234 -49.764  1.00  0.00     0.070 A 
HETATM   33  C   UNL     1     -41.717  54.659 -50.480  1.00  0.00     0.039 A 
HETATM   34  C   UNL     1     -42.549  55.449 -51.274  1.00  0.00     0.035 A 
BRANCH  30  35
HETATM   35  O   UNL     1     -41.138  58.781 -50.703  1.00  0.00    -0.354 OA
HETATM   36  C   UNL     1     -39.777  59.203 -50.587  1.00  0.00     0.210 C 
ENDBRANCH  30  35
BRANCH  32  37
HETATM   37  O   UNL     1     -39.940  54.345 -49.023  1.00  0.00    -0.356 OA
HETATM   38  C   UNL     1     -40.612  53.672 -47.968  1.00  0.00     0.210 C 
ENDBRANCH  32  37
ENDBRANCH   2  29
TORSDOF 11
ENDMDL
MODEL 5
REMARK VINA RESULT:      -6.7      2.641      6.812
REMARK  11 active torsions:
REMARK  status: ('A' for Active; 'I' for Inactive)
REMARK    1  A    between atoms: C_2  and  N_3 
REMARK    2  A    between atoms: N_3  and  C_5 
REMARK    3  A    between atoms: N_3  and  C_34 
REMARK    4  A    between atoms: C_5  and  C_6 
REMARK    5  A    between atoms: C_6  and  C_7 
REMARK    6  A    between atoms: C_7  and  N_8 
REMARK       I    between atoms: N_8  and  C_9 
REMARK    7  A    between atoms: C_9  and  C_10 
REMARK    8  A    between atoms: C_10  and  O_11 
REMARK    9  A    between atoms: N_12  and  C_13 
REMARK   10  A    between atoms: C_14  and  O_15 
REMARK   11  A    between atoms: C_18  and  O_19 
ROOT
HETATM    1  C   UNL     1     -44.078  58.982 -54.507  1.00  0.00     0.256 C 
HETATM    2  N   UNL     1     -43.352  59.091 -55.777  1.00  0.00    -0.251 N 
HETATM    3  C   UNL     1     -42.320  60.003 -55.926  1.00  0.00     0.330 C 
HETATM    4  O   UNL     1     -41.461  59.971 -56.806  1.00  0.00    -0.246 OA
HETATM    5  N   UNL     1     -42.286  61.045 -55.041  1.00  0.00    -0.308 N 
HETATM    6  C   UNL     1     -43.251  61.295 -54.071  1.00  0.00     0.048 A 
HETATM    7  C   UNL     1     -44.199  60.317 -53.799  1.00  0.00     0.035 A 
HETATM    8  C   UNL     1     -43.257  62.516 -53.394  1.00  0.00     0.031 A 
HETATM    9  C   UNL     1     -44.237  62.766 -52.431  1.00  0.00     0.021 A 
HETATM   10  C   UNL     1     -45.192  61.792 -52.147  1.00  0.00     0.011 A 
HETATM   11 BR   UNL     1     -46.508  62.122 -50.833  1.00  0.00    -0.051 Br
HETATM   12  C   UNL     1     -45.175  60.570 -52.818  1.00  0.00     0.034 A 
HETATM   13  H   UNL     1     -41.600  61.755 -55.264  1.00  0.00     0.170 HD
ENDROOT
BRANCH   1  14
HETATM   14  C   UNL     1     -43.351  57.969 -53.511  1.00  0.00     0.279 C 
HETATM   15  N   UNL     1     -44.104  56.905 -53.028  1.00  0.00    -0.356 N 
HETATM   16  H   UNL     1     -45.087  57.129 -52.881  1.00  0.00     0.162 HD
HETATM   17  O   UNL     1     -42.144  58.061 -53.266  1.00  0.00    -0.268 OA
BRANCH  15  18
HETATM   18  C   UNL     1     -43.500  55.931 -52.145  1.00  0.00     0.124 C 
BRANCH  18  19
HETATM   19  C   UNL     1     -43.540  54.529 -52.751  1.00  0.00     0.047 C 
BRANCH  19  20
HETATM   20  C   UNL     1     -42.379  54.350 -53.725  1.00  0.00     0.236 C 
BRANCH  20  21
HETATM   21  N   UNL     1     -41.369  53.300 -53.282  1.00  0.00    -0.072 N 
HETATM   22  H   UNL     1     -41.920  52.440 -53.144  1.00  0.00     0.279 HD
BRANCH  21  23
HETATM   23  C   UNL     1     -40.713  53.567 -51.935  1.00  0.00     0.230 C 
HETATM   24  C   UNL     1     -39.829  52.409 -51.507  1.00  0.00     0.034 C 
ENDBRANCH  21  23
BRANCH  21  25
HETATM   25  C   UNL     1     -40.319  52.932 -54.317  1.00  0.00     0.230 C 
HETATM   26  C   UNL     1     -40.057  54.078 -55.278  1.00  0.00     0.034 C 
ENDBRANCH  21  25
ENDBRANCH  20  21
ENDBRANCH  19  20
ENDBRANCH  18  19
ENDBRANCH  15  18
ENDBRANCH   1  14
BRANCH   1  27
HETATM   27  O   UNL     1     -45.416  58.543 -54.748  1.00  0.00    -0.359 OA
HETATM   28  H   UNL     1     -45.885  59.307 -55.127  1.00  0.00     0.213 HD
ENDBRANCH   1  27
BRANCH   2  29
HETATM   29  C   UNL     1     -43.529  58.066 -56.751  1.00  0.00     0.076 A 
HETATM   30  C   UNL     1     -44.474  58.155 -57.787  1.00  0.00     0.098 A 
HETATM   31  C   UNL     1     -44.620  57.095 -58.698  1.00  0.00     0.075 A 
HETATM   32  C   UNL     1     -43.861  55.931 -58.552  1.00  0.00     0.070 A 
HETATM   33  C   UNL     1     -42.934  55.841 -57.515  1.00  0.00     0.039 A 
HETATM   34  C   UNL     1     -42.767  56.898 -56.621  1.00  0.00     0.035 A 
BRANCH  30  35
HETATM   35  O   UNL     1     -45.160  59.340 -57.936  1.00  0.00    -0.354 OA
HETATM   36  C   UNL     1     -46.352  59.194 -58.711  1.00  0.00     0.210 C 
ENDBRANCH  30  35
BRANCH  32  37
HETATM   37  O   UNL     1     -43.915  54.826 -59.356  1.00  0.00    -0.356 OA
HETATM   38  C   UNL     1     -44.895  54.818 -60.386  1.00  0.00     0.210 C 
ENDBRANCH  32  37
ENDBRANCH   2  29
TORSDOF 11
ENDMDL
MODEL 6
REMARK VINA RESULT:      -6.7      2.046      3.237
REMARK  11 active torsions:
REMARK  status: ('A' for Active; 'I' for Inactive)
REMARK    1  A    between atoms: C_2  and  N_3 
REMARK    2  A    between atoms: N_3  and  C_5 
REMARK    3  A    between atoms: N_3  and  C_34 
REMARK    4  A    between atoms: C_5  and  C_6 
REMARK    5  A    between atoms: C_6  and  C_7 
REMARK    6  A    between atoms: C_7  and  N_8 
REMARK       I    between atoms: N_8  and  C_9 
REMARK    7  A    between atoms: C_9  and  C_10 
REMARK    8  A    between atoms: C_10  and  O_11 
REMARK    9  A    between atoms: N_12  and  C_13 
REMARK   10  A    between atoms: C_14  and  O_15 
REMARK   11  A    between atoms: C_18  and  O_19 
ROOT
HETATM    1  C   UNL     1     -42.359  58.906 -51.467  1.00  0.00     0.256 C 
HETATM    2  N   UNL     1     -42.902  57.593 -51.103  1.00  0.00    -0.251 N 
HETATM    3  C   UNL     1     -44.267  57.407 -50.958  1.00  0.00     0.330 C 
HETATM    4  O   UNL     1     -44.845  56.321 -50.964  1.00  0.00    -0.246 OA
HETATM    5  N   UNL     1     -45.023  58.528 -50.749  1.00  0.00    -0.308 N 
HETATM    6  C   UNL     1     -44.512  59.812 -50.589  1.00  0.00     0.048 A 
HETATM    7  C   UNL     1     -43.175  60.045 -50.888  1.00  0.00     0.035 A 
HETATM    8  C   UNL     1     -45.339  60.838 -50.130  1.00  0.00     0.031 A 
HETATM    9  C   UNL     1     -44.816  62.121 -49.959  1.00  0.00     0.021 A 
HETATM   10  C   UNL     1     -43.478  62.368 -50.257  1.00  0.00     0.011 A 
HETATM   11 BR   UNL     1     -42.773  64.108 -50.042  1.00  0.00    -0.051 Br
HETATM   12  C   UNL     1     -42.658  61.343 -50.726  1.00  0.00     0.034 A 
HETATM   13  H   UNL     1     -45.989  58.338 -50.517  1.00  0.00     0.170 HD
ENDROOT
BRANCH   1  14
HETATM   14  C   UNL     1     -42.318  59.095 -53.050  1.00  0.00     0.279 C 
HETATM   15  N   UNL     1     -43.525  58.992 -53.732  1.00  0.00    -0.356 N 
HETATM   16  H   UNL     1     -44.171  58.316 -53.328  1.00  0.00     0.162 HD
HETATM   17  O   UNL     1     -41.282  59.428 -53.634  1.00  0.00    -0.268 OA
BRANCH  15  18
HETATM   18  C   UNL     1     -43.568  59.183 -55.166  1.00  0.00     0.124 C 
BRANCH  18  19
HETATM   19  C   UNL     1     -44.391  58.092 -55.850  1.00  0.00     0.047 C 
BRANCH  19  20
HETATM   20  C   UNL     1     -44.151  58.128 -57.356  1.00  0.00     0.236 C 
BRANCH  20  21
HETATM   21  N   UNL     1     -44.521  56.830 -58.061  1.00  0.00    -0.072 N 
HETATM   22  H   UNL     1     -45.190  56.363 -57.432  1.00  0.00     0.279 HD
BRANCH  21  23
HETATM   23  C   UNL     1     -43.378  55.837 -58.224  1.00  0.00     0.230 C 
HETATM   24  C   UNL     1     -42.704  55.981 -59.577  1.00  0.00     0.034 C 
ENDBRANCH  21  23
BRANCH  21  25
HETATM   25  C   UNL     1     -45.268  56.995 -59.375  1.00  0.00     0.230 C 
HETATM   26  C   UNL     1     -46.757  57.184 -59.150  1.00  0.00     0.034 C 
ENDBRANCH  21  25
ENDBRANCH  20  21
ENDBRANCH  19  20
ENDBRANCH  18  19
ENDBRANCH  15  18
ENDBRANCH   1  14
BRANCH   1  27
HETATM   27  O   UNL     1     -41.043  59.053 -50.930  1.00  0.00    -0.359 OA
HETATM   28  H   UNL     1     -40.746  59.944 -51.188  1.00  0.00     0.213 HD
ENDBRANCH   1  27
BRANCH   2  29
HETATM   29  C   UNL     1     -42.044  56.457 -51.178  1.00  0.00     0.076 A 
HETATM   30  C   UNL     1     -41.918  55.675 -52.339  1.00  0.00     0.098 A 
HETATM   31  C   UNL     1     -41.077  54.549 -52.339  1.00  0.00     0.075 A 
HETATM   32  C   UNL     1     -40.400  54.175 -51.175  1.00  0.00     0.070 A 
HETATM   33  C   UNL     1     -40.538  54.946 -50.022  1.00  0.00     0.039 A 
HETATM   34  C   UNL     1     -41.353  56.078 -50.021  1.00  0.00     0.035 A 
BRANCH  30  35
HETATM   35  O   UNL     1     -42.551  56.108 -53.482  1.00  0.00    -0.354 OA
HETATM   36  C   UNL     1     -41.840  55.761 -54.673  1.00  0.00     0.210 C 
ENDBRANCH  30  35
BRANCH  32  37
HETATM   37  O   UNL     1     -39.567  53.100 -51.037  1.00  0.00    -0.356 OA
HETATM   38  C   UNL     1     -39.718  52.035 -51.966  1.00  0.00     0.210 C 
ENDBRANCH  32  37
ENDBRANCH   2  29
TORSDOF 11
ENDMDL
MODEL 7
REMARK VINA RESULT:      -6.7     15.639     18.563
REMARK  11 active torsions:
REMARK  status: ('A' for Active; 'I' for Inactive)
REMARK    1  A    between atoms: C_2  and  N_3 
REMARK    2  A    between atoms: N_3  and  C_5 
REMARK    3  A    between atoms: N_3  and  C_34 
REMARK    4  A    between atoms: C_5  and  C_6 
REMARK    5  A    between atoms: C_6  and  C_7 
REMARK    6  A    between atoms: C_7  and  N_8 
REMARK       I    between atoms: N_8  and  C_9 
REMARK    7  A    between atoms: C_9  and  C_10 
REMARK    8  A    between atoms: C_10  and  O_11 
REMARK    9  A    between atoms: N_12  and  C_13 
REMARK   10  A    between atoms: C_14  and  O_15 
REMARK   11  A    between atoms: C_18  and  O_19 
ROOT
HETATM    1  C   UNL     1     -35.700  39.741 -53.695  1.00  0.00     0.256 C 
HETATM    2  N   UNL     1     -34.986  40.873 -53.095  1.00  0.00    -0.251 N 
HETATM    3  C   UNL     1     -35.498  42.157 -53.176  1.00  0.00     0.330 C 
HETATM    4  O   UNL     1     -35.164  43.106 -52.468  1.00  0.00    -0.246 OA
HETATM    5  N   UNL     1     -36.423  42.390 -54.157  1.00  0.00    -0.308 N 
HETATM    6  C   UNL     1     -36.814  41.463 -55.117  1.00  0.00     0.048 A 
HETATM    7  C   UNL     1     -36.438  40.134 -54.960  1.00  0.00     0.035 A 
HETATM    8  C   UNL     1     -37.565  41.875 -56.219  1.00  0.00     0.031 A 
HETATM    9  C   UNL     1     -37.942  40.942 -57.186  1.00  0.00     0.021 A 
HETATM   10  C   UNL     1     -37.574  39.606 -57.038  1.00  0.00     0.011 A 
HETATM   11 BR   UNL     1     -38.098  38.338 -58.337  1.00  0.00    -0.051 Br
HETATM   12  C   UNL     1     -36.833  39.196 -55.931  1.00  0.00     0.034 A 
HETATM   13  H   UNL     1     -36.672  43.364 -54.268  1.00  0.00     0.170 HD
ENDROOT
BRANCH   1  14
HETATM   14  C   UNL     1     -36.769  39.129 -52.681  1.00  0.00     0.279 C 
HETATM   15  N   UNL     1     -36.373  38.028 -51.931  1.00  0.00    -0.356 N 
HETATM   16  H   UNL     1     -35.737  37.402 -52.421  1.00  0.00     0.162 HD
HETATM   17  O   UNL     1     -37.860  39.673 -52.488  1.00  0.00    -0.268 OA
BRANCH  15  18
HETATM   18  C   UNL     1     -37.280  37.440 -50.969  1.00  0.00     0.124 C 
BRANCH  18  19
HETATM   19  C   UNL     1     -37.310  38.242 -49.668  1.00  0.00     0.047 C 
BRANCH  19  20
HETATM   20  C   UNL     1     -38.361  37.663 -48.725  1.00  0.00     0.236 C 
BRANCH  20  21
HETATM   21  N   UNL     1     -39.677  38.430 -48.737  1.00  0.00    -0.072 N 
HETATM   22  H   UNL     1     -39.445  39.355 -49.128  1.00  0.00     0.279 HD
BRANCH  21  23
HETATM   23  C   UNL     1     -40.265  38.721 -47.363  1.00  0.00     0.230 C 
HETATM   24  C   UNL     1     -41.762  38.474 -47.335  1.00  0.00     0.034 C 
ENDBRANCH  21  23
BRANCH  21  25
HETATM   25  C   UNL     1     -40.746  37.869 -49.660  1.00  0.00     0.230 C 
HETATM   26  C   UNL     1     -40.843  38.666 -50.949  1.00  0.00     0.034 C 
ENDBRANCH  21  25
ENDBRANCH  20  21
ENDBRANCH  19  20
ENDBRANCH  18  19
ENDBRANCH  15  18
ENDBRANCH   1  14
BRANCH   1  27
HETATM   27  O   UNL     1     -34.769  38.728 -54.083  1.00  0.00    -0.359 OA
HETATM   28  H   UNL     1     -35.294  37.920 -54.220  1.00  0.00     0.213 HD
ENDBRANCH   1  27
BRANCH   2  29
HETATM   29  C   UNL     1     -33.917  40.600 -52.192  1.00  0.00     0.076 A 
HETATM   30  C   UNL     1     -32.595  40.390 -52.620  1.00  0.00     0.098 A 
HETATM   31  C   UNL     1     -31.592  40.095 -51.681  1.00  0.00     0.075 A 
HETATM   32  C   UNL     1     -31.910  39.963 -50.327  1.00  0.00     0.070 A 
HETATM   33  C   UNL     1     -33.225  40.159 -49.908  1.00  0.00     0.039 A 
HETATM   34  C   UNL     1     -34.222  40.475 -50.831  1.00  0.00     0.035 A 
BRANCH  30  35
HETATM   35  O   UNL     1     -32.307  40.588 -53.952  1.00  0.00    -0.354 OA
HETATM   36  C   UNL     1     -31.527  39.529 -54.512  1.00  0.00     0.210 C 
ENDBRANCH  30  35
BRANCH  32  37
HETATM   37  O   UNL     1     -31.037  39.666 -49.318  1.00  0.00    -0.356 OA
HETATM   38  C   UNL     1     -31.562  39.606 -47.999  1.00  0.00     0.210 C 
ENDBRANCH  32  37
ENDBRANCH   2  29
TORSDOF 11
ENDMDL
MODEL 8
REMARK VINA RESULT:      -6.7      1.703      2.252
REMARK  11 active torsions:
REMARK  status: ('A' for Active; 'I' for Inactive)
REMARK    1  A    between atoms: C_2  and  N_3 
REMARK    2  A    between atoms: N_3  and  C_5 
REMARK    3  A    between atoms: N_3  and  C_34 
REMARK    4  A    between atoms: C_5  and  C_6 
REMARK    5  A    between atoms: C_6  and  C_7 
REMARK    6  A    between atoms: C_7  and  N_8 
REMARK       I    between atoms: N_8  and  C_9 
REMARK    7  A    between atoms: C_9  and  C_10 
REMARK    8  A    between atoms: C_10  and  O_11 
REMARK    9  A    between atoms: N_12  and  C_13 
REMARK   10  A    between atoms: C_14  and  O_15 
REMARK   11  A    between atoms: C_18  and  O_19 
ROOT
HETATM    1  C   UNL     1     -42.830  57.089 -52.842  1.00  0.00     0.256 C 
HETATM    2  N   UNL     1     -42.906  55.953 -51.917  1.00  0.00    -0.251 N 
HETATM    3  C   UNL     1     -43.984  55.807 -51.061  1.00  0.00     0.330 C 
HETATM    4  O   UNL     1     -44.304  54.769 -50.483  1.00  0.00    -0.246 OA
HETATM    5  N   UNL     1     -44.728  56.928 -50.811  1.00  0.00    -0.308 N 
HETATM    6  C   UNL     1     -44.428  58.202 -51.282  1.00  0.00     0.048 A 
HETATM    7  C   UNL     1     -43.453  58.343 -52.263  1.00  0.00     0.035 A 
HETATM    8  C   UNL     1     -45.098  59.312 -50.765  1.00  0.00     0.031 A 
HETATM    9  C   UNL     1     -44.782  60.588 -51.232  1.00  0.00     0.021 A 
HETATM   10  C   UNL     1     -43.808  60.743 -52.217  1.00  0.00     0.011 A 
HETATM   11 BR   UNL     1     -43.391  62.468 -52.863  1.00  0.00    -0.051 Br
HETATM   12  C   UNL     1     -43.149  59.631 -52.738  1.00  0.00     0.034 A 
HETATM   13  H   UNL     1     -45.421  56.811 -50.083  1.00  0.00     0.170 HD
ENDROOT
BRANCH   1  14
HETATM   14  C   UNL     1     -43.578  56.766 -54.214  1.00  0.00     0.279 C 
HETATM   15  N   UNL     1     -42.848  56.926 -55.387  1.00  0.00    -0.356 N 
HETATM   16  H   UNL     1     -42.177  57.692 -55.353  1.00  0.00     0.162 HD
HETATM   17  O   UNL     1     -44.717  56.290 -54.232  1.00  0.00    -0.268 OA
BRANCH  15  18
HETATM   18  C   UNL     1     -43.453  56.623 -56.666  1.00  0.00     0.124 C 
BRANCH  18  19
HETATM   19  C   UNL     1     -42.576  57.097 -57.824  1.00  0.00     0.047 C 
BRANCH  19  20
HETATM   20  C   UNL     1     -42.077  58.514 -57.552  1.00  0.00     0.236 C 
BRANCH  20  21
HETATM   21  N   UNL     1     -42.487  59.518 -58.620  1.00  0.00    -0.072 N 
HETATM   22  H   UNL     1     -41.871  60.331 -58.474  1.00  0.00     0.279 HD
BRANCH  21  23
HETATM   23  C   UNL     1     -43.900  60.066 -58.481  1.00  0.00     0.230 C 
HETATM   24  C   UNL     1     -44.223  60.414 -57.039  1.00  0.00     0.034 C 
ENDBRANCH  21  23
BRANCH  21  25
HETATM   25  C   UNL     1     -42.228  59.082 -60.053  1.00  0.00     0.230 C 
HETATM   26  C   UNL     1     -42.189  60.269 -60.999  1.00  0.00     0.034 C 
ENDBRANCH  21  25
ENDBRANCH  20  21
ENDBRANCH  19  20
ENDBRANCH  18  19
ENDBRANCH  15  18
ENDBRANCH   1  14
BRANCH   1  27
HETATM   27  O   UNL     1     -41.464  57.413 -53.103  1.00  0.00    -0.359 OA
HETATM   28  H   UNL     1     -41.056  56.601 -53.450  1.00  0.00     0.213 HD
ENDBRANCH   1  27
BRANCH   2  29
HETATM   29  C   UNL     1     -42.008  54.862 -52.105  1.00  0.00     0.076 A 
HETATM   30  C   UNL     1     -40.908  54.627 -51.263  1.00  0.00     0.098 A 
HETATM   31  C   UNL     1     -40.043  53.550 -51.522  1.00  0.00     0.075 A 
HETATM   32  C   UNL     1     -40.243  52.738 -52.641  1.00  0.00     0.070 A 
HETATM   33  C   UNL     1     -41.327  52.982 -53.482  1.00  0.00     0.039 A 
HETATM   34  C   UNL     1     -42.204  54.035 -53.218  1.00  0.00     0.035 A 
BRANCH  30  35
HETATM   35  O   UNL     1     -40.778  55.409 -50.137  1.00  0.00    -0.354 OA
HETATM   36  C   UNL     1     -41.054  54.692 -48.932  1.00  0.00     0.210 C 
ENDBRANCH  30  35
BRANCH  32  37
HETATM   37  O   UNL     1     -39.471  51.673 -53.013  1.00  0.00    -0.356 OA
HETATM   38  C   UNL     1     -39.966  50.843 -54.055  1.00  0.00     0.210 C 
ENDBRANCH  32  37
ENDBRANCH   2  29
TORSDOF 11
ENDMDL
MODEL 9
REMARK VINA RESULT:      -6.5      3.532      7.257
REMARK  11 active torsions:
REMARK  status: ('A' for Active; 'I' for Inactive)
REMARK    1  A    between atoms: C_2  and  N_3 
REMARK    2  A    between atoms: N_3  and  C_5 
REMARK    3  A    between atoms: N_3  and  C_34 
REMARK    4  A    between atoms: C_5  and  C_6 
REMARK    5  A    between atoms: C_6  and  C_7 
REMARK    6  A    between atoms: C_7  and  N_8 
REMARK       I    between atoms: N_8  and  C_9 
REMARK    7  A    between atoms: C_9  and  C_10 
REMARK    8  A    between atoms: C_10  and  O_11 
REMARK    9  A    between atoms: N_12  and  C_13 
REMARK   10  A    between atoms: C_14  and  O_15 
REMARK   11  A    between atoms: C_18  and  O_19 
ROOT
HETATM    1  C   UNL     1     -41.666  57.250 -53.335  1.00  0.00     0.256 C 
HETATM    2  N   UNL     1     -42.789  57.625 -54.201  1.00  0.00    -0.251 N 
HETATM    3  C   UNL     1     -44.083  57.654 -53.708  1.00  0.00     0.330 C 
HETATM    4  O   UNL     1     -45.034  58.235 -54.231  1.00  0.00    -0.246 OA
HETATM    5  N   UNL     1     -44.324  56.941 -52.566  1.00  0.00    -0.308 N 
HETATM    6  C   UNL     1     -43.393  56.131 -51.924  1.00  0.00     0.048 A 
HETATM    7  C   UNL     1     -42.058  56.212 -52.303  1.00  0.00     0.035 A 
HETATM    8  C   UNL     1     -43.808  55.253 -50.921  1.00  0.00     0.031 A 
HETATM    9  C   UNL     1     -42.870  54.434 -50.291  1.00  0.00     0.021 A 
HETATM   10  C   UNL     1     -41.528  54.507 -50.660  1.00  0.00     0.011 A 
HETATM   11 BR   UNL     1     -40.256  53.410 -49.796  1.00  0.00    -0.051 Br
HETATM   12  C   UNL     1     -41.117  55.392 -51.655  1.00  0.00     0.034 A 
HETATM   13  H   UNL     1     -45.302  56.880 -52.315  1.00  0.00     0.170 HD
ENDROOT
BRANCH   1  14
HETATM   14  C   UNL     1     -41.092  58.517 -52.554  1.00  0.00     0.279 C 
HETATM   15  N   UNL     1     -41.871  59.034 -51.525  1.00  0.00    -0.356 N 
HETATM   16  H   UNL     1     -42.874  58.964 -51.693  1.00  0.00     0.162 HD
HETATM   17  O   UNL     1     -39.958  58.952 -52.775  1.00  0.00    -0.268 OA
BRANCH  15  18
HETATM   18  C   UNL     1     -41.399  60.163 -50.753  1.00  0.00     0.124 C 
BRANCH  18  19
HETATM   19  C   UNL     1     -42.556  61.057 -50.308  1.00  0.00     0.047 C 
BRANCH  19  20
HETATM   20  C   UNL     1     -43.884  60.444 -50.743  1.00  0.00     0.236 C 
BRANCH  20  21
HETATM   21  N   UNL     1     -45.070  60.909 -49.909  1.00  0.00    -0.072 N 
HETATM   22  H   UNL     1     -45.460  60.051 -49.494  1.00  0.00     0.279 HD
BRANCH  21  23
HETATM   23  C   UNL     1     -46.217  61.517 -50.704  1.00  0.00     0.230 C 
HETATM   24  C   UNL     1     -46.578  60.660 -51.904  1.00  0.00     0.034 C 
ENDBRANCH  21  23
BRANCH  21  25
HETATM   25  C   UNL     1     -44.722  61.795 -48.724  1.00  0.00     0.230 C 
HETATM   26  C   UNL     1     -45.125  61.152 -47.409  1.00  0.00     0.034 C 
ENDBRANCH  21  25
ENDBRANCH  20  21
ENDBRANCH  19  20
ENDBRANCH  18  19
ENDBRANCH  15  18
ENDBRANCH   1  14
BRANCH   1  27
HETATM   27  O   UNL     1     -40.628  56.655 -54.116  1.00  0.00    -0.359 OA
HETATM   28  H   UNL     1     -41.005  55.837 -54.485  1.00  0.00     0.213 HD
ENDBRANCH   1  27
BRANCH   2  29
HETATM   29  C   UNL     1     -42.505  58.226 -55.461  1.00  0.00     0.076 A 
HETATM   30  C   UNL     1     -42.305  59.608 -55.617  1.00  0.00     0.098 A 
HETATM   31  C   UNL     1     -42.058  60.143 -56.893  1.00  0.00     0.075 A 
HETATM   32  C   UNL     1     -42.057  59.313 -58.017  1.00  0.00     0.070 A 
HETATM   33  C   UNL     1     -42.270  57.945 -57.860  1.00  0.00     0.039 A 
HETATM   34  C   UNL     1     -42.492  57.403 -56.594  1.00  0.00     0.035 A 
BRANCH  30  35
HETATM   35  O   UNL     1     -42.252  60.386 -54.481  1.00  0.00    -0.354 OA
HETATM   36  C   UNL     1     -43.324  61.328 -54.407  1.00  0.00     0.210 C 
ENDBRANCH  30  35
BRANCH  32  37
HETATM   37  O   UNL     1     -41.845  59.706 -59.309  1.00  0.00    -0.356 OA
HETATM   38  C   UNL     1     -42.112  58.754 -60.330  1.00  0.00     0.210 C 
ENDBRANCH  32  37
ENDBRANCH   2  29
TORSDOF 11
ENDMDL
MODEL 10
REMARK VINA RESULT:      -6.5      2.846      6.154
REMARK  11 active torsions:
REMARK  status: ('A' for Active; 'I' for Inactive)
REMARK    1  A    between atoms: C_2  and  N_3 
REMARK    2  A    between atoms: N_3  and  C_5 
REMARK    3  A    between atoms: N_3  and  C_34 
REMARK    4  A    between atoms: C_5  and  C_6 
REMARK    5  A    between atoms: C_6  and  C_7 
REMARK    6  A    between atoms: C_7  and  N_8 
REMARK       I    between atoms: N_8  and  C_9 
REMARK    7  A    between atoms: C_9  and  C_10 
REMARK    8  A    between atoms: C_10  and  O_11 
REMARK    9  A    between atoms: N_12  and  C_13 
REMARK   10  A    between atoms: C_14  and  O_15 
REMARK   11  A    between atoms: C_18  and  O_19 
ROOT
HETATM    1  C   UNL     1     -43.451  57.370 -54.096  1.00  0.00     0.256 C 
HETATM    2  N   UNL     1     -42.424  56.350 -53.856  1.00  0.00    -0.251 N 
HETATM    3  C   UNL     1     -41.504  56.027 -54.839  1.00  0.00     0.330 C 
HETATM    4  O   UNL     1     -40.439  55.438 -54.656  1.00  0.00    -0.246 OA
HETATM    5  N   UNL     1     -41.834  56.358 -56.125  1.00  0.00    -0.308 N 
HETATM    6  C   UNL     1     -43.049  56.910 -56.516  1.00  0.00     0.048 A 
HETATM    7  C   UNL     1     -43.915  57.387 -55.539  1.00  0.00     0.035 A 
HETATM    8  C   UNL     1     -43.382  56.972 -57.870  1.00  0.00     0.031 A 
HETATM    9  C   UNL     1     -44.609  57.515 -58.254  1.00  0.00     0.021 A 
HETATM   10  C   UNL     1     -45.486  57.999 -57.285  1.00  0.00     0.011 A 
HETATM   11 BR   UNL     1     -47.139  58.750 -57.804  1.00  0.00    -0.051 Br
HETATM   12  C   UNL     1     -45.144  57.945 -55.935  1.00  0.00     0.034 A 
HETATM   13  H   UNL     1     -41.201  55.988 -56.823  1.00  0.00     0.170 HD
ENDROOT
BRANCH   1  14
HETATM   14  C   UNL     1     -42.910  58.829 -53.744  1.00  0.00     0.279 C 
HETATM   15  N   UNL     1     -43.348  59.397 -52.553  1.00  0.00    -0.356 N 
HETATM   16  H   UNL     1     -44.303  59.146 -52.304  1.00  0.00     0.162 HD
HETATM   17  O   UNL     1     -42.055  59.385 -54.440  1.00  0.00    -0.268 OA
BRANCH  15  18
HETATM   18  C   UNL     1     -42.874  60.705 -52.155  1.00  0.00     0.124 C 
BRANCH  18  19
HETATM   19  C   UNL     1     -43.358  61.070 -50.752  1.00  0.00     0.047 C 
BRANCH  19  20
HETATM   20  C   UNL     1     -44.831  60.703 -50.598  1.00  0.00     0.236 C 
BRANCH  20  21
HETATM   21  N   UNL     1     -45.751  61.911 -50.495  1.00  0.00    -0.072 N 
HETATM   22  H   UNL     1     -46.215  61.817 -49.580  1.00  0.00     0.279 HD
BRANCH  21  23
HETATM   23  C   UNL     1     -46.886  61.945 -51.509  1.00  0.00     0.230 C 
HETATM   24  C   UNL     1     -46.488  61.277 -52.812  1.00  0.00     0.034 C 
ENDBRANCH  21  23
BRANCH  21  25
HETATM   25  C   UNL     1     -45.049  63.258 -50.443  1.00  0.00     0.230 C 
HETATM   26  C   UNL     1     -46.038  64.407 -50.531  1.00  0.00     0.034 C 
ENDBRANCH  21  25
ENDBRANCH  20  21
ENDBRANCH  19  20
ENDBRANCH  18  19
ENDBRANCH  15  18
ENDBRANCH   1  14
BRANCH   1  27
HETATM   27  O   UNL     1     -44.612  57.084 -53.314  1.00  0.00    -0.359 OA
HETATM   28  H   UNL     1     -45.124  56.431 -53.822  1.00  0.00     0.213 HD
ENDBRANCH   1  27
BRANCH   2  29
HETATM   29  C   UNL     1     -42.207  55.906 -52.519  1.00  0.00     0.076 A 
HETATM   30  C   UNL     1     -41.327  56.553 -51.636  1.00  0.00     0.098 A 
HETATM   31  C   UNL     1     -41.134  56.047 -50.339  1.00  0.00     0.075 A 
HETATM   32  C   UNL     1     -41.779  54.874 -49.938  1.00  0.00     0.070 A 
HETATM   33  C   UNL     1     -42.641  54.227 -50.822  1.00  0.00     0.039 A 
HETATM   34  C   UNL     1     -42.855  54.737 -52.102  1.00  0.00     0.035 A 
BRANCH  30  35
HETATM   35  O   UNL     1     -40.757  57.739 -52.044  1.00  0.00    -0.354 OA
HETATM   36  C   UNL     1     -40.240  58.507 -50.955  1.00  0.00     0.210 C 
ENDBRANCH  30  35
BRANCH  32  37
HETATM   37  O   UNL     1     -41.668  54.270 -48.717  1.00  0.00    -0.356 OA
HETATM   38  C   UNL     1     -40.356  54.004 -48.238  1.00  0.00     0.210 C 
ENDBRANCH  32  37
ENDBRANCH   2  29
TORSDOF 11
ENDMDL
