MODEL 1
REMARK VINA RESULT:      -9.0      0.000      0.000
REMARK  5 active torsions:
REMARK  status: ('A' for Active; 'I' for Inactive)
REMARK    1  A    between atoms: C_3  and  N_4 
REMARK       I    between atoms: N_4  and  C_5 
REMARK    2  A    between atoms: C_9  and  N_10 
REMARK       I    between atoms: N_10  and  C_11 
REMARK    3  A    between atoms: C_11  and  C_12 
REMARK    4  A    between atoms: C_17  and  C_18 
REMARK    5  A    between atoms: C_24  and  C_25 
ROOT
HETATM    1  C   UNL     1     -42.299  55.833 -54.279  1.00  0.00     0.148 C 
HETATM    2  N   UNL     1     -42.691  55.783 -52.982  1.00  0.00    -0.165 NA
HETATM    3  N   UNL     1     -41.728  55.044 -52.403  1.00  0.00    -0.240 N 
HETATM    4  C   UNL     1     -40.833  54.504 -53.282  1.00  0.00     0.123 C 
HETATM    5  N   UNL     1     -39.919  53.602 -52.875  1.00  0.00    -0.364 N 
HETATM    6  C   UNL     1     -39.989  52.929 -51.571  1.00  0.00     0.143 C 
HETATM    7  C   UNL     1     -41.308  53.254 -50.831  1.00  0.00     0.068 C 
HETATM    8  C   UNL     1     -41.733  54.718 -50.992  1.00  0.00     0.221 C 
HETATM    9  C   UNL     1     -41.118  55.068 -54.495  1.00  0.00     0.089 C 
HETATM   10  H   UNL     1     -39.231  53.218 -53.521  1.00  0.00     0.162 HD
ENDROOT
BRANCH   1  11
HETATM   11  C   UNL     1     -43.077  56.554 -55.303  1.00  0.00     0.276 C 
HETATM   12  N   UNL     1     -42.368  56.690 -56.482  1.00  0.00    -0.322 N 
HETATM   13  H   UNL     1     -41.444  56.266 -56.448  1.00  0.00     0.169 HD
HETATM   14  O   UNL     1     -44.196  56.992 -55.065  1.00  0.00    -0.266 OA
BRANCH  12  15
HETATM   15  C   UNL     1     -42.737  57.386 -57.646  1.00  0.00     0.037 A 
HETATM   16  C   UNL     1     -43.746  56.969 -58.516  1.00  0.00     0.059 A 
HETATM   17  C   UNL     1     -44.106  57.717 -59.657  1.00  0.00     0.042 A 
HETATM   18  C   UNL     1     -43.382  58.882 -59.962  1.00  0.00    -0.035 A 
HETATM   19  C   UNL     1     -43.562  59.707 -61.205  1.00  0.00     0.050 C 
HETATM   20  C   UNL     1     -42.379  59.305 -59.068  1.00  0.00     0.011 A 
HETATM   21  C   UNL     1     -42.057  58.566 -57.929  1.00  0.00     0.030 A 
BRANCH  17  22
HETATM   22  N   UNL     1     -45.159  57.154 -60.417  1.00  0.00    -0.327 N 
HETATM   23  C   UNL     1     -46.485  56.998 -60.067  1.00  0.00     0.218 C 
HETATM   24  C   UNL     1     -47.319  56.447 -61.198  1.00  0.00     0.117 C 
HETATM   25  O   UNL     1     -47.001  57.245 -58.983  1.00  0.00    -0.274 OA
HETATM   26  H   UNL     1     -44.859  56.594 -61.206  1.00  0.00     0.169 HD
ENDBRANCH  17  22
ENDBRANCH  12  15
ENDBRANCH   1  11
BRANCH   8  27
HETATM   27  C   UNL     1     -40.842  55.676 -50.234  1.00  0.00     0.409 C 
HETATM   28  F   UNL     1     -40.599  56.808 -50.930  1.00  0.00    -0.169 F 
HETATM   29  F   UNL     1     -41.456  56.057 -49.083  1.00  0.00    -0.169 F 
HETATM   30  F   UNL     1     -39.653  55.148 -49.879  1.00  0.00    -0.169 F 
ENDBRANCH   8  27
BRANCH   6  31
HETATM   31  C   UNL     1     -39.857  51.440 -51.688  1.00  0.00     0.075 A 
HETATM   32  O   UNL     1     -39.738  50.928 -52.947  1.00  0.00    -0.325 OA
HETATM   33  C   UNL     1     -39.612  49.582 -52.815  1.00  0.00     0.142 A 
HETATM   34  C   UNL     1     -39.642  49.221 -51.488  1.00  0.00     0.027 A 
HETATM   35  C   UNL     1     -39.801  50.421 -50.757  1.00  0.00     0.037 A 
ENDBRANCH   6  31
TORSDOF 5
ENDMDL
MODEL 2
REMARK VINA RESULT:      -8.9      5.396      7.737
REMARK  5 active torsions:
REMARK  status: ('A' for Active; 'I' for Inactive)
REMARK    1  A    between atoms: C_3  and  N_4 
REMARK       I    between atoms: N_4  and  C_5 
REMARK    2  A    between atoms: C_9  and  N_10 
REMARK       I    between atoms: N_10  and  C_11 
REMARK    3  A    between atoms: C_11  and  C_12 
REMARK    4  A    between atoms: C_17  and  C_18 
REMARK    5  A    between atoms: C_24  and  C_25 
ROOT
HETATM    1  C   UNL     1     -41.842  57.568 -51.820  1.00  0.00     0.148 C 
HETATM    2  N   UNL     1     -41.318  57.621 -53.069  1.00  0.00    -0.165 NA
HETATM    3  N   UNL     1     -41.527  56.378 -53.538  1.00  0.00    -0.240 N 
HETATM    4  C   UNL     1     -42.018  55.506 -52.609  1.00  0.00     0.123 C 
HETATM    5  N   UNL     1     -42.115  54.189 -52.877  1.00  0.00    -0.364 N 
HETATM    6  C   UNL     1     -41.457  53.560 -54.030  1.00  0.00     0.143 C 
HETATM    7  C   UNL     1     -40.524  54.551 -54.766  1.00  0.00     0.068 C 
HETATM    8  C   UNL     1     -41.116  55.961 -54.863  1.00  0.00     0.221 C 
HETATM    9  C   UNL     1     -42.321  56.264 -51.512  1.00  0.00     0.089 C 
HETATM   10  H   UNL     1     -42.508  53.539 -52.198  1.00  0.00     0.162 HD
ENDROOT
BRANCH   1  11
HETATM   11  C   UNL     1     -41.831  58.734 -50.917  1.00  0.00     0.276 C 
HETATM   12  N   UNL     1     -42.977  59.496 -51.049  1.00  0.00    -0.322 N 
HETATM   13  H   UNL     1     -43.632  59.121 -51.732  1.00  0.00     0.169 HD
HETATM   14  O   UNL     1     -40.873  58.970 -50.190  1.00  0.00    -0.266 OA
BRANCH  12  15
HETATM   15  C   UNL     1     -43.290  60.716 -50.428  1.00  0.00     0.037 A 
HETATM   16  C   UNL     1     -44.119  60.832 -49.311  1.00  0.00     0.059 A 
HETATM   17  C   UNL     1     -44.379  62.076 -48.698  1.00  0.00     0.042 A 
HETATM   18  C   UNL     1     -43.842  63.241 -49.270  1.00  0.00    -0.035 A 
HETATM   19  C   UNL     1     -44.136  64.641 -48.810  1.00  0.00     0.050 C 
HETATM   20  C   UNL     1     -42.991  63.113 -50.386  1.00  0.00     0.011 A 
HETATM   21  C   UNL     1     -42.722  61.870 -50.961  1.00  0.00     0.030 A 
BRANCH  17  22
HETATM   22  N   UNL     1     -45.228  62.005 -47.568  1.00  0.00    -0.327 N 
HETATM   23  C   UNL     1     -46.601  62.140 -47.513  1.00  0.00     0.218 C 
HETATM   24  C   UNL     1     -47.150  61.892 -46.129  1.00  0.00     0.117 C 
HETATM   25  O   UNL     1     -47.355  62.436 -48.432  1.00  0.00    -0.274 OA
HETATM   26  H   UNL     1     -44.756  62.097 -46.677  1.00  0.00     0.169 HD
ENDBRANCH  17  22
ENDBRANCH  12  15
ENDBRANCH   1  11
BRANCH   8  27
HETATM   27  C   UNL     1     -42.284  56.045 -55.819  1.00  0.00     0.409 C 
HETATM   28  F   UNL     1     -43.471  56.088 -55.175  1.00  0.00    -0.169 F 
HETATM   29  F   UNL     1     -42.199  57.191 -56.545  1.00  0.00    -0.169 F 
HETATM   30  F   UNL     1     -42.334  55.031 -56.706  1.00  0.00    -0.169 F 
ENDBRANCH   8  27
BRANCH   6  31
HETATM   31  C   UNL     1     -40.663  52.348 -53.644  1.00  0.00     0.075 A 
HETATM   32  O   UNL     1     -40.131  52.333 -52.388  1.00  0.00    -0.325 OA
HETATM   33  C   UNL     1     -39.481  51.148 -52.250  1.00  0.00     0.142 A 
HETATM   34  C   UNL     1     -39.592  50.398 -53.397  1.00  0.00     0.027 A 
HETATM   35  C   UNL     1     -40.356  51.172 -54.301  1.00  0.00     0.037 A 
ENDBRANCH   6  31
TORSDOF 5
ENDMDL
MODEL 3
REMARK VINA RESULT:      -8.8      3.539     10.139
REMARK  5 active torsions:
REMARK  status: ('A' for Active; 'I' for Inactive)
REMARK    1  A    between atoms: C_3  and  N_4 
REMARK       I    between atoms: N_4  and  C_5 
REMARK    2  A    between atoms: C_9  and  N_10 
REMARK       I    between atoms: N_10  and  C_11 
REMARK    3  A    between atoms: C_11  and  C_12 
REMARK    4  A    between atoms: C_17  and  C_18 
REMARK    5  A    between atoms: C_24  and  C_25 
ROOT
HETATM    1  C   UNL     1     -43.242  55.952 -56.015  1.00  0.00     0.148 C 
HETATM    2  N   UNL     1     -43.034  55.597 -57.307  1.00  0.00    -0.165 NA
HETATM    3  N   UNL     1     -43.355  56.715 -57.983  1.00  0.00    -0.240 N 
HETATM    4  C   UNL     1     -43.892  57.703 -57.208  1.00  0.00     0.123 C 
HETATM    5  N   UNL     1     -44.421  58.810 -57.763  1.00  0.00    -0.364 N 
HETATM    6  C   UNL     1     -44.723  58.915 -59.197  1.00  0.00     0.143 C 
HETATM    7  C   UNL     1     -44.522  57.565 -59.924  1.00  0.00     0.068 C 
HETATM    8  C   UNL     1     -43.289  56.802 -59.427  1.00  0.00     0.221 C 
HETATM    9  C   UNL     1     -43.748  57.279 -55.916  1.00  0.00     0.089 C 
HETATM   10  H   UNL     1     -44.796  59.562 -57.188  1.00  0.00     0.162 HD
ENDROOT
BRANCH   1  11
HETATM   11  C   UNL     1     -43.013  55.015 -54.900  1.00  0.00     0.276 C 
HETATM   12  N   UNL     1     -41.684  54.653 -54.799  1.00  0.00    -0.322 N 
HETATM   13  H   UNL     1     -41.091  55.097 -55.497  1.00  0.00     0.169 HD
HETATM   14  O   UNL     1     -43.939  54.609 -54.207  1.00  0.00    -0.266 OA
BRANCH  12  15
HETATM   15  C   UNL     1     -41.097  53.721 -53.926  1.00  0.00     0.037 A 
HETATM   16  C   UNL     1     -41.156  53.813 -52.535  1.00  0.00     0.059 A 
HETATM   17  C   UNL     1     -40.581  52.836 -51.695  1.00  0.00     0.042 A 
HETATM   18  C   UNL     1     -39.869  51.773 -52.277  1.00  0.00    -0.035 A 
HETATM   19  C   UNL     1     -39.096  50.734 -51.515  1.00  0.00     0.050 C 
HETATM   20  C   UNL     1     -39.831  51.678 -53.682  1.00  0.00     0.011 A 
HETATM   21  C   UNL     1     -40.432  52.640 -54.496  1.00  0.00     0.030 A 
BRANCH  17  22
HETATM   22  N   UNL     1     -40.749  53.081 -50.311  1.00  0.00    -0.327 N 
HETATM   23  C   UNL     1     -39.992  53.883 -49.481  1.00  0.00     0.218 C 
HETATM   24  C   UNL     1     -40.560  53.966 -48.085  1.00  0.00     0.117 C 
HETATM   25  O   UNL     1     -38.962  54.482 -49.765  1.00  0.00    -0.274 OA
HETATM   26  H   UNL     1     -41.345  52.416 -49.833  1.00  0.00     0.169 HD
ENDBRANCH  17  22
ENDBRANCH  12  15
ENDBRANCH   1  11
BRANCH   8  27
HETATM   27  C   UNL     1     -41.989  57.447 -59.850  1.00  0.00     0.409 C 
HETATM   28  F   UNL     1     -41.382  58.091 -58.829  1.00  0.00    -0.169 F 
HETATM   29  F   UNL     1     -41.121  56.490 -60.272  1.00  0.00    -0.169 F 
HETATM   30  F   UNL     1     -42.121  58.322 -60.868  1.00  0.00    -0.169 F 
ENDBRANCH   8  27
BRANCH   6  31
HETATM   31  C   UNL     1     -46.120  59.397 -59.453  1.00  0.00     0.075 A 
HETATM   32  O   UNL     1     -46.516  59.476 -60.756  1.00  0.00    -0.325 OA
HETATM   33  C   UNL     1     -47.804  59.909 -60.750  1.00  0.00     0.142 A 
HETATM   34  C   UNL     1     -48.244  60.104 -59.462  1.00  0.00     0.027 A 
HETATM   35  C   UNL     1     -47.156  59.774 -58.621  1.00  0.00     0.037 A 
ENDBRANCH   6  31
TORSDOF 5
ENDMDL
MODEL 4
REMARK VINA RESULT:      -8.7      3.594      9.831
REMARK  5 active torsions:
REMARK  status: ('A' for Active; 'I' for Inactive)
REMARK    1  A    between atoms: C_3  and  N_4 
REMARK       I    between atoms: N_4  and  C_5 
REMARK    2  A    between atoms: C_9  and  N_10 
REMARK       I    between atoms: N_10  and  C_11 
REMARK    3  A    between atoms: C_11  and  C_12 
REMARK    4  A    between atoms: C_17  and  C_18 
REMARK    5  A    between atoms: C_24  and  C_25 
ROOT
HETATM    1  C   UNL     1     -43.062  56.306 -55.309  1.00  0.00     0.148 C 
HETATM    2  N   UNL     1     -44.202  56.828 -55.826  1.00  0.00    -0.165 NA
HETATM    3  N   UNL     1     -43.787  57.374 -56.982  1.00  0.00    -0.240 N 
HETATM    4  C   UNL     1     -42.432  57.357 -57.155  1.00  0.00     0.123 C 
HETATM    5  N   UNL     1     -41.854  58.019 -58.175  1.00  0.00    -0.364 N 
HETATM    6  C   UNL     1     -42.568  59.015 -58.985  1.00  0.00     0.143 C 
HETATM    7  C   UNL     1     -43.972  59.318 -58.410  1.00  0.00     0.068 C 
HETATM    8  C   UNL     1     -44.682  58.064 -57.888  1.00  0.00     0.221 C 
HETATM    9  C   UNL     1     -41.939  56.591 -56.135  1.00  0.00     0.089 C 
HETATM   10  H   UNL     1     -40.847  57.985 -58.325  1.00  0.00     0.162 HD
ENDROOT
BRANCH   1  11
HETATM   11  C   UNL     1     -43.043  55.597 -54.016  1.00  0.00     0.276 C 
HETATM   12  N   UNL     1     -41.914  55.903 -53.280  1.00  0.00    -0.322 N 
HETATM   13  H   UNL     1     -41.299  56.567 -53.745  1.00  0.00     0.169 HD
HETATM   14  O   UNL     1     -43.930  54.811 -53.705  1.00  0.00    -0.266 OA
BRANCH  12  15
HETATM   15  C   UNL     1     -41.502  55.365 -52.049  1.00  0.00     0.037 A 
HETATM   16  C   UNL     1     -41.206  54.016 -51.849  1.00  0.00     0.059 A 
HETATM   17  C   UNL     1     -40.763  53.524 -50.602  1.00  0.00     0.042 A 
HETATM   18  C   UNL     1     -40.682  54.408 -49.513  1.00  0.00    -0.035 A 
HETATM   19  C   UNL     1     -40.354  54.008 -48.102  1.00  0.00     0.050 C 
HETATM   20  C   UNL     1     -40.963  55.771 -49.730  1.00  0.00     0.011 A 
HETATM   21  C   UNL     1     -41.373  56.244 -50.978  1.00  0.00     0.030 A 
BRANCH  17  22
HETATM   22  N   UNL     1     -40.495  52.135 -50.584  1.00  0.00    -0.327 N 
HETATM   23  C   UNL     1     -39.690  51.402 -51.433  1.00  0.00     0.218 C 
HETATM   24  C   UNL     1     -39.580  49.955 -51.017  1.00  0.00     0.117 C 
HETATM   25  O   UNL     1     -39.107  51.803 -52.433  1.00  0.00    -0.274 OA
HETATM   26  H   UNL     1     -41.146  51.585 -50.036  1.00  0.00     0.169 HD
ENDBRANCH  17  22
ENDBRANCH  12  15
ENDBRANCH   1  11
BRANCH   8  27
HETATM   27  C   UNL     1     -45.121  57.132 -58.995  1.00  0.00     0.409 C 
HETATM   28  F   UNL     1     -44.499  55.934 -58.932  1.00  0.00    -0.169 F 
HETATM   29  F   UNL     1     -46.451  56.881 -58.880  1.00  0.00    -0.169 F 
HETATM   30  F   UNL     1     -44.929  57.630 -60.233  1.00  0.00    -0.169 F 
ENDBRANCH   8  27
BRANCH   6  31
HETATM   31  C   UNL     1     -41.810  60.302 -59.107  1.00  0.00     0.075 A 
HETATM   32  O   UNL     1     -41.136  60.730 -58.001  1.00  0.00    -0.325 OA
HETATM   33  C   UNL     1     -40.513  61.888 -58.341  1.00  0.00     0.142 A 
HETATM   34  C   UNL     1     -40.771  62.209 -59.653  1.00  0.00     0.027 A 
HETATM   35  C   UNL     1     -41.610  61.185 -60.151  1.00  0.00     0.037 A 
ENDBRANCH   6  31
TORSDOF 5
ENDMDL
MODEL 5
REMARK VINA RESULT:      -8.5      3.077      4.482
REMARK  5 active torsions:
REMARK  status: ('A' for Active; 'I' for Inactive)
REMARK    1  A    between atoms: C_3  and  N_4 
REMARK       I    between atoms: N_4  and  C_5 
REMARK    2  A    between atoms: C_9  and  N_10 
REMARK       I    between atoms: N_10  and  C_11 
REMARK    3  A    between atoms: C_11  and  C_12 
REMARK    4  A    between atoms: C_17  and  C_18 
REMARK    5  A    between atoms: C_24  and  C_25 
ROOT
HETATM    1  C   UNL     1     -42.663  55.682 -55.212  1.00  0.00     0.148 C 
HETATM    2  N   UNL     1     -41.461  55.058 -55.288  1.00  0.00    -0.165 NA
HETATM    3  N   UNL     1     -41.449  54.290 -54.185  1.00  0.00    -0.240 N 
HETATM    4  C   UNL     1     -42.503  54.501 -53.344  1.00  0.00     0.123 C 
HETATM    5  N   UNL     1     -42.540  53.938 -52.121  1.00  0.00    -0.364 N 
HETATM    6  C   UNL     1     -41.367  53.313 -51.496  1.00  0.00     0.143 C 
HETATM    7  C   UNL     1     -40.085  53.542 -52.331  1.00  0.00     0.068 C 
HETATM    8  C   UNL     1     -40.333  53.433 -53.840  1.00  0.00     0.221 C 
HETATM    9  C   UNL     1     -43.357  55.328 -54.021  1.00  0.00     0.089 C 
HETATM   10  H   UNL     1     -43.338  54.069 -51.501  1.00  0.00     0.162 HD
ENDROOT
BRANCH   1  11
HETATM   11  C   UNL     1     -43.111  56.643 -56.236  1.00  0.00     0.276 C 
HETATM   12  N   UNL     1     -42.101  56.953 -57.127  1.00  0.00    -0.322 N 
HETATM   13  H   UNL     1     -41.231  56.462 -56.934  1.00  0.00     0.169 HD
HETATM   14  O   UNL     1     -44.245  57.109 -56.222  1.00  0.00    -0.266 OA
BRANCH  12  15
HETATM   15  C   UNL     1     -42.119  57.885 -58.177  1.00  0.00     0.037 A 
HETATM   16  C   UNL     1     -42.119  59.269 -57.990  1.00  0.00     0.059 A 
HETATM   17  C   UNL     1     -42.103  60.170 -59.076  1.00  0.00     0.042 A 
HETATM   18  C   UNL     1     -42.157  59.660 -60.384  1.00  0.00    -0.035 A 
HETATM   19  C   UNL     1     -42.278  60.493 -61.629  1.00  0.00     0.050 C 
HETATM   20  C   UNL     1     -42.137  58.263 -60.563  1.00  0.00     0.011 A 
HETATM   21  C   UNL     1     -42.123  57.387 -59.476  1.00  0.00     0.030 A 
BRANCH  17  22
HETATM   22  N   UNL     1     -42.090  61.535 -58.702  1.00  0.00    -0.327 N 
HETATM   23  C   UNL     1     -41.002  62.350 -58.459  1.00  0.00     0.218 C 
HETATM   24  C   UNL     1     -41.403  63.780 -58.187  1.00  0.00     0.117 C 
HETATM   25  O   UNL     1     -39.821  62.025 -58.439  1.00  0.00    -0.274 OA
HETATM   26  H   UNL     1     -42.972  61.886 -58.348  1.00  0.00     0.169 HD
ENDBRANCH  17  22
ENDBRANCH  12  15
ENDBRANCH   1  11
BRANCH   8  27
HETATM   27  C   UNL     1     -40.608  52.016 -54.290  1.00  0.00     0.409 C 
HETATM   28  F   UNL     1     -41.886  51.847 -54.696  1.00  0.00    -0.169 F 
HETATM   29  F   UNL     1     -39.822  51.714 -55.356  1.00  0.00    -0.169 F 
HETATM   30  F   UNL     1     -40.351  51.086 -53.347  1.00  0.00    -0.169 F 
ENDBRANCH   8  27
BRANCH   6  31
HETATM   31  C   UNL     1     -41.128  53.810 -50.102  1.00  0.00     0.075 A 
HETATM   32  O   UNL     1     -40.503  52.958 -49.241  1.00  0.00    -0.325 OA
HETATM   33  C   UNL     1     -40.374  53.615 -48.059  1.00  0.00     0.142 A 
HETATM   34  C   UNL     1     -40.903  54.881 -48.149  1.00  0.00     0.027 A 
HETATM   35  C   UNL     1     -41.392  55.010 -49.470  1.00  0.00     0.037 A 
ENDBRANCH   6  31
TORSDOF 5
ENDMDL
MODEL 6
REMARK VINA RESULT:      -8.2      3.150      9.543
REMARK  5 active torsions:
REMARK  status: ('A' for Active; 'I' for Inactive)
REMARK    1  A    between atoms: C_3  and  N_4 
REMARK       I    between atoms: N_4  and  C_5 
REMARK    2  A    between atoms: C_9  and  N_10 
REMARK       I    between atoms: N_10  and  C_11 
REMARK    3  A    between atoms: C_11  and  C_12 
REMARK    4  A    between atoms: C_17  and  C_18 
REMARK    5  A    between atoms: C_24  and  C_25 
ROOT
HETATM    1  C   UNL     1     -42.571  57.434 -54.621  1.00  0.00     0.148 C 
HETATM    2  N   UNL     1     -42.203  58.404 -55.494  1.00  0.00    -0.165 NA
HETATM    3  N   UNL     1     -43.297  58.550 -56.262  1.00  0.00    -0.240 N 
HETATM    4  C   UNL     1     -44.277  57.630 -56.022  1.00  0.00     0.123 C 
HETATM    5  N   UNL     1     -45.354  57.537 -56.824  1.00  0.00    -0.364 N 
HETATM    6  C   UNL     1     -45.425  58.186 -58.140  1.00  0.00     0.143 C 
HETATM    7  C   UNL     1     -44.072  58.820 -58.538  1.00  0.00     0.068 C 
HETATM    8  C   UNL     1     -43.363  59.495 -57.358  1.00  0.00     0.221 C 
HETATM    9  C   UNL     1     -43.880  56.950 -54.903  1.00  0.00     0.089 C 
HETATM   10  H   UNL     1     -46.102  56.872 -56.632  1.00  0.00     0.162 HD
ENDROOT
BRANCH   1  11
HETATM   11  C   UNL     1     -41.661  56.940 -53.571  1.00  0.00     0.276 C 
HETATM   12  N   UNL     1     -42.284  56.027 -52.741  1.00  0.00    -0.322 N 
HETATM   13  H   UNL     1     -43.251  55.844 -52.998  1.00  0.00     0.169 HD
HETATM   14  O   UNL     1     -40.513  57.358 -53.472  1.00  0.00    -0.266 OA
BRANCH  12  15
HETATM   15  C   UNL     1     -41.775  55.409 -51.587  1.00  0.00     0.037 A 
HETATM   16  C   UNL     1     -41.404  54.065 -51.523  1.00  0.00     0.059 A 
HETATM   17  C   UNL     1     -40.864  53.492 -50.351  1.00  0.00     0.042 A 
HETATM   18  C   UNL     1     -40.760  54.283 -49.194  1.00  0.00    -0.035 A 
HETATM   19  C   UNL     1     -40.331  53.782 -47.844  1.00  0.00     0.050 C 
HETATM   20  C   UNL     1     -41.119  55.643 -49.273  1.00  0.00     0.011 A 
HETATM   21  C   UNL     1     -41.624  56.198 -50.450  1.00  0.00     0.030 A 
BRANCH  17  22
HETATM   22  N   UNL     1     -40.530  52.122 -50.469  1.00  0.00    -0.327 N 
HETATM   23  C   UNL     1     -39.755  51.506 -51.431  1.00  0.00     0.218 C 
HETATM   24  C   UNL     1     -39.546  50.038 -51.149  1.00  0.00     0.117 C 
HETATM   25  O   UNL     1     -39.266  52.018 -52.431  1.00  0.00    -0.274 OA
HETATM   26  H   UNL     1     -41.112  51.496 -49.927  1.00  0.00     0.169 HD
ENDBRANCH  17  22
ENDBRANCH  12  15
ENDBRANCH   1  11
BRANCH   8  27
HETATM   27  C   UNL     1     -44.048  60.765 -56.908  1.00  0.00     0.409 C 
HETATM   28  F   UNL     1     -44.682  60.612 -55.725  1.00  0.00    -0.169 F 
HETATM   29  F   UNL     1     -43.123  61.743 -56.726  1.00  0.00    -0.169 F 
HETATM   30  F   UNL     1     -44.944  61.243 -57.796  1.00  0.00    -0.169 F 
ENDBRANCH   8  27
BRANCH   6  31
HETATM   31  C   UNL     1     -45.851  57.240 -59.222  1.00  0.00     0.075 A 
HETATM   32  O   UNL     1     -44.984  56.237 -59.541  1.00  0.00    -0.325 OA
HETATM   33  C   UNL     1     -45.575  55.499 -60.517  1.00  0.00     0.142 A 
HETATM   34  C   UNL     1     -46.813  56.011 -60.827  1.00  0.00     0.027 A 
HETATM   35  C   UNL     1     -46.994  57.138 -59.991  1.00  0.00     0.037 A 
ENDBRANCH   6  31
TORSDOF 5
ENDMDL
MODEL 7
REMARK VINA RESULT:      -8.2      4.167      5.381
REMARK  5 active torsions:
REMARK  status: ('A' for Active; 'I' for Inactive)
REMARK    1  A    between atoms: C_3  and  N_4 
REMARK       I    between atoms: N_4  and  C_5 
REMARK    2  A    between atoms: C_9  and  N_10 
REMARK       I    between atoms: N_10  and  C_11 
REMARK    3  A    between atoms: C_11  and  C_12 
REMARK    4  A    between atoms: C_17  and  C_18 
REMARK    5  A    between atoms: C_24  and  C_25 
ROOT
HETATM    1  C   UNL     1     -43.112  56.344 -53.146  1.00  0.00     0.148 C 
HETATM    2  N   UNL     1     -43.160  55.829 -51.893  1.00  0.00    -0.165 NA
HETATM    3  N   UNL     1     -42.053  55.069 -51.836  1.00  0.00    -0.240 N 
HETATM    4  C   UNL     1     -41.389  54.957 -53.023  1.00  0.00     0.123 C 
HETATM    5  N   UNL     1     -40.365  54.094 -53.168  1.00  0.00    -0.364 N 
HETATM    6  C   UNL     1     -40.075  53.032 -52.195  1.00  0.00     0.143 C 
HETATM    7  C   UNL     1     -41.176  52.933 -51.112  1.00  0.00     0.068 C 
HETATM    8  C   UNL     1     -41.687  54.305 -50.660  1.00  0.00     0.221 C 
HETATM    9  C   UNL     1     -41.994  55.843 -53.871  1.00  0.00     0.089 C 
HETATM   10  H   UNL     1     -39.848  54.027 -54.043  1.00  0.00     0.162 HD
ENDROOT
BRANCH   1  11
HETATM   11  C   UNL     1     -44.153  57.255 -53.658  1.00  0.00     0.276 C 
HETATM   12  N   UNL     1     -43.980  58.544 -53.191  1.00  0.00    -0.322 N 
HETATM   13  H   UNL     1     -43.167  58.648 -52.588  1.00  0.00     0.169 HD
HETATM   14  O   UNL     1     -45.060  56.849 -54.375  1.00  0.00    -0.266 OA
BRANCH  12  15
HETATM   15  C   UNL     1     -44.809  59.661 -53.387  1.00  0.00     0.037 A 
HETATM   16  C   UNL     1     -45.496  60.311 -52.360  1.00  0.00     0.059 A 
HETATM   17  C   UNL     1     -46.293  61.452 -52.598  1.00  0.00     0.042 A 
HETATM   18  C   UNL     1     -46.452  61.906 -53.918  1.00  0.00    -0.035 A 
HETATM   19  C   UNL     1     -47.366  63.021 -54.340  1.00  0.00     0.050 C 
HETATM   20  C   UNL     1     -45.739  61.256 -54.945  1.00  0.00     0.011 A 
HETATM   21  C   UNL     1     -44.934  60.146 -54.685  1.00  0.00     0.030 A 
BRANCH  17  22
HETATM   22  N   UNL     1     -46.903  61.990 -51.440  1.00  0.00    -0.327 N 
HETATM   23  C   UNL     1     -46.320  62.704 -50.413  1.00  0.00     0.218 C 
HETATM   24  C   UNL     1     -47.331  63.197 -49.406  1.00  0.00     0.117 C 
HETATM   25  O   UNL     1     -45.128  62.943 -50.258  1.00  0.00    -0.274 OA
HETATM   26  H   UNL     1     -47.818  61.610 -51.228  1.00  0.00     0.169 HD
ENDBRANCH  17  22
ENDBRANCH  12  15
ENDBRANCH   1  11
BRANCH   8  27
HETATM   27  C   UNL     1     -40.674  55.070 -49.839  1.00  0.00     0.409 C 
HETATM   28  F   UNL     1     -39.491  54.421 -49.752  1.00  0.00    -0.169 F 
HETATM   29  F   UNL     1     -40.415  56.265 -50.430  1.00  0.00    -0.169 F 
HETATM   30  F   UNL     1     -41.085  55.343 -48.584  1.00  0.00    -0.169 F 
ENDBRANCH   8  27
BRANCH   6  31
HETATM   31  C   UNL     1     -39.916  51.690 -52.844  1.00  0.00     0.075 A 
HETATM   32  O   UNL     1     -39.585  50.646 -52.030  1.00  0.00    -0.325 OA
HETATM   33  C   UNL     1     -39.515  49.540 -52.816  1.00  0.00     0.142 A 
HETATM   34  C   UNL     1     -39.803  49.856 -54.123  1.00  0.00     0.027 A 
HETATM   35  C   UNL     1     -40.062  51.246 -54.144  1.00  0.00     0.037 A 
ENDBRANCH   6  31
TORSDOF 5
ENDMDL
MODEL 8
REMARK VINA RESULT:      -8.2      2.246      3.144
REMARK  5 active torsions:
REMARK  status: ('A' for Active; 'I' for Inactive)
REMARK    1  A    between atoms: C_3  and  N_4 
REMARK       I    between atoms: N_4  and  C_5 
REMARK    2  A    between atoms: C_9  and  N_10 
REMARK       I    between atoms: N_10  and  C_11 
REMARK    3  A    between atoms: C_11  and  C_12 
REMARK    4  A    between atoms: C_17  and  C_18 
REMARK    5  A    between atoms: C_24  and  C_25 
ROOT
HETATM    1  C   UNL     1     -42.257  55.634 -55.388  1.00  0.00     0.148 C 
HETATM    2  N   UNL     1     -43.104  55.624 -54.330  1.00  0.00    -0.165 NA
HETATM    3  N   UNL     1     -42.322  55.207 -53.319  1.00  0.00    -0.240 N 
HETATM    4  C   UNL     1     -41.072  54.815 -53.704  1.00  0.00     0.123 C 
HETATM    5  N   UNL     1     -40.235  54.212 -52.838  1.00  0.00    -0.364 N 
HETATM    6  C   UNL     1     -40.679  53.680 -51.542  1.00  0.00     0.143 C 
HETATM    7  C   UNL     1     -42.217  53.746 -51.394  1.00  0.00     0.068 C 
HETATM    8  C   UNL     1     -42.814  55.036 -51.968  1.00  0.00     0.221 C 
HETATM    9  C   UNL     1     -40.963  55.165 -55.022  1.00  0.00     0.089 C 
HETATM   10  H   UNL     1     -39.292  53.944 -53.112  1.00  0.00     0.162 HD
ENDROOT
BRANCH   1  11
HETATM   11  C   UNL     1     -42.695  56.034 -56.738  1.00  0.00     0.276 C 
HETATM   12  N   UNL     1     -42.592  57.399 -56.928  1.00  0.00    -0.322 N 
HETATM   13  H   UNL     1     -42.225  57.891 -56.117  1.00  0.00     0.169 HD
HETATM   14  O   UNL     1     -43.129  55.212 -57.538  1.00  0.00    -0.266 OA
BRANCH  12  15
HETATM   15  C   UNL     1     -42.991  58.157 -58.041  1.00  0.00     0.037 A 
HETATM   16  C   UNL     1     -42.187  59.116 -58.659  1.00  0.00     0.059 A 
HETATM   17  C   UNL     1     -42.616  59.832 -59.797  1.00  0.00     0.042 A 
HETATM   18  C   UNL     1     -43.918  59.621 -60.282  1.00  0.00    -0.035 A 
HETATM   19  C   UNL     1     -44.559  60.398 -61.397  1.00  0.00     0.050 C 
HETATM   20  C   UNL     1     -44.715  58.638 -59.663  1.00  0.00     0.011 A 
HETATM   21  C   UNL     1     -44.262  57.919 -58.556  1.00  0.00     0.030 A 
BRANCH  17  22
HETATM   22  N   UNL     1     -41.667  60.752 -60.302  1.00  0.00    -0.327 N 
HETATM   23  C   UNL     1     -41.477  62.073 -59.949  1.00  0.00     0.218 C 
HETATM   24  C   UNL     1     -40.287  62.690 -60.643  1.00  0.00     0.117 C 
HETATM   25  O   UNL     1     -42.158  62.741 -59.180  1.00  0.00    -0.274 OA
HETATM   26  H   UNL     1     -41.237  60.480 -61.178  1.00  0.00     0.169 HD
ENDBRANCH  17  22
ENDBRANCH  12  15
ENDBRANCH   1  11
BRANCH   8  27
HETATM   27  C   UNL     1     -42.485  56.256 -51.137  1.00  0.00     0.409 C 
HETATM   28  F   UNL     1     -43.541  57.091 -51.015  1.00  0.00    -0.169 F 
HETATM   29  F   UNL     1     -42.150  55.874 -49.877  1.00  0.00    -0.169 F 
HETATM   30  F   UNL     1     -41.446  56.973 -51.611  1.00  0.00    -0.169 F 
ENDBRANCH   8  27
BRANCH   6  31
HETATM   31  C   UNL     1     -40.234  52.265 -51.323  1.00  0.00     0.075 A 
HETATM   32  O   UNL     1     -40.581  51.686 -50.138  1.00  0.00    -0.325 OA
HETATM   33  C   UNL     1     -40.099  50.416 -50.163  1.00  0.00     0.142 A 
HETATM   34  C   UNL     1     -39.451  50.168 -51.351  1.00  0.00     0.027 A 
HETATM   35  C   UNL     1     -39.537  51.363 -52.103  1.00  0.00     0.037 A 
ENDBRANCH   6  31
TORSDOF 5
ENDMDL
MODEL 9
REMARK VINA RESULT:      -8.1     15.087     18.319
REMARK  5 active torsions:
REMARK  status: ('A' for Active; 'I' for Inactive)
REMARK    1  A    between atoms: C_3  and  N_4 
REMARK       I    between atoms: N_4  and  C_5 
REMARK    2  A    between atoms: C_9  and  N_10 
REMARK       I    between atoms: N_10  and  C_11 
REMARK    3  A    between atoms: C_11  and  C_12 
REMARK    4  A    between atoms: C_17  and  C_18 
REMARK    5  A    between atoms: C_24  and  C_25 
ROOT
HETATM    1  C   UNL     1     -38.291  39.358 -51.359  1.00  0.00     0.148 C 
HETATM    2  N   UNL     1     -36.952  39.151 -51.409  1.00  0.00    -0.165 NA
HETATM    3  N   UNL     1     -36.519  40.164 -52.180  1.00  0.00    -0.240 N 
HETATM    4  C   UNL     1     -37.517  40.910 -52.738  1.00  0.00     0.123 C 
HETATM    5  N   UNL     1     -37.248  41.846 -53.668  1.00  0.00    -0.364 N 
HETATM    6  C   UNL     1     -35.951  41.940 -54.351  1.00  0.00     0.143 C 
HETATM    7  C   UNL     1     -35.030  40.749 -53.995  1.00  0.00     0.068 C 
HETATM    8  C   UNL     1     -35.122  40.348 -52.518  1.00  0.00     0.221 C 
HETATM    9  C   UNL     1     -38.675  40.474 -52.155  1.00  0.00     0.089 C 
HETATM   10  H   UNL     1     -37.986  42.424 -54.066  1.00  0.00     0.162 HD
ENDROOT
BRANCH   1  11
HETATM   11  C   UNL     1     -39.193  38.465 -50.607  1.00  0.00     0.276 C 
HETATM   12  N   UNL     1     -40.484  38.956 -50.567  1.00  0.00    -0.322 N 
HETATM   13  H   UNL     1     -40.596  39.835 -51.067  1.00  0.00     0.169 HD
HETATM   14  O   UNL     1     -38.779  37.445 -50.069  1.00  0.00    -0.266 OA
BRANCH  12  15
HETATM   15  C   UNL     1     -41.594  38.437 -49.880  1.00  0.00     0.037 A 
HETATM   16  C   UNL     1     -41.652  38.291 -48.493  1.00  0.00     0.059 A 
HETATM   17  C   UNL     1     -42.802  37.796 -47.840  1.00  0.00     0.042 A 
HETATM   18  C   UNL     1     -43.895  37.375 -48.616  1.00  0.00    -0.035 A 
HETATM   19  C   UNL     1     -45.129  36.709 -48.076  1.00  0.00     0.050 C 
HETATM   20  C   UNL     1     -43.834  37.544 -50.013  1.00  0.00     0.011 A 
HETATM   21  C   UNL     1     -42.699  38.062 -50.638  1.00  0.00     0.030 A 
BRANCH  17  22
HETATM   22  N   UNL     1     -42.691  37.730 -46.431  1.00  0.00    -0.327 N 
HETATM   23  C   UNL     1     -42.573  38.767 -45.528  1.00  0.00     0.218 C 
HETATM   24  C   UNL     1     -42.587  38.289 -44.096  1.00  0.00     0.117 C 
HETATM   25  O   UNL     1     -42.456  39.960 -45.779  1.00  0.00    -0.274 OA
HETATM   26  H   UNL     1     -42.437  36.819 -46.069  1.00  0.00     0.169 HD
ENDBRANCH  17  22
ENDBRANCH  12  15
ENDBRANCH   1  11
BRANCH   8  27
HETATM   27  C   UNL     1     -34.493  41.364 -51.593  1.00  0.00     0.409 C 
HETATM   28  F   UNL     1     -34.748  41.099 -50.292  1.00  0.00    -0.169 F 
HETATM   29  F   UNL     1     -33.142  41.335 -51.733  1.00  0.00    -0.169 F 
HETATM   30  F   UNL     1     -34.878  42.634 -51.836  1.00  0.00    -0.169 F 
ENDBRANCH   8  27
BRANCH   6  31
HETATM   31  C   UNL     1     -36.092  42.011 -55.842  1.00  0.00     0.075 A 
HETATM   32  O   UNL     1     -37.352  41.886 -56.348  1.00  0.00    -0.325 OA
HETATM   33  C   UNL     1     -37.247  42.000 -57.698  1.00  0.00     0.142 A 
HETATM   34  C   UNL     1     -35.938  42.202 -58.067  1.00  0.00     0.027 A 
HETATM   35  C   UNL     1     -35.189  42.209 -56.867  1.00  0.00     0.037 A 
ENDBRANCH   6  31
TORSDOF 5
ENDMDL
MODEL 10
REMARK VINA RESULT:      -8.1      2.097      2.219
REMARK  5 active torsions:
REMARK  status: ('A' for Active; 'I' for Inactive)
REMARK    1  A    between atoms: C_3  and  N_4 
REMARK       I    between atoms: N_4  and  C_5 
REMARK    2  A    between atoms: C_9  and  N_10 
REMARK       I    between atoms: N_10  and  C_11 
REMARK    3  A    between atoms: C_11  and  C_12 
REMARK    4  A    between atoms: C_17  and  C_18 
REMARK    5  A    between atoms: C_24  and  C_25 
ROOT
HETATM    1  C   UNL     1     -43.073  56.269 -52.938  1.00  0.00     0.148 C 
HETATM    2  N   UNL     1     -43.115  55.753 -51.685  1.00  0.00    -0.165 NA
HETATM    3  N   UNL     1     -42.004  54.997 -51.632  1.00  0.00    -0.240 N 
HETATM    4  C   UNL     1     -41.344  54.888 -52.822  1.00  0.00     0.123 C 
HETATM    5  N   UNL     1     -40.318  54.029 -52.971  1.00  0.00    -0.364 N 
HETATM    6  C   UNL     1     -40.020  52.968 -51.999  1.00  0.00     0.143 C 
HETATM    7  C   UNL     1     -41.117  52.864 -50.913  1.00  0.00     0.068 C 
HETATM    8  C   UNL     1     -41.632  54.234 -50.458  1.00  0.00     0.221 C 
HETATM    9  C   UNL     1     -41.956  55.773 -53.667  1.00  0.00     0.089 C 
HETATM   10  H   UNL     1     -39.803  53.966 -53.848  1.00  0.00     0.162 HD
ENDROOT
BRANCH   1  11
HETATM   11  C   UNL     1     -44.119  57.176 -53.445  1.00  0.00     0.276 C 
HETATM   12  N   UNL     1     -43.993  57.394 -54.804  1.00  0.00    -0.322 N 
HETATM   13  H   UNL     1     -43.215  56.889 -55.222  1.00  0.00     0.169 HD
HETATM   14  O   UNL     1     -44.948  57.679 -52.695  1.00  0.00    -0.266 OA
BRANCH  12  15
HETATM   15  C   UNL     1     -44.741  58.258 -55.622  1.00  0.00     0.037 A 
HETATM   16  C   UNL     1     -45.416  57.849 -56.774  1.00  0.00     0.059 A 
HETATM   17  C   UNL     1     -46.184  58.745 -57.548  1.00  0.00     0.042 A 
HETATM   18  C   UNL     1     -46.215  60.103 -57.186  1.00  0.00    -0.035 A 
HETATM   19  C   UNL     1     -46.878  61.191 -57.981  1.00  0.00     0.050 C 
HETATM   20  C   UNL     1     -45.547  60.501 -56.011  1.00  0.00     0.011 A 
HETATM   21  C   UNL     1     -44.816  59.594 -55.242  1.00  0.00     0.030 A 
BRANCH  17  22
HETATM   22  N   UNL     1     -46.811  58.157 -58.672  1.00  0.00    -0.327 N 
HETATM   23  C   UNL     1     -46.235  57.721 -59.849  1.00  0.00     0.218 C 
HETATM   24  C   UNL     1     -47.231  57.052 -60.765  1.00  0.00     0.117 C 
HETATM   25  O   UNL     1     -45.064  57.835 -60.189  1.00  0.00    -0.274 OA
HETATM   26  H   UNL     1     -47.815  58.284 -58.712  1.00  0.00     0.169 HD
ENDBRANCH  17  22
ENDBRANCH  12  15
ENDBRANCH   1  11
BRANCH   8  27
HETATM   27  C   UNL     1     -40.618  55.002 -49.640  1.00  0.00     0.409 C 
HETATM   28  F   UNL     1     -40.295  56.185 -50.206  1.00  0.00    -0.169 F 
HETATM   29  F   UNL     1     -41.140  55.289 -48.419  1.00  0.00    -0.169 F 
HETATM   30  F   UNL     1     -39.473  54.325 -49.419  1.00  0.00    -0.169 F 
ENDBRANCH   8  27
BRANCH   6  31
HETATM   31  C   UNL     1     -39.858  51.627 -52.650  1.00  0.00     0.075 A 
HETATM   32  O   UNL     1     -40.038  51.570 -54.000  1.00  0.00    -0.325 OA
HETATM   33  C   UNL     1     -39.825  50.281 -54.373  1.00  0.00     0.142 A 
HETATM   34  C   UNL     1     -39.505  49.508 -53.282  1.00  0.00     0.027 A 
HETATM   35  C   UNL     1     -39.526  50.377 -52.165  1.00  0.00     0.037 A 
ENDBRANCH   6  31
TORSDOF 5
ENDMDL
